REMARK  14 active torsions:
REMARK  status: ('A' for Active; 'I' for Inactive)
REMARK    1  A    between atoms: C_1  and  N_3 
REMARK    2  A    between atoms: C_1  and  C_2 
REMARK       I    between atoms: C_2  and  N_7 
REMARK    3  A    between atoms: C_5  and  N_7 
REMARK    4  A    between atoms: C_5  and  C_6 
REMARK       I    between atoms: C_6  and  N_12 
REMARK    5  A    between atoms: C_9  and  C_14 
REMARK    6  A    between atoms: C_9  and  C_10 
REMARK    7  A    between atoms: C_10  and  C_11 
REMARK    8  A    between atoms: C_10  and  N_12 
REMARK       I    between atoms: C_11  and  N_21 
REMARK    9  A    between atoms: C_14  and  C_15 
REMARK   10  A    between atoms: C_15  and  C_16 
REMARK   11  A    between atoms: C_16  and  N_17 
REMARK   12  A    between atoms: C_19  and  N_21 
REMARK   13  A    between atoms: C_19  and  C_20 
REMARK       I    between atoms: C_20  and  N_24 
REMARK   14  A    between atoms: C_23  and  C_25 
ROOT
HETATM    1  C           1       5.648  -0.346   0.166  0.00  0.00     0.176 C 
ENDROOT
BRANCH   1   2
HETATM    2  C           1       5.238  -0.843   1.588  0.00  0.00     0.035 C 
BRANCH   2   3
HETATM    3  C           1       3.920  -1.657   1.635  0.00  0.00     0.004 C 
BRANCH   3   4
HETATM    4  C           1       3.778  -2.486   2.913  0.00  0.00     0.027 C 
BRANCH   4   5
HETATM    5  C           1       2.625  -3.513   2.906  0.00  0.00     0.229 C 
BRANCH   5   6
HETATM    6  N           1       2.406  -4.000   4.324  0.00  0.00    -0.079 N 
HETATM    7  H           1       1.659  -4.730   4.326  0.00  0.00     0.274 HD
HETATM    8  H           1       2.126  -3.203   4.934  0.00  0.00     0.274 HD
HETATM    9  H           1       3.298  -4.420   4.665  0.00  0.00     0.274 HD
ENDBRANCH   5   6
ENDBRANCH   4   5
ENDBRANCH   3   4
ENDBRANCH   2   3
ENDBRANCH   1   2
BRANCH   1  10
HETATM   10  C           1       5.358   1.168   0.016  0.00  0.00     0.241 C 
HETATM   11  N           1       4.846   1.643  -1.155  0.00  0.00    -0.346 N 
HETATM   12  H           1       4.659   2.654  -1.153  0.00  0.00     0.163 HD
HETATM   13  O           1       5.545   1.920   0.942  0.00  0.00    -0.271 OA
BRANCH  11  14
HETATM   14  C           1       4.475   0.902  -2.369  0.00  0.00     0.172 C 
HETATM   15  C           1       3.358  -0.138  -2.140  0.00  0.00     0.042 C 
BRANCH  14  16
HETATM   16  C           1       4.011   1.921  -3.435  0.00  0.00     0.243 C 
HETATM   17  N           1       4.962   2.431  -4.285  0.00  0.00    -0.336 N 
HETATM   18  C           1       6.407   2.304  -4.189  0.00  0.00     0.188 C 
HETATM   19  C           1       4.657   3.335  -5.387  0.00  0.00     0.127 C 
HETATM   20  C           1       6.880   2.350  -5.650  0.00  0.00     0.038 C 
HETATM   21  C           1       5.742   3.035  -6.428  0.00  0.00     0.022 C 
HETATM   22  O           1       2.855   2.231  -3.515  0.00  0.00    -0.271 OA
BRANCH  18  23
HETATM   23  C           1       6.991   3.395  -3.298  0.00  0.00     0.196 C 
HETATM   24  O           1       8.231   3.529  -3.288  0.00  0.00    -0.646 OA
HETATM   25  O           1       6.192   4.055  -2.596  0.00  0.00    -0.646 OA
ENDBRANCH  18  23
ENDBRANCH  14  16
ENDBRANCH  11  14
ENDBRANCH   1  10
BRANCH   1  26
HETATM   26  N           1       7.044  -0.675  -0.184  0.00  0.00    -0.346 N 
HETATM   27  C           1       7.537  -1.928  -0.447  0.00  0.00     0.236 C 
HETATM   28  O           1       8.672  -2.160  -0.737  0.00  0.00    -0.272 OA
HETATM   29  H           1       7.734   0.082  -0.236  0.00  0.00     0.163 HD
BRANCH  27  30
HETATM   30  C           1       6.559  -3.101  -0.310  0.00  0.00     0.225 C 
BRANCH  30  31
HETATM   31  N           1       7.243  -4.386  -0.492  0.00  0.00    -0.351 N 
HETATM   32  C           1       6.725  -5.638  -0.284  0.00  0.00     0.243 C 
HETATM   33  O           1       7.414  -6.617  -0.288  0.00  0.00    -0.272 OA
HETATM   34  H           1       8.245  -4.357  -0.716  0.00  0.00     0.163 HD
BRANCH  32  35
HETATM   35  C           1       5.215  -5.816  -0.007  0.00  0.00     0.332 C 
BRANCH  35  36
HETATM   36  N           1       4.360  -4.601  -0.105  0.00  0.00    -0.071 N 
HETATM   37  H           1       3.364  -4.868   0.082  0.00  0.00     0.274 HD
HETATM   38  H           1       4.453  -4.145  -1.034  0.00  0.00     0.274 HD
HETATM   39  H           1       4.680  -3.944   0.643  0.00  0.00     0.274 HD
ENDBRANCH  35  36
ENDBRANCH  32  35
ENDBRANCH  30  31
ENDBRANCH  27  30
ENDBRANCH   1  26
TORSDOF 14
