REMARK  20 active torsions:
REMARK  status: ('A' for Active; 'I' for Inactive)
REMARK    1  A    between atoms: C_3  and  N_9 
REMARK    2  A    between atoms: C_3  and  S_4 
REMARK    3  A    between atoms: C_3  and  O_42 
REMARK    4  A    between atoms: S_4  and  C_36 
REMARK    5  A    between atoms: N_5  and  C_7 
REMARK       I    between atoms: N_5  and  C_15 
REMARK       I    between atoms: C_6  and  N_28 
REMARK    6  A    between atoms: C_6  and  C_7 
REMARK    7  A    between atoms: N_9  and  C_10 
REMARK    8  A    between atoms: C_10  and  C_11 
REMARK    9  A    between atoms: C_11  and  C_12 
REMARK   10  A    between atoms: C_12  and  C_17 
REMARK   11  A    between atoms: N_14  and  C_16 
REMARK       I    between atoms: N_14  and  C_20 
REMARK   12  A    between atoms: C_15  and  C_16 
REMARK   13  A    between atoms: C_16  and  C_17 
REMARK       I    between atoms: N_19  and  C_24 
REMARK   14  A    between atoms: N_19  and  C_21 
REMARK   15  A    between atoms: C_20  and  C_21 
REMARK   16  A    between atoms: N_23  and  C_25 
REMARK       I    between atoms: N_23  and  C_35 
REMARK   17  A    between atoms: C_24  and  C_25 
REMARK       I    between atoms: C_27  and  N_34 
REMARK   18  A    between atoms: C_27  and  C_29 
REMARK   19  A    between atoms: C_36  and  C_37 
REMARK   20  A    between atoms: C_37  and  N_38 
REMARK       I    between atoms: N_38  and  C_39 
ROOT
HETATM    1  C           1      -1.599   1.247   2.446  0.00  0.00     0.176 C 
ENDROOT
BRANCH   1   2
HETATM    2  N           1      -2.237   2.549   2.178  0.00  0.00    -0.346 N 
HETATM    3  C           1      -2.264   3.173   0.953  0.00  0.00     0.236 C 
HETATM    4  O           1      -2.788   4.247   0.789  0.00  0.00    -0.272 OA
HETATM    5  H           1      -2.655   3.038   2.971  0.00  0.00     0.163 HD
BRANCH   3   6
HETATM    6  C           1      -1.567   2.460  -0.209  0.00  0.00     0.225 C 
BRANCH   6   7
HETATM    7  N           1      -1.374   3.393  -1.320  0.00  0.00    -0.351 N 
HETATM    8  C           1      -0.555   3.238  -2.410  0.00  0.00     0.235 C 
HETATM    9  O           1      -0.438   4.144  -3.201  0.00  0.00    -0.272 OA
HETATM   10  H           1      -1.853   4.293  -1.241  0.00  0.00     0.163 HD
BRANCH   8  11
HETATM   11  C           1       0.212   1.912  -2.630  0.00  0.00     0.225 C 
BRANCH  11  12
HETATM   12  N           1      -0.162   0.741  -1.837  0.00  0.00    -0.353 N 
HETATM   13  C           1       0.093  -0.577  -2.133  0.00  0.00     0.213 C 
HETATM   14  C           1       0.926  -0.905  -3.366  0.00  0.00     0.117 C 
HETATM   15  O           1      -0.330  -1.433  -1.400  0.00  0.00    -0.274 OA
HETATM   16  H           1      -0.641   0.827  -0.953  0.00  0.00     0.162 HD
ENDBRANCH  11  12
ENDBRANCH   8  11
ENDBRANCH   6   7
ENDBRANCH   3   6
ENDBRANCH   1   2
BRANCH   1  17
HETATM   17  C           1      -2.335   0.582   3.613  0.00  0.00     0.241 C 
HETATM   18  N           1      -3.396  -0.252   3.359  0.00  0.00    -0.346 N 
HETATM   19  H           1      -3.885  -0.567   4.201  0.00  0.00     0.163 HD
HETATM   20  O           1      -2.027   0.826   4.752  0.00  0.00    -0.271 OA
BRANCH  18  21
HETATM   21  C           1      -3.946  -0.672   2.057  0.00  0.00     0.172 C 
HETATM   22  C           1      -2.999  -1.436   1.094  0.00  0.00     0.042 C 
BRANCH  21  23
HETATM   23  C           1      -5.121  -1.618   2.353  0.00  0.00     0.243 C 
HETATM   24  N           1      -6.355  -1.057   2.573  0.00  0.00    -0.337 N 
HETATM   25  C           1      -6.671   0.352   2.809  0.00  0.00     0.179 C 
HETATM   26  C           1      -7.549  -1.861   2.774  0.00  0.00     0.127 C 
HETATM   27  C           1      -8.114   0.479   2.290  0.00  0.00     0.037 C 
HETATM   28  C           1      -8.725  -0.926   2.446  0.00  0.00     0.022 C 
HETATM   29  O           1      -4.955  -2.815   2.371  0.00  0.00    -0.271 OA
BRANCH  25  30
HETATM   30  C           1      -6.543   0.702   4.290  0.00  0.00     0.238 C 
HETATM   31  N           1      -6.997   1.941   4.630  0.00  0.00    -0.368 N 
HETATM   32  H           1      -6.953   2.214   5.601  0.00  0.00     0.159 HD
HETATM   33  H           1      -7.376   2.577   3.943  0.00  0.00     0.159 HD
HETATM   34  O           1      -6.065  -0.038   5.112  0.00  0.00    -0.271 OA
ENDBRANCH  25  30
ENDBRANCH  21  23
ENDBRANCH  18  21
ENDBRANCH   1  17
BRANCH   1  35
HETATM   35  C           1      -0.064   1.376   2.676  0.00  0.00     0.035 C 
BRANCH  35  36
HETATM   36  C           1       0.761   0.334   1.879  0.00  0.00     0.004 C 
BRANCH  36  37
HETATM   37  C           1       2.257   0.693   1.650  0.00  0.00     0.030 C 
BRANCH  37  38
HETATM   38  C           1       2.846  -0.006   0.405  0.00  0.00     0.274 C 
BRANCH  38  39
HETATM   39  N           1       4.291   0.173   0.166  0.00  0.00     0.128 N 
HETATM   40  H           1       4.512   1.201   0.173  0.00  0.00     0.321 HD
BRANCH  39  41
HETATM   41  C           1       4.777  -0.422  -1.094  0.00  0.00     0.303 C 
HETATM   42  C           1       4.391   0.423  -2.324  0.00  0.00     0.094 C 
BRANCH  41  43
HETATM   43  S           1       6.601  -0.586  -1.011  0.00  0.00    -0.099 SA
BRANCH  43  44
HETATM   44  C           1       6.974  -1.518  -2.537  0.00  0.00     0.098 C 
BRANCH  44  45
HETATM   45  C           1       8.495  -1.571  -2.759  0.00  0.00     0.133 C 
BRANCH  45  46
HETATM   46  N           1       8.744  -2.361  -3.970  0.00  0.00    -0.361 N 
HETATM   47  C           1       9.988  -2.493  -4.516  0.00  0.00     0.213 C 
HETATM   48  C           1      10.023  -3.334  -5.779  0.00  0.00     0.117 C 
HETATM   49  O           1      10.968  -1.980  -4.036  0.00  0.00    -0.274 OA
HETATM   50  H           1       7.968  -2.851  -4.414  0.00  0.00     0.162 HD
ENDBRANCH  45  46
ENDBRANCH  44  45
ENDBRANCH  43  44
ENDBRANCH  41  43
BRANCH  41  51
HETATM   51  O           1       4.178  -1.712  -1.212  0.00  0.00    -0.355 OA
HETATM   52  H           1       4.869  -2.359  -1.355  0.00  0.00     0.213 HD
ENDBRANCH  41  51
ENDBRANCH  39  41
ENDBRANCH  38  39
ENDBRANCH  37  38
ENDBRANCH  36  37
ENDBRANCH  35  36
ENDBRANCH   1  35
TORSDOF 20
