REMARK  14 active torsions:
REMARK  status: ('A' for Active; 'I' for Inactive)
REMARK    1  A    between atoms: C_1  and  N_42 
REMARK    2  A    between atoms: C_1  and  C_43 
REMARK       I    between atoms: C_11  and  N_28 
REMARK       I    between atoms: C_14  and  N_42 
REMARK       I    between atoms: N_15  and  C_22 
REMARK    3  A    between atoms: C_20  and  C_22 
REMARK       I    between atoms: N_21  and  C_25 
REMARK    4  A    between atoms: N_24  and  C_26 
REMARK       I    between atoms: N_24  and  C_34 
REMARK    5  A    between atoms: C_25  and  C_26 
REMARK    6  A    between atoms: N_28  and  C_29 
REMARK    7  A    between atoms: C_29  and  C_30 
REMARK    8  A    between atoms: C_30  and  C_31 
REMARK    9  A    between atoms: C_31  and  C_36 
REMARK   10  A    between atoms: N_33  and  C_35 
REMARK       I    between atoms: N_33  and  C_39 
REMARK   11  A    between atoms: C_34  and  C_35 
REMARK   12  A    between atoms: C_35  and  C_36 
REMARK   13  A    between atoms: N_38  and  C_40 
REMARK       I    between atoms: N_38  and  C_43 
REMARK   14  A    between atoms: C_39  and  C_40 
ROOT
HETATM    1  C           1      -0.209   1.578   0.510  0.00  0.00     0.176 C 
ENDROOT
BRANCH   1   2
HETATM    2  N           1      -0.828   2.264  -0.636  0.00  0.00    -0.346 N 
HETATM    3  H           1      -1.366   3.115  -0.468  0.00  0.00     0.163 HD
HETATM    4  C           1      -0.695   1.889  -1.948  0.00  0.00     0.236 C 
HETATM    5  O           1      -1.278   2.476  -2.823  0.00  0.00    -0.272 OA
BRANCH   4   6
HETATM    6  C           1       0.218   0.700  -2.239  0.00  0.00     0.225 C 
BRANCH   6   7
HETATM    7  N           1       0.417   0.566  -3.682  0.00  0.00    -0.351 N 
HETATM    8  H           1      -0.195   1.117  -4.284  0.00  0.00     0.163 HD
HETATM    9  C           1       1.400  -0.147  -4.321  0.00  0.00     0.235 C 
HETATM   10  O           1       1.518  -0.055  -5.517  0.00  0.00    -0.272 OA
BRANCH   9  11
HETATM   11  C           1       2.355  -1.032  -3.506  0.00  0.00     0.225 C 
BRANCH  11  12
HETATM   12  N           1       1.805  -1.635  -2.291  0.00  0.00    -0.353 N 
HETATM   13  H           1       0.931  -1.303  -1.885  0.00  0.00     0.162 HD
HETATM   14  C           1       2.419  -2.590  -1.529  0.00  0.00     0.213 C 
HETATM   15  O           1       1.954  -2.861  -0.449  0.00  0.00    -0.274 OA
HETATM   16  C           1       3.642  -3.263  -2.129  0.00  0.00     0.117 C 
ENDBRANCH  11  12
ENDBRANCH   9  11
ENDBRANCH   6   7
ENDBRANCH   4   6
ENDBRANCH   1   2
BRANCH   1  17
HETATM   17  C           1      -1.082   1.797   1.758  0.00  0.00     0.241 C 
HETATM   18  N           1      -2.055   0.880   2.073  0.00  0.00    -0.346 N 
HETATM   19  H           1      -2.669   1.182   2.833  0.00  0.00     0.163 HD
HETATM   20  O           1      -0.975   2.786   2.437  0.00  0.00    -0.271 OA
BRANCH  18  21
HETATM   21  C           1      -2.333  -0.442   1.483  0.00  0.00     0.172 C 
HETATM   22  C           1      -1.172  -1.462   1.510  0.00  0.00     0.042 C 
BRANCH  21  23
HETATM   23  C           1      -3.514  -1.051   2.277  0.00  0.00     0.243 C 
HETATM   24  N           1      -4.787  -0.652   1.941  0.00  0.00    -0.337 N 
HETATM   25  C           1      -5.977  -1.219   2.562  0.00  0.00     0.127 C 
HETATM   26  C           1      -5.172   0.465   1.084  0.00  0.00     0.179 C 
HETATM   27  C           1      -7.156  -0.849   1.648  0.00  0.00     0.022 C 
HETATM   28  C           1      -6.550   0.037   0.549  0.00  0.00     0.037 C 
HETATM   29  O           1      -3.325  -1.858   3.156  0.00  0.00    -0.271 OA
BRANCH  26  30
HETATM   30  C           1      -5.170   1.772   1.875  0.00  0.00     0.238 C 
HETATM   31  N           1      -5.818   2.812   1.287  0.00  0.00    -0.368 N 
HETATM   32  H           1      -6.278   2.712   0.394  0.00  0.00     0.159 HD
HETATM   33  H           1      -5.823   3.698   1.771  0.00  0.00     0.159 HD
HETATM   34  O           1      -4.605   1.912   2.929  0.00  0.00    -0.271 OA
ENDBRANCH  26  30
ENDBRANCH  21  23
ENDBRANCH  18  21
ENDBRANCH   1  17
BRANCH   1  35
HETATM   35  C           1       1.273   2.023   0.667  0.00  0.00     0.035 C 
BRANCH  35  36
HETATM   36  C           1       2.239   0.831   0.856  0.00  0.00     0.004 C 
BRANCH  36  37
HETATM   37  C           1       3.731   1.141   0.620  0.00  0.00     0.020 C 
BRANCH  37  38
HETATM   38  C           1       4.549  -0.147   0.386  0.00  0.00     0.122 C 
BRANCH  38  39
HETATM   39  N           1       5.977   0.161   0.243  0.00  0.00    -0.361 N 
HETATM   40  H           1       6.283   1.127   0.356  0.00  0.00     0.162 HD
HETATM   41  C           1       6.919  -0.796  -0.028  0.00  0.00     0.213 C 
HETATM   42  O           1       6.663  -1.967  -0.165  0.00  0.00    -0.274 OA
HETATM   43  C           1       8.336  -0.266  -0.153  0.00  0.00     0.117 C 
ENDBRANCH  38  39
ENDBRANCH  37  38
ENDBRANCH  36  37
ENDBRANCH  35  36
ENDBRANCH   1  35
TORSDOF 14
