REMARK  14 active torsions:
REMARK  status: ('A' for Active; 'I' for Inactive)
REMARK    1  A    between atoms: C_1  and  C_42 
REMARK    2  A    between atoms: C_1  and  N_41 
REMARK       I    between atoms: C_13  and  N_41 
REMARK       I    between atoms: N_14  and  C_21 
REMARK    3  A    between atoms: C_19  and  C_21 
REMARK       I    between atoms: N_20  and  C_24 
REMARK       I    between atoms: N_23  and  C_33 
REMARK    4  A    between atoms: N_23  and  C_25 
REMARK    5  A    between atoms: C_24  and  C_25 
REMARK    6  A    between atoms: N_27  and  C_28 
REMARK    7  A    between atoms: C_28  and  C_29 
REMARK    8  A    between atoms: C_29  and  C_30 
REMARK    9  A    between atoms: C_30  and  C_35 
REMARK       I    between atoms: N_32  and  C_38 
REMARK   10  A    between atoms: N_32  and  C_34 
REMARK   11  A    between atoms: C_33  and  C_34 
REMARK   12  A    between atoms: C_34  and  C_35 
REMARK       I    between atoms: N_37  and  C_42 
REMARK   13  A    between atoms: N_37  and  C_39 
REMARK   14  A    between atoms: C_38  and  C_39 
ROOT
HETATM    1  C           1       1.156   0.830   0.594  0.00  0.00     0.176 C 
ENDROOT
BRANCH   1   2
HETATM    2  N           1       0.806   2.038  -0.163  0.00  0.00    -0.346 N 
HETATM    3  H           1       0.882   2.943   0.299  0.00  0.00     0.163 HD
HETATM    4  C           1       0.466   2.078  -1.493  0.00  0.00     0.236 C 
HETATM    5  O           1       0.231   3.134  -2.032  0.00  0.00    -0.272 OA
BRANCH   4   6
HETATM    6  C           1       0.411   0.752  -2.262  0.00  0.00     0.225 C 
BRANCH   6   7
HETATM    7  N           1       0.330   1.060  -3.691  0.00  0.00    -0.351 N 
HETATM    8  H           1       0.163   2.030  -3.926  0.00  0.00     0.163 HD
HETATM    9  C           1       0.575   0.217  -4.752  0.00  0.00     0.235 C 
HETATM   10  O           1       0.635   0.679  -5.864  0.00  0.00    -0.272 OA
BRANCH   9  11
HETATM   11  C           1       0.783  -1.289  -4.549  0.00  0.00     0.225 C 
BRANCH  11  12
HETATM   12  N           1       0.513  -1.881  -3.247  0.00  0.00    -0.353 N 
HETATM   13  H           1       0.207  -1.308  -2.471  0.00  0.00     0.162 HD
HETATM   14  C           1       0.919  -3.146  -2.880  0.00  0.00     0.213 C 
HETATM   15  O           1       1.127  -3.406  -1.717  0.00  0.00    -0.274 OA
HETATM   16  C           1       1.141  -4.170  -3.986  0.00  0.00     0.117 C 
ENDBRANCH  11  12
ENDBRANCH   9  11
ENDBRANCH   6   7
ENDBRANCH   4   6
ENDBRANCH   1   2
BRANCH   1  17
HETATM   17  C           1       0.835   1.070   2.074  0.00  0.00     0.241 C 
HETATM   18  N           1      -0.432   0.811   2.539  0.00  0.00    -0.346 N 
HETATM   19  H           1      -0.592   1.109   3.502  0.00  0.00     0.163 HD
HETATM   20  O           1       1.661   1.527   2.824  0.00  0.00    -0.271 OA
BRANCH  18  21
HETATM   21  C           1      -1.561   0.168   1.840  0.00  0.00     0.172 C 
HETATM   22  C           1      -1.298  -1.245   1.253  0.00  0.00     0.042 C 
BRANCH  21  23
HETATM   23  C           1      -2.698   0.022   2.868  0.00  0.00     0.243 C 
HETATM   24  N           1      -3.543   1.091   3.048  0.00  0.00    -0.337 N 
HETATM   25  C           1      -4.701   1.028   3.920  0.00  0.00     0.127 C 
HETATM   26  C           1      -3.366   2.462   2.577  0.00  0.00     0.179 C 
HETATM   27  C           1      -5.643   2.136   3.426  0.00  0.00     0.022 C 
HETATM   28  C           1      -4.814   2.965   2.428  0.00  0.00     0.037 C 
HETATM   29  O           1      -2.845  -1.014   3.474  0.00  0.00    -0.271 OA
BRANCH  26  30
HETATM   30  C           1      -2.526   3.266   3.563  0.00  0.00     0.238 C 
HETATM   31  N           1      -2.542   4.615   3.378  0.00  0.00    -0.368 N 
HETATM   32  H           1      -3.065   5.037   2.623  0.00  0.00     0.159 HD
HETATM   33  H           1      -1.998   5.185   4.008  0.00  0.00     0.159 HD
HETATM   34  O           1      -1.858   2.763   4.431  0.00  0.00    -0.271 OA
ENDBRANCH  26  30
ENDBRANCH  21  23
ENDBRANCH  18  21
ENDBRANCH   1  17
BRANCH   1  35
HETATM   35  C           1       2.641   0.444   0.330  0.00  0.00     0.035 C 
BRANCH  35  36
HETATM   36  C           1       2.800  -1.051   0.000  0.00  0.00     0.004 C 
BRANCH  36  37
HETATM   37  C           1       4.208  -1.454  -0.471  0.00  0.00     0.027 C 
BRANCH  37  38
HETATM   38  C           1       4.173  -2.825  -1.161  0.00  0.00     0.229 C 
BRANCH  38  39
HETATM   39  N           1       5.591  -3.267  -1.335  0.00  0.00    -0.079 N 
HETATM   40  H           1       6.110  -2.552  -1.891  0.00  0.00     0.274 HD
HETATM   41  H           1       6.043  -3.378  -0.402  0.00  0.00     0.274 HD
HETATM   42  H           1       5.598  -4.178  -1.843  0.00  0.00     0.274 HD
ENDBRANCH  38  39
ENDBRANCH  37  38
ENDBRANCH  36  37
ENDBRANCH  35  36
ENDBRANCH   1  35
TORSDOF 14
