REMARK  23 active torsions:
REMARK  status: ('A' for Active; 'I' for Inactive)
REMARK       I    between atoms: C_1  and  N_11 
REMARK    1  A    between atoms: C_1  and  C_3 
REMARK    2  A    between atoms: C_8  and  C_17 
REMARK    3  A    between atoms: C_8  and  C_9 
REMARK    4  A    between atoms: C_9  and  C_10 
REMARK    5  A    between atoms: C_9  and  N_11 
REMARK       I    between atoms: C_10  and  N_22 
REMARK    6  A    between atoms: N_13  and  C_18 
REMARK       I    between atoms: N_13  and  C_14 
REMARK       I    between atoms: C_14  and  N_15 
REMARK    7  A    between atoms: C_17  and  C_18 
REMARK    8  A    between atoms: C_19  and  C_24 
REMARK    9  A    between atoms: C_19  and  C_20 
REMARK   10  A    between atoms: C_20  and  C_21 
REMARK   11  A    between atoms: C_20  and  N_22 
REMARK       I    between atoms: C_21  and  N_31 
REMARK   12  A    between atoms: C_24  and  C_25 
REMARK   13  A    between atoms: C_25  and  C_26 
REMARK   14  A    between atoms: C_26  and  N_27 
REMARK   15  A    between atoms: C_28  and  C_29 
REMARK   16  A    between atoms: C_28  and  C_33 
REMARK   17  A    between atoms: C_29  and  N_31 
REMARK   18  A    between atoms: C_29  and  C_30 
REMARK       I    between atoms: C_30  and  N_40 
REMARK   19  A    between atoms: C_33  and  C_34 
REMARK       I    between atoms: C_34  and  N_36 
REMARK   20  A    between atoms: C_37  and  C_38 
REMARK   21  A    between atoms: C_37  and  C_42 
REMARK   22  A    between atoms: C_38  and  N_40 
REMARK   23  A    between atoms: C_38  and  C_39 
ROOT
HETATM    1  C           1       0.108   0.124   2.912  0.00  0.00     0.176 C 
ENDROOT
BRANCH   1   2
HETATM    2  C           1       1.011   1.385   2.833  0.00  0.00     0.035 C 
BRANCH   2   3
HETATM    3  C           1       0.762   2.166   1.537  0.00  0.00     0.004 C 
BRANCH   3   4
HETATM    4  C           1       1.793   3.238   1.177  0.00  0.00     0.027 C 
BRANCH   4   5
HETATM    5  C           1       1.767   3.507  -0.337  0.00  0.00     0.229 C 
BRANCH   5   6
HETATM    6  N           1       2.761   4.607  -0.545  0.00  0.00    -0.079 N 
HETATM    7  H           1       2.832   4.822  -1.568  0.00  0.00     0.274 HD
HETATM    8  H           1       3.698   4.302  -0.198  0.00  0.00     0.274 HD
HETATM    9  H           1       2.464   5.466  -0.031  0.00  0.00     0.274 HD
ENDBRANCH   5   6
ENDBRANCH   4   5
ENDBRANCH   3   4
ENDBRANCH   2   3
ENDBRANCH   1   2
BRANCH   1  10
HETATM   10  C           1       0.873  -0.970   3.666  0.00  0.00     0.241 C 
HETATM   11  O           1       0.648  -1.214   4.828  0.00  0.00    -0.271 OA
HETATM   12  N           1       1.890  -1.632   3.004  0.00  0.00    -0.346 N 
HETATM   13  H           1       2.358  -2.350   3.552  0.00  0.00     0.163 HD
BRANCH  12  14
HETATM   14  C           1       2.267  -1.462   1.582  0.00  0.00     0.177 C 
BRANCH  14  15
HETATM   15  C           1       3.783  -1.196   1.423  0.00  0.00     0.044 C 
BRANCH  15  16
HETATM   16  C           1       4.080   0.171   0.787  0.00  0.00     0.105 C 
BRANCH  16  17
HETATM   17  C           1       5.549   0.529   0.643  0.00  0.00     0.215 C 
HETATM   18  O           1       6.467  -0.207   0.869  0.00  0.00    -0.274 OA
HETATM   19  N           1       5.783   1.802   0.216  0.00  0.00    -0.370 N 
HETATM   20  H           1       5.023   2.434   0.006  0.00  0.00     0.159 HD
HETATM   21  H           1       6.748   2.084   0.110  0.00  0.00     0.159 HD
ENDBRANCH  16  17
ENDBRANCH  15  16
ENDBRANCH  14  15
BRANCH  14  22
HETATM   22  C           1       1.840  -2.679   0.768  0.00  0.00     0.241 C 
HETATM   23  O           1       1.552  -3.723   1.305  0.00  0.00    -0.271 OA
HETATM   24  N           1       1.820  -2.473  -0.585  0.00  0.00    -0.345 N 
HETATM   25  H           1       2.151  -1.580  -0.952  0.00  0.00     0.163 HD
BRANCH  24  26
HETATM   26  C           1       1.247  -3.446  -1.523  0.00  0.00     0.185 C 
BRANCH  26  27
HETATM   27  C           1       1.995  -4.795  -1.565  0.00  0.00     0.040 C 
BRANCH  27  28
HETATM   28  C           1       3.035  -4.995  -2.693  0.00  0.00    -0.020 C 
HETATM   29  C           1       2.359  -5.264  -4.049  0.00  0.00     0.009 C 
HETATM   30  C           1       4.060  -3.852  -2.800  0.00  0.00     0.009 C 
ENDBRANCH  27  28
ENDBRANCH  26  27
BRANCH  26  31
HETATM   31  C           1      -0.274  -3.521  -1.352  0.00  0.00     0.196 C 
HETATM   32  O           1      -0.801  -3.268  -0.239  0.00  0.00    -0.646 OA
HETATM   33  O           1      -0.962  -3.696  -2.386  0.00  0.00    -0.646 OA
ENDBRANCH  26  31
ENDBRANCH  24  26
ENDBRANCH  14  22
ENDBRANCH  12  14
ENDBRANCH   1  10
BRANCH   1  34
HETATM   34  N           1      -1.079   0.501   3.685  0.00  0.00    -0.346 N 
HETATM   35  C           1      -2.390   0.507   3.299  0.00  0.00     0.241 C 
HETATM   36  O           1      -3.200   0.865   4.121  0.00  0.00    -0.271 OA
HETATM   37  H           1      -0.930   0.773   4.664  0.00  0.00     0.163 HD
BRANCH  35  38
HETATM   38  C           1      -2.802   0.039   1.880  0.00  0.00     0.176 C 
BRANCH  38  39
HETATM   39  C           1      -2.237   0.689   0.594  0.00  0.00     0.036 C 
BRANCH  39  40
HETATM   40  C           1      -1.497  -0.196  -0.420  0.00  0.00     0.023 C 
BRANCH  40  41
HETATM   41  C           1      -1.126   0.582  -1.697  0.00  0.00     0.138 C 
BRANCH  41  42
HETATM   42  N           1      -0.233  -0.232  -2.565  0.00  0.00    -0.227 N 
HETATM   43  C           1       0.309   0.147  -3.649  0.00  0.00     0.665 C 
HETATM   44  N           1      -0.195   1.040  -4.446  0.00  0.00    -0.235 N 
HETATM   45  N           1       1.442  -0.341  -3.938  0.00  0.00    -0.235 N 
HETATM   46  H           1      -1.083   1.526  -4.218  0.00  0.00     0.174 HD
HETATM   47  H           1       0.296   1.328  -5.310  0.00  0.00     0.174 HD
HETATM   48  H           1       1.575  -1.360  -4.163  0.00  0.00     0.174 HD
HETATM   49  H           1       2.261   0.299  -4.083  0.00  0.00     0.174 HD
HETATM   50  H           1      -0.025  -1.215  -2.264  0.00  0.00     0.177 HD
ENDBRANCH  41  42
ENDBRANCH  40  41
ENDBRANCH  39  40
ENDBRANCH  38  39
BRANCH  38  51
HETATM   51  N           1      -4.254   0.272   1.844  0.00  0.00    -0.346 N 
HETATM   52  C           1      -4.786   1.531   1.728  0.00  0.00     0.249 C 
HETATM   53  O           1      -4.137   2.534   1.537  0.00  0.00    -0.271 OA
HETATM   54  H           1      -4.891  -0.493   2.063  0.00  0.00     0.163 HD
BRANCH  52  55
HETATM   55  C           1      -6.302   1.543   1.865  0.00  0.00     0.277 C 
HETATM   56  N           1      -6.834   2.932   2.111  0.00  0.00    -0.062 N 
HETATM   57  C           1      -7.319   3.584   0.840  0.00  0.00     0.233 C 
HETATM   58  H           1      -6.078   3.518   2.533  0.00  0.00     0.278 HD
HETATM   59  H           1      -7.631   2.874   2.787  0.00  0.00     0.278 HD
HETATM   60  C           1      -6.977   2.526  -0.218  0.00  0.00     0.030 C 
HETATM   61  C           1      -7.010   1.201   0.552  0.00  0.00     0.044 C 
ENDBRANCH  52  55
ENDBRANCH  38  51
ENDBRANCH  35  38
ENDBRANCH   1  34
TORSDOF 23
