REMARK  23 active torsions:
REMARK  status: ('A' for Active; 'I' for Inactive)
REMARK       I    between atoms: C_1  and  N_11 
REMARK    1  A    between atoms: C_1  and  C_3 
REMARK       I    between atoms: N_2  and  C_46 
REMARK    2  A    between atoms: C_8  and  C_9 
REMARK    3  A    between atoms: C_8  and  C_17 
REMARK    4  A    between atoms: C_9  and  N_11 
REMARK    5  A    between atoms: C_9  and  C_10 
REMARK       I    between atoms: C_10  and  N_22 
REMARK       I    between atoms: N_13  and  C_14 
REMARK    6  A    between atoms: N_13  and  C_18 
REMARK       I    between atoms: C_14  and  N_15 
REMARK    7  A    between atoms: C_17  and  C_18 
REMARK    8  A    between atoms: C_19  and  C_20 
REMARK    9  A    between atoms: C_19  and  C_24 
REMARK   10  A    between atoms: C_20  and  N_22 
REMARK   11  A    between atoms: C_20  and  C_21 
REMARK       I    between atoms: C_21  and  N_31 
REMARK   12  A    between atoms: C_24  and  C_25 
REMARK   13  A    between atoms: C_25  and  C_26 
REMARK   14  A    between atoms: C_26  and  N_27 
REMARK   15  A    between atoms: C_28  and  C_33 
REMARK   16  A    between atoms: C_28  and  C_29 
REMARK   17  A    between atoms: C_29  and  C_30 
REMARK   18  A    between atoms: C_29  and  N_31 
REMARK       I    between atoms: C_30  and  N_40 
REMARK   19  A    between atoms: C_33  and  C_34 
REMARK       I    between atoms: C_34  and  N_36 
REMARK   20  A    between atoms: C_37  and  C_42 
REMARK   21  A    between atoms: C_37  and  C_38 
REMARK   22  A    between atoms: C_38  and  C_39 
REMARK   23  A    between atoms: C_38  and  N_40 
REMARK       I    between atoms: C_39  and  N_45 
ROOT
HETATM    1  C           1      -0.375   2.610  -0.892  0.00  0.00     0.176 C 
ENDROOT
BRANCH   1   2
HETATM    2  C           1       1.052   2.967  -0.397  0.00  0.00     0.035 C 
BRANCH   2   3
HETATM    3  C           1       1.976   1.779  -0.084  0.00  0.00     0.004 C 
BRANCH   3   4
HETATM    4  C           1       3.349   2.163   0.500  0.00  0.00     0.027 C 
BRANCH   4   5
HETATM    5  C           1       4.093   0.930   1.034  0.00  0.00     0.229 C 
BRANCH   5   6
HETATM    6  N           1       5.475   1.381   1.424  0.00  0.00    -0.079 N 
HETATM    7  H           1       5.991   0.575   1.847  0.00  0.00     0.274 HD
HETATM    8  H           1       5.391   2.135   2.142  0.00  0.00     0.274 HD
HETATM    9  H           1       5.991   1.734   0.590  0.00  0.00     0.274 HD
ENDBRANCH   5   6
ENDBRANCH   4   5
ENDBRANCH   3   4
ENDBRANCH   2   3
ENDBRANCH   1   2
BRANCH   1  10
HETATM   10  N           1      -0.446   2.854  -2.341  0.00  0.00    -0.346 N 
HETATM   11  C           1      -0.754   2.005  -3.371  0.00  0.00     0.241 C 
HETATM   12  O           1      -0.794   2.474  -4.484  0.00  0.00    -0.271 OA
HETATM   13  H           1      -0.314   3.819  -2.650  0.00  0.00     0.163 HD
BRANCH  11  14
HETATM   14  C           1      -1.067   0.513  -3.108  0.00  0.00     0.176 C 
BRANCH  14  15
HETATM   15  C           1      -0.121  -0.352  -2.240  0.00  0.00     0.036 C 
BRANCH  15  16
HETATM   16  C           1      -0.666  -1.019  -0.966  0.00  0.00     0.023 C 
BRANCH  16  17
HETATM   17  C           1       0.440  -1.846  -0.280  0.00  0.00     0.138 C 
BRANCH  17  18
HETATM   18  N           1       0.021  -2.356   1.046  0.00  0.00    -0.227 N 
HETATM   19  C           1       0.798  -2.888   1.896  0.00  0.00     0.665 C 
HETATM   20  N           1       0.604  -2.621   3.121  0.00  0.00    -0.235 N 
HETATM   21  N           1       1.745  -3.723   1.562  0.00  0.00    -0.235 N 
HETATM   22  H           1      -0.315  -2.885   3.552  0.00  0.00     0.174 HD
HETATM   23  H           1       1.409  -2.432   3.772  0.00  0.00     0.174 HD
HETATM   24  H           1       1.928  -3.968   0.581  0.00  0.00     0.174 HD
HETATM   25  H           1       2.356  -4.123   2.285  0.00  0.00     0.174 HD
HETATM   26  H           1      -0.947  -2.128   1.381  0.00  0.00     0.177 HD
ENDBRANCH  17  18
ENDBRANCH  16  17
ENDBRANCH  15  16
ENDBRANCH  14  15
BRANCH  14  27
HETATM   27  N           1      -1.153  -0.113  -4.451  0.00  0.00    -0.346 N 
HETATM   28  C           1      -0.028  -0.372  -5.198  0.00  0.00     0.241 C 
HETATM   29  O           1       1.072  -0.131  -4.758  0.00  0.00    -0.271 OA
HETATM   30  H           1      -2.068  -0.269  -4.867  0.00  0.00     0.163 HD
BRANCH  28  31
HETATM   31  C           1      -0.319  -1.043  -6.544  0.00  0.00     0.179 C 
HETATM   32  N           1       0.848  -1.052  -7.417  0.00  0.00    -0.339 N 
HETATM   33  C           1       1.163  -0.031  -8.282  0.00  0.00     0.216 C 
HETATM   34  C           1       1.630  -2.265  -7.216  0.00  0.00     0.127 C 
HETATM   35  C           1       2.477  -0.179  -9.028  0.00  0.00     0.117 C 
HETATM   36  O           1       0.442   0.921  -8.450  0.00  0.00    -0.274 OA
HETATM   37  C           1       0.757  -3.188  -6.341  0.00  0.00     0.022 C 
HETATM   38  C           1      -0.634  -2.537  -6.350  0.00  0.00     0.037 C 
ENDBRANCH  28  31
ENDBRANCH  14  27
ENDBRANCH  11  14
ENDBRANCH   1  10
BRANCH   1  39
HETATM   39  C           1      -1.429   3.497  -0.204  0.00  0.00     0.241 C 
HETATM   40  N           1      -1.791   3.222   1.092  0.00  0.00    -0.346 N 
HETATM   41  H           1      -2.546   3.807   1.455  0.00  0.00     0.163 HD
HETATM   42  O           1      -1.915   4.430  -0.793  0.00  0.00    -0.271 OA
BRANCH  40  43
HETATM   43  C           1      -1.257   2.175   1.986  0.00  0.00     0.177 C 
BRANCH  43  44
HETATM   44  C           1      -0.625   2.779   3.267  0.00  0.00     0.044 C 
BRANCH  44  45
HETATM   45  C           1       0.898   2.587   3.330  0.00  0.00     0.105 C 
BRANCH  45  46
HETATM   46  C           1       1.633   3.181   4.519  0.00  0.00     0.215 C 
HETATM   47  N           1       2.988   3.048   4.463  0.00  0.00    -0.370 N 
HETATM   48  H           1       3.437   2.591   3.681  0.00  0.00     0.159 HD
HETATM   49  H           1       3.541   3.429   5.220  0.00  0.00     0.159 HD
HETATM   50  O           1       1.111   3.741   5.447  0.00  0.00    -0.274 OA
ENDBRANCH  45  46
ENDBRANCH  44  45
ENDBRANCH  43  44
BRANCH  43  51
HETATM   51  C           1      -2.345   1.173   2.367  0.00  0.00     0.241 C 
HETATM   52  N           1      -1.871   0.050   2.994  0.00  0.00    -0.346 N 
HETATM   53  H           1      -0.869  -0.045   3.144  0.00  0.00     0.163 HD
HETATM   54  O           1      -3.514   1.357   2.128  0.00  0.00    -0.271 OA
BRANCH  52  55
HETATM   55  C           1      -2.748  -1.043   3.434  0.00  0.00     0.176 C 
BRANCH  55  56
HETATM   56  C           1      -3.717  -0.615   4.552  0.00  0.00     0.038 C 
BRANCH  56  57
HETATM   57  C           1      -3.442  -1.249   5.934  0.00  0.00    -0.020 C 
HETATM   58  C           1      -2.038  -0.910   6.469  0.00  0.00     0.009 C 
HETATM   59  C           1      -3.705  -2.765   5.944  0.00  0.00     0.009 C 
ENDBRANCH  56  57
ENDBRANCH  55  56
BRANCH  55  60
HETATM   60  C           1      -3.356  -1.770   2.240  0.00  0.00     0.238 C 
HETATM   61  N           1      -4.347  -2.648   2.536  0.00  0.00    -0.368 N 
HETATM   62  H           1      -4.653  -2.775   3.490  0.00  0.00     0.159 HD
HETATM   63  H           1      -4.757  -3.164   1.771  0.00  0.00     0.159 HD
HETATM   64  O           1      -2.961  -1.637   1.112  0.00  0.00    -0.271 OA
ENDBRANCH  55  60
ENDBRANCH  52  55
ENDBRANCH  43  51
ENDBRANCH  40  43
ENDBRANCH   1  39
TORSDOF 23
