REMARK  29 active torsions:
REMARK  status: ('A' for Active; 'I' for Inactive)
REMARK    1  A    between atoms: C_1  and  C_69 
REMARK       I    between atoms: C_1  and  N_61 
REMARK    2  A    between atoms: O_15  and  C_23 
REMARK       I    between atoms: C_18  and  N_19 
REMARK    3  A    between atoms: N_19  and  C_20 
REMARK    4  A    between atoms: C_20  and  C_21 
REMARK    5  A    between atoms: C_21  and  S_22 
REMARK    6  A    between atoms: S_22  and  C_23 
REMARK    7  A    between atoms: C_23  and  N_45 
REMARK       I    between atoms: C_26  and  N_70 
REMARK       I    between atoms: N_27  and  C_33 
REMARK    8  A    between atoms: C_30  and  C_35 
REMARK    9  A    between atoms: N_32  and  C_34 
REMARK       I    between atoms: N_32  and  C_42 
REMARK   10  A    between atoms: C_33  and  C_34 
REMARK   11  A    between atoms: C_34  and  C_35 
REMARK       I    between atoms: N_36  and  C_38 
REMARK   12  A    between atoms: C_38  and  C_39 
REMARK   13  A    between atoms: C_39  and  C_44 
REMARK   14  A    between atoms: N_41  and  C_43 
REMARK       I    between atoms: N_41  and  C_51 
REMARK   15  A    between atoms: C_42  and  C_43 
REMARK   16  A    between atoms: C_43  and  C_44 
REMARK   17  A    between atoms: N_45  and  C_46 
REMARK   18  A    between atoms: C_46  and  C_47 
REMARK   19  A    between atoms: C_47  and  C_48 
REMARK   20  A    between atoms: C_48  and  C_53 
REMARK   21  A    between atoms: N_50  and  C_52 
REMARK       I    between atoms: N_50  and  C_62 
REMARK   22  A    between atoms: C_51  and  C_52 
REMARK   23  A    between atoms: C_52  and  C_53 
REMARK   24  A    between atoms: C_54  and  C_55 
REMARK   25  A    between atoms: C_54  and  N_59 
REMARK   26  A    between atoms: C_55  and  C_64 
REMARK       I    between atoms: N_56  and  C_58 
REMARK       I    between atoms: N_57  and  C_58 
REMARK   27  A    between atoms: N_61  and  C_63 
REMARK   28  A    between atoms: C_62  and  C_63 
REMARK   29  A    between atoms: C_63  and  C_64 
ROOT
HETATM    1  C           1       0.040  -3.772   1.184  0.00  0.00     0.176 C 
ENDROOT
BRANCH   1   2
HETATM    2  N           1       0.506  -4.872   0.330  0.00  0.00    -0.346 N 
HETATM    3  H           1       0.025  -5.766   0.439  0.00  0.00     0.163 HD
HETATM    4  C           1       1.579  -4.929  -0.522  0.00  0.00     0.241 C 
HETATM    5  O           1       1.825  -5.980  -1.062  0.00  0.00    -0.271 OA
BRANCH   4   6
HETATM    6  C           1       2.485  -3.691  -0.755  0.00  0.00     0.176 C 
BRANCH   6   7
HETATM    7  N           1       3.447  -4.060  -1.825  0.00  0.00    -0.346 N 
HETATM    8  C           1       3.046  -4.192  -3.131  0.00  0.00     0.241 C 
HETATM    9  O           1       1.907  -3.998  -3.480  0.00  0.00    -0.271 OA
HETATM   10  H           1       4.408  -4.286  -1.575  0.00  0.00     0.163 HD
BRANCH   8  11
HETATM   11  C           1       4.163  -4.528  -4.116  0.00  0.00     0.179 C 
HETATM   12  C           1       5.073  -3.315  -4.363  0.00  0.00     0.037 C 
HETATM   13  C           1       4.295  -2.503  -5.414  0.00  0.00     0.022 C 
HETATM   14  C           1       3.521  -3.563  -6.222  0.00  0.00     0.127 C 
HETATM   15  N           1       3.616  -4.793  -5.444  0.00  0.00    -0.339 N 
HETATM   16  C           1       3.205  -6.034  -5.870  0.00  0.00     0.216 C 
HETATM   17  O           1       3.376  -7.029  -5.212  0.00  0.00    -0.274 OA
HETATM   18  C           1       2.525  -6.082  -7.234  0.00  0.00     0.117 C 
ENDBRANCH   8  11
ENDBRANCH   6   7
BRANCH   6  19
HETATM   19  C           1       1.867  -2.326  -1.140  0.00  0.00     0.036 C 
BRANCH  19  20
HETATM   20  C           1       2.146  -1.119  -0.226  0.00  0.00     0.023 C 
BRANCH  20  21
HETATM   21  C           1       1.457   0.148  -0.771  0.00  0.00     0.138 C 
BRANCH  21  22
HETATM   22  N           1       1.342   1.196   0.263  0.00  0.00    -0.227 N 
HETATM   23  H           1       1.887   1.067   1.147  0.00  0.00     0.177 HD
HETATM   24  C           1       0.716   2.294   0.167  0.00  0.00     0.665 C 
HETATM   25  N           1       0.547   2.938   1.247  0.00  0.00    -0.235 N 
HETATM   26  N           1       0.296   2.814  -0.955  0.00  0.00    -0.235 N 
HETATM   27  H           1      -0.352   3.444   1.431  0.00  0.00     0.174 HD
HETATM   28  H           1       1.382   3.164   1.841  0.00  0.00     0.174 HD
HETATM   29  H           1      -0.149   3.736  -0.972  0.00  0.00     0.174 HD
HETATM   30  H           1       0.429   2.324  -1.852  0.00  0.00     0.174 HD
ENDBRANCH  21  22
ENDBRANCH  20  21
ENDBRANCH  19  20
ENDBRANCH   6  19
ENDBRANCH   4   6
ENDBRANCH   1   2
BRANCH   1  31
HETATM   31  C           1       0.163  -4.201   2.656  0.00  0.00     0.241 C 
HETATM   32  N           1       0.079  -3.247   3.642  0.00  0.00    -0.346 N 
HETATM   33  H           1       0.220  -3.601   4.589  0.00  0.00     0.163 HD
HETATM   34  O           1       0.333  -5.358   2.951  0.00  0.00    -0.271 OA
BRANCH  32  35
HETATM   35  C           1      -0.098  -1.791   3.491  0.00  0.00     0.177 C 
BRANCH  35  36
HETATM   36  C           1       1.136  -1.041   4.004  0.00  0.00     0.241 C 
HETATM   37  N           1       1.116   0.304   3.756  0.00  0.00    -0.346 N 
HETATM   38  H           1       0.330   0.700   3.238  0.00  0.00     0.163 HD
HETATM   39  O           1       2.048  -1.589   4.572  0.00  0.00    -0.271 OA
BRANCH  37  40
HETATM   40  C           1       2.193   1.207   4.194  0.00  0.00     0.176 C 
BRANCH  40  41
HETATM   41  C           1       3.485   0.932   3.429  0.00  0.00     0.238 C 
HETATM   42  N           1       4.641   1.291   4.045  0.00  0.00    -0.368 N 
HETATM   43  H           1       4.643   1.696   4.971  0.00  0.00     0.159 HD
HETATM   44  H           1       5.508   1.158   3.541  0.00  0.00     0.159 HD
HETATM   45  O           1       3.477   0.499   2.306  0.00  0.00    -0.271 OA
ENDBRANCH  40  41
BRANCH  40  46
HETATM   46  C           1       2.261   1.357   5.724  0.00  0.00     0.038 C 
BRANCH  46  47
HETATM   47  C           1       1.924   2.767   6.260  0.00  0.00    -0.020 C 
HETATM   48  C           1       0.486   3.195   5.912  0.00  0.00     0.009 C 
HETATM   49  C           1       2.943   3.827   5.808  0.00  0.00     0.009 C 
ENDBRANCH  46  47
ENDBRANCH  40  46
ENDBRANCH  37  40
ENDBRANCH  35  36
BRANCH  35  50
HETATM   50  C           1      -1.363  -1.284   4.227  0.00  0.00     0.044 C 
BRANCH  50  51
HETATM   51  C           1      -2.418  -0.748   3.246  0.00  0.00     0.105 C 
BRANCH  51  52
HETATM   52  C           1      -3.711  -0.207   3.826  0.00  0.00     0.215 C 
HETATM   53  N           1      -4.603   0.225   2.892  0.00  0.00    -0.370 N 
HETATM   54  H           1      -5.489   0.586   3.213  0.00  0.00     0.159 HD
HETATM   55  H           1      -4.388   0.183   1.904  0.00  0.00     0.159 HD
HETATM   56  O           1      -3.964  -0.147   5.001  0.00  0.00    -0.274 OA
ENDBRANCH  51  52
ENDBRANCH  50  51
ENDBRANCH  35  50
ENDBRANCH  32  35
ENDBRANCH   1  31
BRANCH   1  57
HETATM   57  C           1      -1.430  -3.427   0.818  0.00  0.00     0.035 C 
BRANCH  57  58
HETATM   58  C           1      -1.521  -2.194  -0.093  0.00  0.00     0.004 C 
BRANCH  58  59
HETATM   59  C           1      -2.863  -1.459  -0.254  0.00  0.00     0.030 C 
BRANCH  59  60
HETATM   60  C           1      -2.541  -0.039  -0.761  0.00  0.00     0.274 C 
BRANCH  60  61
HETATM   61  N           1      -3.708   0.838  -0.882  0.00  0.00     0.128 N 
HETATM   62  H           1      -4.474   0.362  -1.425  0.00  0.00     0.321 HD
BRANCH  61  63
HETATM   63  C           1      -3.439   2.150  -1.495  0.00  0.00     0.303 C 
HETATM   64  C           1      -2.805   2.066  -2.889  0.00  0.00     0.094 C 
BRANCH  63  65
HETATM   65  O           1      -2.521   2.781  -0.611  0.00  0.00    -0.355 OA
HETATM   66  H           1      -2.753   2.540   0.290  0.00  0.00     0.213 HD
ENDBRANCH  63  65
BRANCH  63  67
HETATM   67  S           1      -5.056   3.003  -1.576  0.00  0.00    -0.099 SA
BRANCH  67  68
HETATM   68  C           1      -4.563   4.673  -2.114  0.00  0.00     0.098 C 
BRANCH  68  69
HETATM   69  C           1      -5.806   5.558  -2.327  0.00  0.00     0.133 C 
BRANCH  69  70
HETATM   70  N           1      -5.380   6.870  -2.831  0.00  0.00    -0.361 N 
HETATM   71  C           1      -6.267   7.808  -3.289  0.00  0.00     0.213 C 
HETATM   72  O           1      -7.458   7.624  -3.305  0.00  0.00    -0.274 OA
HETATM   73  C           1      -5.621   9.093  -3.776  0.00  0.00     0.117 C 
HETATM   74  H           1      -4.389   7.107  -2.819  0.00  0.00     0.162 HD
ENDBRANCH  69  70
ENDBRANCH  68  69
ENDBRANCH  67  68
ENDBRANCH  63  67
ENDBRANCH  61  63
ENDBRANCH  60  61
ENDBRANCH  59  60
ENDBRANCH  58  59
ENDBRANCH  57  58
ENDBRANCH   1  57
TORSDOF 29
