REMARK  23 active torsions:
REMARK  status: ('A' for Active; 'I' for Inactive)
REMARK       I    between atoms: C_3  and  N_13 
REMARK    1  A    between atoms: C_3  and  C_5 
REMARK       I    between atoms: N_4  and  C_48 
REMARK    2  A    between atoms: C_10  and  C_11 
REMARK    3  A    between atoms: C_10  and  C_19 
REMARK    4  A    between atoms: C_11  and  N_13 
REMARK    5  A    between atoms: C_11  and  C_12 
REMARK       I    between atoms: C_12  and  N_24 
REMARK       I    between atoms: N_15  and  C_16 
REMARK    6  A    between atoms: N_15  and  C_20 
REMARK       I    between atoms: C_16  and  N_17 
REMARK    7  A    between atoms: C_19  and  C_20 
REMARK    8  A    between atoms: C_21  and  C_22 
REMARK    9  A    between atoms: C_21  and  C_26 
REMARK   10  A    between atoms: C_22  and  C_23 
REMARK   11  A    between atoms: C_22  and  N_24 
REMARK       I    between atoms: C_23  and  N_33 
REMARK   12  A    between atoms: C_26  and  C_27 
REMARK   13  A    between atoms: C_27  and  C_28 
REMARK   14  A    between atoms: C_28  and  N_29 
REMARK       I    between atoms: N_29  and  C_51 
REMARK   15  A    between atoms: C_30  and  C_35 
REMARK   16  A    between atoms: C_30  and  C_31 
REMARK   17  A    between atoms: C_31  and  N_33 
REMARK   18  A    between atoms: C_31  and  C_32 
REMARK       I    between atoms: C_32  and  N_42 
REMARK   19  A    between atoms: C_35  and  C_36 
REMARK       I    between atoms: C_36  and  N_38 
REMARK   20  A    between atoms: C_39  and  C_44 
REMARK   21  A    between atoms: C_39  and  C_40 
REMARK   22  A    between atoms: C_40  and  C_41 
REMARK   23  A    between atoms: C_40  and  N_42 
REMARK       I    between atoms: C_41  and  N_47 
ROOT
HETATM    1  C           1       0.256  -2.254  -1.950  0.00  0.00     0.176 C 
ENDROOT
BRANCH   1   2
HETATM    2  C           1      -1.159  -1.857  -2.453  0.00  0.00     0.035 C 
BRANCH   2   3
HETATM    3  C           1      -1.517  -0.414  -2.065  0.00  0.00     0.004 C 
BRANCH   3   4
HETATM    4  C           1      -2.977   0.059  -2.166  0.00  0.00     0.020 C 
BRANCH   4   5
HETATM    5  C           1      -3.127   1.243  -1.201  0.00  0.00     0.122 C 
BRANCH   5   6
HETATM    6  N           1      -4.461   1.844  -1.121  0.00  0.00    -0.361 N 
HETATM    7  C           1      -4.729   2.774  -0.156  0.00  0.00     0.213 C 
HETATM    8  C           1      -6.130   3.355  -0.207  0.00  0.00     0.117 C 
HETATM    9  O           1      -3.899   3.096   0.652  0.00  0.00    -0.274 OA
HETATM   10  H           1      -5.170   1.616  -1.817  0.00  0.00     0.162 HD
ENDBRANCH   5   6
ENDBRANCH   4   5
ENDBRANCH   3   4
ENDBRANCH   2   3
ENDBRANCH   1   2
BRANCH   1  11
HETATM   11  C           1       0.268  -3.699  -1.430  0.00  0.00     0.241 C 
HETATM   12  N           1      -0.297  -3.977  -0.212  0.00  0.00    -0.346 N 
HETATM   13  H           1      -0.203  -4.948   0.084  0.00  0.00     0.163 HD
HETATM   14  O           1       0.759  -4.584  -2.086  0.00  0.00    -0.271 OA
BRANCH  12  15
HETATM   15  C           1      -0.933  -3.039   0.735  0.00  0.00     0.177 C 
BRANCH  15  16
HETATM   16  C           1      -2.392  -3.434   1.049  0.00  0.00     0.044 C 
BRANCH  16  17
HETATM   17  C           1      -3.403  -2.389   0.546  0.00  0.00     0.105 C 
BRANCH  17  18
HETATM   18  C           1      -4.874  -2.685   0.772  0.00  0.00     0.215 C 
HETATM   19  O           1      -5.302  -3.622   1.394  0.00  0.00    -0.274 OA
HETATM   20  N           1      -5.724  -1.784   0.207  0.00  0.00    -0.370 N 
HETATM   21  H           1      -5.353  -0.992  -0.301  0.00  0.00     0.159 HD
HETATM   22  H           1      -6.718  -1.928   0.328  0.00  0.00     0.159 HD
ENDBRANCH  17  18
ENDBRANCH  16  17
ENDBRANCH  15  16
BRANCH  15  23
HETATM   23  C           1      -0.118  -2.939   2.025  0.00  0.00     0.241 C 
HETATM   24  N           1      -0.533  -1.955   2.879  0.00  0.00    -0.346 N 
HETATM   25  H           1      -1.317  -1.366   2.604  0.00  0.00     0.163 HD
HETATM   26  O           1       0.825  -3.652   2.262  0.00  0.00    -0.271 OA
BRANCH  24  27
HETATM   27  C           1       0.118  -1.716   4.179  0.00  0.00     0.176 C 
BRANCH  27  28
HETATM   28  C           1      -0.088  -2.883   5.165  0.00  0.00     0.038 C 
BRANCH  28  29
HETATM   29  C           1      -0.952  -2.555   6.401  0.00  0.00    -0.020 C 
HETATM   30  C           1      -0.281  -1.540   7.344  0.00  0.00     0.009 C 
HETATM   31  C           1      -2.377  -2.105   6.029  0.00  0.00     0.009 C 
ENDBRANCH  28  29
ENDBRANCH  27  28
BRANCH  27  32
HETATM   32  C           1       1.542  -1.197   3.986  0.00  0.00     0.238 C 
HETATM   33  O           1       1.922  -0.695   2.960  0.00  0.00    -0.271 OA
HETATM   34  N           1       2.353  -1.266   5.074  0.00  0.00    -0.368 N 
HETATM   35  H           1       2.023  -1.653   5.946  0.00  0.00     0.159 HD
HETATM   36  H           1       3.288  -0.895   4.981  0.00  0.00     0.159 HD
ENDBRANCH  27  32
ENDBRANCH  24  27
ENDBRANCH  15  23
ENDBRANCH  12  15
ENDBRANCH   1  11
BRANCH   1  37
HETATM   37  N           1       1.205  -2.139  -3.064  0.00  0.00    -0.346 N 
HETATM   38  C           1       2.357  -1.406  -3.173  0.00  0.00     0.241 C 
HETATM   39  O           1       3.037  -1.575  -4.157  0.00  0.00    -0.271 OA
HETATM   40  H           1       1.054  -2.774  -3.845  0.00  0.00     0.163 HD
BRANCH  38  41
HETATM   41  C           1       2.794  -0.429  -2.051  0.00  0.00     0.176 C 
BRANCH  41  42
HETATM   42  C           1       1.821   0.649  -1.504  0.00  0.00     0.036 C 
BRANCH  42  43
HETATM   43  C           1       1.473   0.639  -0.002  0.00  0.00     0.023 C 
BRANCH  43  44
HETATM   44  C           1       0.478   1.753   0.371  0.00  0.00     0.138 C 
BRANCH  44  45
HETATM   45  N           1      -0.237   1.441   1.632  0.00  0.00    -0.227 N 
HETATM   46  C           1      -1.106   2.173   2.211  0.00  0.00     0.665 C 
HETATM   47  N           1      -1.501   1.736   3.338  0.00  0.00    -0.235 N 
HETATM   48  N           1      -1.603   3.301   1.765  0.00  0.00    -0.235 N 
HETATM   49  H           1      -0.813   1.289   3.995  0.00  0.00     0.174 HD
HETATM   50  H           1      -2.477   1.942   3.669  0.00  0.00     0.174 HD
HETATM   51  H           1      -1.303   3.696   0.864  0.00  0.00     0.174 HD
HETATM   52  H           1      -2.259   3.844   2.338  0.00  0.00     0.174 HD
HETATM   53  H           1       0.142   0.642   2.205  0.00  0.00     0.177 HD
ENDBRANCH  44  45
ENDBRANCH  43  44
ENDBRANCH  42  43
ENDBRANCH  41  42
BRANCH  41  54
HETATM   54  N           1       3.986   0.294  -2.564  0.00  0.00    -0.346 N 
HETATM   55  C           1       3.880   1.220  -3.573  0.00  0.00     0.241 C 
HETATM   56  O           1       2.825   1.490  -4.093  0.00  0.00    -0.271 OA
HETATM   57  H           1       4.907   0.062  -2.195  0.00  0.00     0.163 HD
BRANCH  55  58
HETATM   58  C           1       5.184   1.924  -3.946  0.00  0.00     0.179 C 
HETATM   59  N           1       4.987   2.826  -5.078  0.00  0.00    -0.339 N 
HETATM   60  C           1       5.093   2.442  -6.389  0.00  0.00     0.216 C 
HETATM   61  C           1       4.582   4.147  -4.611  0.00  0.00     0.127 C 
HETATM   62  C           1       4.693   3.480  -7.428  0.00  0.00     0.117 C 
HETATM   63  O           1       5.484   1.345  -6.703  0.00  0.00    -0.274 OA
HETATM   64  C           1       4.907   4.179  -3.107  0.00  0.00     0.022 C 
HETATM   65  C           1       5.646   2.862  -2.821  0.00  0.00     0.037 C 
ENDBRANCH  55  58
ENDBRANCH  41  54
ENDBRANCH  38  41
ENDBRANCH   1  37
TORSDOF 23
