REMARK  18 active torsions:
REMARK  status: ('A' for Active; 'I' for Inactive)
REMARK    1  A    between atoms: C_2  and  N_4 
REMARK    2  A    between atoms: C_2  and  C_3 
REMARK       I    between atoms: C_3  and  N_9 
REMARK       I    between atoms: N_4  and  C_35 
REMARK    3  A    between atoms: C_6  and  C_7 
REMARK    4  A    between atoms: C_6  and  O_11 
REMARK    5  A    between atoms: C_7  and  N_9 
REMARK    6  A    between atoms: C_7  and  C_8 
REMARK       I    between atoms: C_8  and  N_16 
REMARK    7  A    between atoms: C_13  and  C_18 
REMARK    8  A    between atoms: C_13  and  C_14 
REMARK    9  A    between atoms: C_14  and  C_15 
REMARK   10  A    between atoms: C_14  and  N_16 
REMARK       I    between atoms: C_15  and  N_25 
REMARK   11  A    between atoms: C_18  and  C_19 
REMARK   12  A    between atoms: C_19  and  C_20 
REMARK   13  A    between atoms: C_20  and  N_21 
REMARK   14  A    between atoms: C_22  and  C_23 
REMARK   15  A    between atoms: C_23  and  C_24 
REMARK   16  A    between atoms: C_23  and  N_25 
REMARK       I    between atoms: C_24  and  N_32 
REMARK   17  A    between atoms: C_30  and  C_31 
REMARK   18  A    between atoms: C_30  and  N_32 
REMARK       I    between atoms: C_31  and  N_34 
ROOT
HETATM    1  C           1       0.296   1.949  -0.640  0.00  0.00     0.176 C 
ENDROOT
BRANCH   1   2
HETATM    2  C           1       1.395   2.396   0.359  0.00  0.00     0.035 C 
BRANCH   2   3
HETATM    3  C           1       2.371   1.272   0.751  0.00  0.00     0.004 C 
BRANCH   3   4
HETATM    4  C           1       3.325   1.599   1.916  0.00  0.00     0.027 C 
BRANCH   4   5
HETATM    5  C           1       3.980   0.314   2.452  0.00  0.00     0.229 C 
BRANCH   5   6
HETATM    6  N           1       5.071   0.713   3.411  0.00  0.00    -0.079 N 
HETATM    7  H           1       5.484  -0.152   3.830  0.00  0.00     0.274 HD
HETATM    8  H           1       4.666   1.308   4.169  0.00  0.00     0.274 HD
HETATM    9  H           1       5.812   1.244   2.899  0.00  0.00     0.274 HD
ENDBRANCH   5   6
ENDBRANCH   4   5
ENDBRANCH   3   4
ENDBRANCH   2   3
ENDBRANCH   1   2
BRANCH   1  10
HETATM   10  C           1      -1.063   2.589  -0.313  0.00  0.00     0.241 C 
HETATM   11  O           1      -1.536   3.439  -1.026  0.00  0.00    -0.271 OA
HETATM   12  N           1      -1.735   2.177   0.806  0.00  0.00    -0.346 N 
HETATM   13  H           1      -2.668   2.574   0.904  0.00  0.00     0.163 HD
BRANCH  12  14
HETATM   14  C           1      -1.319   1.182   1.812  0.00  0.00     0.180 C 
BRANCH  14  15
HETATM   15  C           1      -1.410   1.777   3.242  0.00  0.00     0.009 C 
HETATM   16  C           1      -0.045   2.101   3.877  0.00  0.00     0.012 C 
HETATM   17  C           1      -2.288   3.038   3.311  0.00  0.00     0.012 C 
ENDBRANCH  14  15
BRANCH  14  18
HETATM   18  C           1      -2.220  -0.058   1.668  0.00  0.00     0.241 C 
HETATM   19  O           1      -3.262  -0.004   1.064  0.00  0.00    -0.271 OA
HETATM   20  N           1      -1.822  -1.234   2.245  0.00  0.00    -0.346 N 
HETATM   21  H           1      -2.457  -2.014   2.088  0.00  0.00     0.163 HD
BRANCH  20  22
HETATM   22  C           1      -0.588  -1.512   2.997  0.00  0.00     0.172 C 
HETATM   23  C           1      -0.897  -1.714   4.489  0.00  0.00     0.042 C 
BRANCH  22  24
HETATM   24  C           1       0.115  -2.718   2.374  0.00  0.00     0.237 C 
HETATM   25  O           1      -0.228  -3.231   1.340  0.00  0.00    -0.271 OA
HETATM   26  N           1       1.225  -3.151   3.030  0.00  0.00    -0.368 N 
HETATM   27  H           1       1.542  -2.711   3.883  0.00  0.00     0.159 HD
HETATM   28  H           1       1.741  -3.922   2.630  0.00  0.00     0.159 HD
ENDBRANCH  22  24
ENDBRANCH  20  22
ENDBRANCH  14  18
ENDBRANCH  12  14
ENDBRANCH   1  10
BRANCH   1  29
HETATM   29  N           1       0.697   2.361  -1.998  0.00  0.00    -0.346 N 
HETATM   30  C           1       0.816   1.593  -3.124  0.00  0.00     0.243 C 
HETATM   31  O           1       1.231   2.086  -4.144  0.00  0.00    -0.271 OA
HETATM   32  H           1       0.862   3.355  -2.148  0.00  0.00     0.163 HD
BRANCH  30  33
HETATM   33  C           1       0.488   0.092  -3.049  0.00  0.00     0.205 C 
BRANCH  33  34
HETATM   34  C           1       1.641  -0.617  -2.314  0.00  0.00     0.146 C 
HETATM   35  C           1       1.231  -1.648  -1.268  0.00  0.00     0.042 C 
BRANCH  34  36
HETATM   36  O           1       2.497  -1.250  -3.241  0.00  0.00    -0.393 OA
HETATM   37  H           1       2.841  -0.628  -3.886  0.00  0.00     0.210 HD
ENDBRANCH  34  36
ENDBRANCH  33  34
BRANCH  33  38
HETATM   38  N           1       0.489  -0.396  -4.437  0.00  0.00    -0.344 N 
HETATM   39  C           1      -0.463  -1.113  -5.107  0.00  0.00     0.240 C 
HETATM   40  O           1      -0.254  -1.444  -6.250  0.00  0.00    -0.271 OA
HETATM   41  H           1       1.315  -0.167  -4.984  0.00  0.00     0.163 HD
BRANCH  39  42
HETATM   42  C           1      -1.763  -1.485  -4.389  0.00  0.00     0.172 C 
HETATM   43  C           1      -1.506  -2.510  -3.274  0.00  0.00     0.042 C 
BRANCH  42  44
HETATM   44  N           1      -2.645  -2.064  -5.416  0.00  0.00    -0.349 N 
HETATM   45  C           1      -3.996  -2.252  -5.329  0.00  0.00     0.214 C 
HETATM   46  O           1      -4.589  -2.774  -6.240  0.00  0.00    -0.274 OA
HETATM   47  C           1      -4.684  -1.796  -4.053  0.00  0.00     0.117 C 
HETATM   48  H           1      -2.202  -2.376  -6.282  0.00  0.00     0.163 HD
ENDBRANCH  42  44
ENDBRANCH  39  42
ENDBRANCH  33  38
ENDBRANCH  30  33
ENDBRANCH   1  29
TORSDOF 18
