REMARK  18 active torsions:
REMARK  status: ('A' for Active; 'I' for Inactive)
REMARK    1  A    between atoms: C_2  and  C_3 
REMARK    2  A    between atoms: C_2  and  N_4 
REMARK       I    between atoms: C_3  and  N_9 
REMARK       I    between atoms: N_4  and  C_35 
REMARK    3  A    between atoms: C_6  and  C_7 
REMARK    4  A    between atoms: C_6  and  O_11 
REMARK    5  A    between atoms: C_7  and  N_9 
REMARK    6  A    between atoms: C_7  and  C_8 
REMARK       I    between atoms: C_8  and  N_16 
REMARK    7  A    between atoms: C_13  and  C_18 
REMARK    8  A    between atoms: C_13  and  C_14 
REMARK    9  A    between atoms: C_14  and  C_15 
REMARK   10  A    between atoms: C_14  and  N_16 
REMARK       I    between atoms: C_15  and  N_25 
REMARK   11  A    between atoms: C_18  and  C_19 
REMARK   12  A    between atoms: C_19  and  C_20 
REMARK   13  A    between atoms: C_20  and  N_21 
REMARK       I    between atoms: N_21  and  C_38 
REMARK   14  A    between atoms: C_22  and  C_23 
REMARK   15  A    between atoms: C_23  and  N_25 
REMARK   16  A    between atoms: C_23  and  C_24 
REMARK       I    between atoms: C_24  and  N_32 
REMARK   17  A    between atoms: C_30  and  N_32 
REMARK   18  A    between atoms: C_30  and  C_31 
REMARK       I    between atoms: C_31  and  N_34 
ROOT
HETATM    1  C           1      -0.034   2.091  -0.947  0.00  0.00     0.176 C 
ENDROOT
BRANCH   1   2
HETATM    2  C           1       1.072   2.595   0.015  0.00  0.00     0.035 C 
BRANCH   2   3
HETATM    3  C           1       2.107   1.496   0.295  0.00  0.00     0.004 C 
BRANCH   3   4
HETATM    4  C           1       2.969   1.660   1.558  0.00  0.00     0.020 C 
BRANCH   4   5
HETATM    5  C           1       3.441   0.260   1.990  0.00  0.00     0.122 C 
BRANCH   5   6
HETATM    6  N           1       4.363   0.271   3.128  0.00  0.00    -0.361 N 
HETATM    7  C           1       4.477  -0.803   3.970  0.00  0.00     0.213 C 
HETATM    8  O           1       3.766  -1.775   3.892  0.00  0.00    -0.274 OA
HETATM    9  C           1       5.595  -0.675   4.988  0.00  0.00     0.117 C 
HETATM   10  H           1       5.027   1.041   3.221  0.00  0.00     0.162 HD
ENDBRANCH   5   6
ENDBRANCH   4   5
ENDBRANCH   3   4
ENDBRANCH   2   3
ENDBRANCH   1   2
BRANCH   1  11
HETATM   11  C           1      -1.409   2.658  -0.588  0.00  0.00     0.241 C 
HETATM   12  N           1      -2.014   2.239   0.570  0.00  0.00    -0.346 N 
HETATM   13  H           1      -2.966   2.589   0.687  0.00  0.00     0.163 HD
HETATM   14  O           1      -1.969   3.450  -1.304  0.00  0.00    -0.271 OA
BRANCH  12  15
HETATM   15  C           1      -1.525   1.269   1.567  0.00  0.00     0.180 C 
BRANCH  15  16
HETATM   16  C           1      -1.658   1.857   2.998  0.00  0.00     0.009 C 
HETATM   17  C           1      -2.588   3.085   3.076  0.00  0.00     0.012 C 
HETATM   18  C           1      -0.303   2.220   3.631  0.00  0.00     0.012 C 
ENDBRANCH  15  16
BRANCH  15  19
HETATM   19  C           1      -2.330  -0.028   1.415  0.00  0.00     0.241 C 
HETATM   20  N           1      -1.841  -1.181   1.975  0.00  0.00    -0.346 N 
HETATM   21  H           1      -2.405  -2.014   1.809  0.00  0.00     0.163 HD
HETATM   22  O           1      -3.379  -0.035   0.812  0.00  0.00    -0.271 OA
BRANCH  20  23
HETATM   23  C           1      -0.578  -1.371   2.710  0.00  0.00     0.172 C 
HETATM   24  C           1      -0.851  -1.588   4.206  0.00  0.00     0.042 C 
BRANCH  23  25
HETATM   25  C           1       0.150  -2.583   2.119  0.00  0.00     0.237 C 
HETATM   26  N           1       1.408  -2.820   2.588  0.00  0.00    -0.368 N 
HETATM   27  H           1       1.857  -2.240   3.282  0.00  0.00     0.159 HD
HETATM   28  H           1       1.924  -3.605   2.219  0.00  0.00     0.159 HD
HETATM   29  O           1      -0.356  -3.277   1.280  0.00  0.00    -0.271 OA
ENDBRANCH  23  25
ENDBRANCH  20  23
ENDBRANCH  15  19
ENDBRANCH  12  15
ENDBRANCH   1  11
BRANCH   1  30
HETATM   30  N           1       0.317   2.479  -2.325  0.00  0.00    -0.346 N 
HETATM   31  C           1       0.497   1.668  -3.414  0.00  0.00     0.243 C 
HETATM   32  O           1       0.893   2.141  -4.455  0.00  0.00    -0.271 OA
HETATM   33  H           1       0.412   3.476  -2.522  0.00  0.00     0.163 HD
BRANCH  31  34
HETATM   34  C           1       0.212   0.161  -3.294  0.00  0.00     0.205 C 
BRANCH  34  35
HETATM   35  C           1       1.370  -0.533  -2.552  0.00  0.00     0.146 C 
HETATM   36  C           1       0.953  -1.550  -1.490  0.00  0.00     0.042 C 
BRANCH  35  37
HETATM   37  O           1       2.198  -1.193  -3.487  0.00  0.00    -0.393 OA
HETATM   38  H           1       2.587  -0.575  -4.112  0.00  0.00     0.210 HD
ENDBRANCH  35  37
ENDBRANCH  34  35
BRANCH  34  39
HETATM   39  N           1       0.205  -0.349  -4.676  0.00  0.00    -0.344 N 
HETATM   40  C           1      -0.751  -1.064  -5.341  0.00  0.00     0.240 C 
HETATM   41  O           1      -0.558  -1.389  -6.489  0.00  0.00    -0.271 OA
HETATM   42  H           1       1.030  -0.119  -5.232  0.00  0.00     0.163 HD
BRANCH  40  43
HETATM   43  C           1      -2.047  -1.441  -4.616  0.00  0.00     0.172 C 
HETATM   44  C           1      -1.795  -2.476  -3.509  0.00  0.00     0.042 C 
BRANCH  43  45
HETATM   45  N           1      -2.942  -2.005  -5.643  0.00  0.00    -0.349 N 
HETATM   46  H           1      -2.504  -2.313  -6.518  0.00  0.00     0.163 HD
HETATM   47  C           1      -4.291  -2.175  -5.551  0.00  0.00     0.214 C 
HETATM   48  C           1      -4.962  -1.728  -4.259  0.00  0.00     0.117 C 
HETATM   49  O           1      -4.909  -2.669  -6.461  0.00  0.00    -0.274 OA
ENDBRANCH  43  45
ENDBRANCH  40  43
ENDBRANCH  34  39
ENDBRANCH  31  34
ENDBRANCH   1  30
TORSDOF 18
