REMARK  24 active torsions:
REMARK  status: ('A' for Active; 'I' for Inactive)
REMARK    1  A    between atoms: O_15  and  C_22 
REMARK       I    between atoms: C_17  and  N_18 
REMARK    2  A    between atoms: N_18  and  C_19 
REMARK    3  A    between atoms: C_19  and  C_20 
REMARK    4  A    between atoms: C_20  and  S_21 
REMARK    5  A    between atoms: S_21  and  C_22 
REMARK    6  A    between atoms: C_22  and  N_39 
REMARK       I    between atoms: C_25  and  N_56 
REMARK       I    between atoms: N_26  and  C_29 
REMARK    7  A    between atoms: N_28  and  C_30 
REMARK       I    between atoms: N_28  and  C_36 
REMARK    8  A    between atoms: C_29  and  C_30 
REMARK    9  A    between atoms: N_35  and  C_37 
REMARK       I    between atoms: N_35  and  C_45 
REMARK   10  A    between atoms: C_36  and  C_37 
REMARK   11  A    between atoms: C_37  and  C_38 
REMARK   12  A    between atoms: N_39  and  C_40 
REMARK   13  A    between atoms: C_40  and  C_41 
REMARK   14  A    between atoms: C_41  and  C_42 
REMARK   15  A    between atoms: C_42  and  C_47 
REMARK       I    between atoms: N_44  and  C_52 
REMARK   16  A    between atoms: N_44  and  C_46 
REMARK   17  A    between atoms: C_45  and  C_46 
REMARK   18  A    between atoms: C_46  and  C_47 
REMARK   19  A    between atoms: O_49  and  C_54 
REMARK       I    between atoms: N_51  and  C_57 
REMARK   20  A    between atoms: N_51  and  C_53 
REMARK   21  A    between atoms: C_52  and  C_53 
REMARK   22  A    between atoms: C_53  and  C_54 
REMARK   23  A    between atoms: N_56  and  C_58 
REMARK   24  A    between atoms: C_57  and  C_58 
ROOT
HETATM    1  C           1       4.493   1.491  -1.716  0.00  0.00     0.176 C 
ENDROOT
BRANCH   1   2
HETATM    2  N           1       3.419   0.520  -1.994  0.00  0.00    -0.346 N 
HETATM    3  H           1       2.932   0.131  -1.186  0.00  0.00     0.163 HD
HETATM    4  C           1       3.009   0.016  -3.203  0.00  0.00     0.243 C 
HETATM    5  O           1       2.053  -0.712  -3.265  0.00  0.00    -0.271 OA
BRANCH   4   6
HETATM    6  C           1       3.744   0.435  -4.485  0.00  0.00     0.205 C 
BRANCH   6   7
HETATM    7  N           1       3.322  -0.496  -5.545  0.00  0.00    -0.344 N 
HETATM    8  H           1       2.314  -0.573  -5.686  0.00  0.00     0.163 HD
HETATM    9  C           1       4.070  -1.319  -6.340  0.00  0.00     0.240 C 
HETATM   10  O           1       3.512  -2.028  -7.142  0.00  0.00    -0.271 OA
BRANCH   9  11
HETATM   11  C           1       5.595  -1.320  -6.204  0.00  0.00     0.172 C 
HETATM   12  C           1       6.217  -0.038  -6.780  0.00  0.00     0.042 C 
BRANCH  11  13
HETATM   13  N           1       6.059  -2.469  -7.000  0.00  0.00    -0.349 N 
HETATM   14  H           1       5.467  -2.764  -7.778  0.00  0.00     0.163 HD
HETATM   15  C           1       7.218  -3.170  -6.821  0.00  0.00     0.214 C 
HETATM   16  C           1       8.088  -2.772  -5.642  0.00  0.00     0.117 C 
HETATM   17  O           1       7.503  -4.061  -7.580  0.00  0.00    -0.274 OA
ENDBRANCH  11  13
ENDBRANCH   9  11
ENDBRANCH   6   7
BRANCH   6  18
HETATM   18  C           1       3.211   1.821  -4.885  0.00  0.00     0.146 C 
HETATM   19  C           1       4.219   2.703  -5.609  0.00  0.00     0.042 C 
BRANCH  18  20
HETATM   20  O           1       2.059   1.674  -5.687  0.00  0.00    -0.393 OA
HETATM   21  H           1       1.395   1.147  -5.234  0.00  0.00     0.210 HD
ENDBRANCH  18  20
ENDBRANCH   6  18
ENDBRANCH   4   6
ENDBRANCH   1   2
BRANCH   1  22
HETATM   22  C           1       5.561   0.810  -0.857  0.00  0.00     0.241 C 
HETATM   23  N           1       6.760   1.449  -0.678  0.00  0.00    -0.346 N 
HETATM   24  H           1       7.451   0.903  -0.164  0.00  0.00     0.163 HD
HETATM   25  O           1       5.363  -0.263  -0.342  0.00  0.00    -0.271 OA
BRANCH  23  26
HETATM   26  C           1       7.194   2.738  -1.256  0.00  0.00     0.180 C 
BRANCH  26  27
HETATM   27  C           1       8.038   2.487  -2.510  0.00  0.00     0.241 C 
HETATM   28  N           1       8.275   3.534  -3.364  0.00  0.00    -0.346 N 
HETATM   29  H           1       8.836   3.302  -4.185  0.00  0.00     0.163 HD
HETATM   30  O           1       8.493   1.397  -2.749  0.00  0.00    -0.271 OA
BRANCH  28  31
HETATM   31  C           1       7.700   4.891  -3.324  0.00  0.00     0.172 C 
HETATM   32  C           1       8.784   5.947  -3.062  0.00  0.00     0.042 C 
BRANCH  31  33
HETATM   33  C           1       7.047   5.156  -4.679  0.00  0.00     0.237 C 
HETATM   34  N           1       6.353   6.320  -4.776  0.00  0.00    -0.368 N 
HETATM   35  H           1       5.897   6.539  -5.651  0.00  0.00     0.159 HD
HETATM   36  H           1       6.274   6.959  -3.999  0.00  0.00     0.159 HD
HETATM   37  O           1       7.130   4.391  -5.605  0.00  0.00    -0.271 OA
ENDBRANCH  31  33
ENDBRANCH  28  31
ENDBRANCH  26  27
BRANCH  26  38
HETATM   38  C           1       7.976   3.560  -0.201  0.00  0.00     0.009 C 
HETATM   39  C           1       8.725   2.683   0.819  0.00  0.00     0.012 C 
HETATM   40  C           1       7.078   4.563   0.545  0.00  0.00     0.012 C 
ENDBRANCH  26  38
ENDBRANCH  23  26
ENDBRANCH   1  22
BRANCH   1  41
HETATM   41  C           1       3.892   2.707  -0.965  0.00  0.00     0.035 C 
BRANCH  41  42
HETATM   42  C           1       3.456   3.819  -1.929  0.00  0.00     0.004 C 
BRANCH  42  43
HETATM   43  C           1       3.451   5.253  -1.371  0.00  0.00     0.030 C 
BRANCH  43  44
HETATM   44  C           1       3.304   6.228  -2.553  0.00  0.00     0.274 C 
BRANCH  44  45
HETATM   45  N           1       3.381   7.630  -2.151  0.00  0.00     0.128 N 
HETATM   46  H           1       2.529   7.881  -1.592  0.00  0.00     0.321 HD
BRANCH  45  47
HETATM   47  C           1       3.519   8.583  -3.260  0.00  0.00     0.303 C 
HETATM   48  C           1       2.736   8.221  -4.523  0.00  0.00     0.094 C 
BRANCH  47  49
HETATM   49  O           1       4.909   8.573  -3.542  0.00  0.00    -0.355 OA
HETATM   50  H           1       5.344   8.795  -2.716  0.00  0.00     0.213 HD
ENDBRANCH  47  49
BRANCH  47  51
HETATM   51  S           1       2.979  10.185  -2.572  0.00  0.00    -0.099 SA
BRANCH  51  52
HETATM   52  C           1       3.524  11.308  -3.900  0.00  0.00     0.098 C 
BRANCH  52  53
HETATM   53  C           1       3.182  12.758  -3.517  0.00  0.00     0.133 C 
BRANCH  53  54
HETATM   54  N           1       3.529  13.639  -4.637  0.00  0.00    -0.361 N 
HETATM   55  H           1       4.012  13.246  -5.445  0.00  0.00     0.162 HD
HETATM   56  C           1       3.233  14.973  -4.638  0.00  0.00     0.213 C 
HETATM   57  O           1       2.689  15.525  -3.714  0.00  0.00    -0.274 OA
HETATM   58  C           1       3.646  15.704  -5.902  0.00  0.00     0.117 C 
ENDBRANCH  53  54
ENDBRANCH  52  53
ENDBRANCH  51  52
ENDBRANCH  47  51
ENDBRANCH  45  47
ENDBRANCH  44  45
ENDBRANCH  43  44
ENDBRANCH  42  43
ENDBRANCH  41  42
ENDBRANCH   1  41
TORSDOF 24
