REMARK  23 active torsions:
REMARK  status: ('A' for Active; 'I' for Inactive)
REMARK    1  A    between atoms: C_2  and  N_4 
REMARK    2  A    between atoms: C_2  and  C_3 
REMARK       I    between atoms: C_3  and  N_9 
REMARK    3  A    between atoms: C_6  and  C_15 
REMARK    4  A    between atoms: C_6  and  C_7 
REMARK    5  A    between atoms: C_7  and  C_8 
REMARK    6  A    between atoms: C_7  and  N_9 
REMARK       I    between atoms: C_8  and  N_20 
REMARK    7  A    between atoms: N_11  and  C_16 
REMARK       I    between atoms: N_11  and  C_12 
REMARK       I    between atoms: C_12  and  N_13 
REMARK    8  A    between atoms: C_15  and  C_16 
REMARK    9  A    between atoms: C_17  and  C_18 
REMARK   10  A    between atoms: C_17  and  C_22 
REMARK   11  A    between atoms: C_18  and  N_20 
REMARK   12  A    between atoms: C_18  and  C_19 
REMARK       I    between atoms: C_19  and  N_29 
REMARK   13  A    between atoms: C_22  and  C_23 
REMARK   14  A    between atoms: C_23  and  C_24 
REMARK   15  A    between atoms: C_24  and  N_25 
REMARK   16  A    between atoms: C_26  and  C_27 
REMARK   17  A    between atoms: C_26  and  O_31 
REMARK   18  A    between atoms: C_27  and  N_29 
REMARK   19  A    between atoms: C_27  and  C_28 
REMARK       I    between atoms: C_28  and  N_35 
REMARK   20  A    between atoms: C_32  and  O_37 
REMARK   21  A    between atoms: C_32  and  C_33 
REMARK   22  A    between atoms: C_33  and  C_34 
REMARK   23  A    between atoms: C_33  and  N_35 
ROOT
HETATM    1  C           1      -1.311   0.631  -0.382  0.00  0.00     0.176 C 
ENDROOT
BRANCH   1   2
HETATM    2  C           1      -2.050  -0.691  -0.092  0.00  0.00     0.035 C 
BRANCH   2   3
HETATM    3  C           1      -3.530  -0.602  -0.507  0.00  0.00     0.004 C 
BRANCH   3   4
HETATM    4  C           1      -4.281  -1.910  -0.231  0.00  0.00     0.027 C 
BRANCH   4   5
HETATM    5  C           1      -5.737  -1.850  -0.701  0.00  0.00     0.229 C 
BRANCH   5   6
HETATM    6  N           1      -6.358  -3.124  -0.204  0.00  0.00    -0.079 N 
HETATM    7  H           1      -7.357  -3.172  -0.507  0.00  0.00     0.274 HD
HETATM    8  H           1      -5.832  -3.926  -0.618  0.00  0.00     0.274 HD
HETATM    9  H           1      -6.293  -3.167   0.837  0.00  0.00     0.274 HD
ENDBRANCH   5   6
ENDBRANCH   4   5
ENDBRANCH   3   4
ENDBRANCH   2   3
ENDBRANCH   1   2
BRANCH   1  10
HETATM   10  N           1      -0.184   0.465  -1.305  0.00  0.00    -0.346 N 
HETATM   11  C           1      -0.297  -0.039  -2.570  0.00  0.00     0.241 C 
HETATM   12  O           1      -1.357  -0.296  -3.099  0.00  0.00    -0.271 OA
HETATM   13  H           1       0.699   0.858  -0.981  0.00  0.00     0.163 HD
BRANCH  11  14
HETATM   14  C           1       1.007  -0.286  -3.337  0.00  0.00     0.176 C 
BRANCH  14  15
HETATM   15  C           1       2.327   0.115  -2.636  0.00  0.00     0.036 C 
BRANCH  15  16
HETATM   16  C           1       3.243  -1.081  -2.297  0.00  0.00     0.023 C 
BRANCH  16  17
HETATM   17  C           1       4.552  -0.602  -1.648  0.00  0.00     0.138 C 
BRANCH  17  18
HETATM   18  N           1       5.502  -1.700  -1.408  0.00  0.00    -0.227 N 
HETATM   19  C           1       6.654  -1.557  -0.876  0.00  0.00     0.665 C 
HETATM   20  N           1       7.042  -0.412  -0.478  0.00  0.00    -0.235 N 
HETATM   21  N           1       7.449  -2.584  -0.743  0.00  0.00    -0.235 N 
HETATM   22  H           1       7.973  -0.295  -0.017  0.00  0.00     0.174 HD
HETATM   23  H           1       6.450   0.442  -0.603  0.00  0.00     0.174 HD
HETATM   24  H           1       8.379  -2.473  -0.317  0.00  0.00     0.174 HD
HETATM   25  H           1       7.165  -3.511  -1.055  0.00  0.00     0.174 HD
HETATM   26  H           1       5.276  -2.652  -1.789  0.00  0.00     0.177 HD
ENDBRANCH  17  18
ENDBRANCH  16  17
ENDBRANCH  15  16
ENDBRANCH  14  15
BRANCH  14  27
HETATM   27  N           1       0.834   0.327  -4.668  0.00  0.00    -0.346 N 
HETATM   28  C           1       1.750   0.184  -5.677  0.00  0.00     0.248 C 
HETATM   29  O           1       2.721  -0.526  -5.546  0.00  0.00    -0.271 OA
HETATM   30  H           1      -0.063   0.786  -4.837  0.00  0.00     0.163 HD
BRANCH  28  31
HETATM   31  C           1       1.492   0.978  -6.955  0.00  0.00     0.270 C 
HETATM   32  C           1       0.188   1.778  -7.110  0.00  0.00     0.050 C 
BRANCH  31  33
HETATM   33  N           1       1.507   0.040  -8.139  0.00  0.00    -0.067 N 
HETATM   34  H           1       2.407  -0.490  -8.156  0.00  0.00     0.275 HD
HETATM   35  H           1       1.404   0.592  -9.021  0.00  0.00     0.275 HD
HETATM   36  H           1       0.711  -0.630  -8.051  0.00  0.00     0.275 HD
ENDBRANCH  31  33
ENDBRANCH  28  31
ENDBRANCH  14  27
ENDBRANCH  11  14
ENDBRANCH   1  10
BRANCH   1  37
HETATM   37  C           1      -0.752   1.418   0.809  0.00  0.00     0.241 C 
HETATM   38  N           1      -1.042   0.932   2.050  0.00  0.00    -0.344 N 
HETATM   39  H           1      -1.409  -0.011   2.163  0.00  0.00     0.163 HD
HETATM   40  O           1      -0.092   2.410   0.614  0.00  0.00    -0.271 OA
BRANCH  38  41
HETATM   41  C           1      -0.706   1.608   3.307  0.00  0.00     0.200 C 
BRANCH  41  42
HETATM   42  C           1      -1.312   3.018   3.428  0.00  0.00     0.199 C 
BRANCH  42  43
HETATM   43  O           1      -0.269   3.970   3.525  0.00  0.00    -0.398 OA
HETATM   44  H           1      -0.621   4.855   3.440  0.00  0.00     0.209 HD
ENDBRANCH  42  43
ENDBRANCH  41  42
BRANCH  41  45
HETATM   45  C           1      -1.071   0.573   4.374  0.00  0.00     0.243 C 
HETATM   46  N           1      -1.827   1.022   5.405  0.00  0.00    -0.342 N 
HETATM   47  H           1      -2.217   1.960   5.367  0.00  0.00     0.163 HD
HETATM   48  O           1      -0.699  -0.566   4.251  0.00  0.00    -0.271 OA
BRANCH  46  49
HETATM   49  C           1      -2.160   0.219   6.578  0.00  0.00     0.214 C 
BRANCH  49  50
HETATM   50  C           1      -0.919  -0.092   7.425  0.00  0.00     0.147 C 
HETATM   51  C           1       0.136   1.007   7.486  0.00  0.00     0.042 C 
BRANCH  50  52
HETATM   52  O           1      -1.253  -0.480   8.739  0.00  0.00    -0.393 OA
HETATM   53  H           1      -0.437  -0.538   9.241  0.00  0.00     0.210 HD
ENDBRANCH  50  52
ENDBRANCH  49  50
BRANCH  49  54
HETATM   54  C           1      -3.275   1.041   7.197  0.00  0.00     0.199 C 
HETATM   55  O           1      -3.001   1.777   8.174  0.00  0.00    -0.646 OA
HETATM   56  O           1      -4.370   1.024   6.595  0.00  0.00    -0.646 OA
ENDBRANCH  49  54
ENDBRANCH  46  49
ENDBRANCH  41  45
ENDBRANCH  38  41
ENDBRANCH   1  37
TORSDOF 23
