REMARK  23 active torsions:
REMARK  status: ('A' for Active; 'I' for Inactive)
REMARK       I    between atoms: C_21  and  N_57 
REMARK       I    between atoms: N_22  and  C_27 
REMARK    1  A    between atoms: O_24  and  C_29 
REMARK       I    between atoms: N_26  and  C_33 
REMARK    2  A    between atoms: N_26  and  C_28 
REMARK    3  A    between atoms: C_27  and  C_28 
REMARK    4  A    between atoms: C_28  and  C_29 
REMARK    5  A    between atoms: O_30  and  C_35 
REMARK       I    between atoms: N_32  and  C_42 
REMARK    6  A    between atoms: N_32  and  C_34 
REMARK    7  A    between atoms: C_33  and  C_34 
REMARK    8  A    between atoms: C_34  and  C_35 
REMARK    9  A    between atoms: N_36  and  C_37 
REMARK   10  A    between atoms: C_37  and  C_38 
REMARK   11  A    between atoms: C_38  and  C_39 
REMARK   12  A    between atoms: C_39  and  C_44 
REMARK       I    between atoms: N_41  and  C_53 
REMARK   13  A    between atoms: N_41  and  C_43 
REMARK   14  A    between atoms: C_42  and  C_43 
REMARK   15  A    between atoms: C_43  and  C_44 
REMARK   16  A    between atoms: C_45  and  N_50 
REMARK   17  A    between atoms: C_45  and  C_46 
REMARK   18  A    between atoms: C_46  and  C_55 
REMARK       I    between atoms: N_47  and  C_49 
REMARK       I    between atoms: N_48  and  C_49 
REMARK       I    between atoms: N_52  and  C_58 
REMARK   19  A    between atoms: N_52  and  C_54 
REMARK   20  A    between atoms: C_53  and  C_54 
REMARK   21  A    between atoms: C_54  and  C_55 
REMARK   22  A    between atoms: N_57  and  C_59 
REMARK   23  A    between atoms: C_58  and  C_59 
ROOT
HETATM    1  C           1       1.548   2.458   0.347  0.00  0.00     0.176 C 
ENDROOT
BRANCH   1   2
HETATM    2  N           1       2.457   2.931  -0.715  0.00  0.00    -0.346 N 
HETATM    3  H           1       2.973   3.795  -0.546  0.00  0.00     0.163 HD
HETATM    4  C           1       2.644   2.394  -1.962  0.00  0.00     0.241 C 
HETATM    5  O           1       3.480   2.859  -2.696  0.00  0.00    -0.271 OA
BRANCH   4   6
HETATM    6  C           1       1.823   1.162  -2.380  0.00  0.00     0.176 C 
BRANCH   6   7
HETATM    7  N           1       2.089   0.983  -3.819  0.00  0.00    -0.346 N 
HETATM    8  H           1       3.068   1.062  -4.099  0.00  0.00     0.163 HD
HETATM    9  C           1       1.223   0.831  -4.867  0.00  0.00     0.240 C 
HETATM   10  O           1       1.680   0.709  -5.977  0.00  0.00    -0.271 OA
BRANCH   9  11
HETATM   11  C           1      -0.289   0.832  -4.622  0.00  0.00     0.172 C 
HETATM   12  C           1      -0.787  -0.384  -3.827  0.00  0.00     0.042 C 
BRANCH  11  13
HETATM   13  N           1      -0.921   0.810  -5.952  0.00  0.00    -0.349 N 
HETATM   14  H           1      -0.323   0.570  -6.745  0.00  0.00     0.163 HD
HETATM   15  C           1      -2.248   1.064  -6.157  0.00  0.00     0.214 C 
HETATM   16  O           1      -2.995   1.370  -5.262  0.00  0.00    -0.274 OA
HETATM   17  C           1      -2.702   0.902  -7.596  0.00  0.00     0.117 C 
ENDBRANCH  11  13
ENDBRANCH   9  11
ENDBRANCH   6   7
BRANCH   6  18
HETATM   18  C           1       2.382  -0.071  -1.621  0.00  0.00     0.036 C 
BRANCH  18  19
HETATM   19  C           1       1.298  -1.058  -1.173  0.00  0.00     0.023 C 
BRANCH  19  20
HETATM   20  C           1       1.781  -2.158  -0.218  0.00  0.00     0.138 C 
BRANCH  20  21
HETATM   21  N           1       0.598  -2.997   0.089  0.00  0.00    -0.227 N 
HETATM   22  H           1      -0.335  -2.722  -0.311  0.00  0.00     0.177 HD
HETATM   23  C           1       0.595  -3.903   0.974  0.00  0.00     0.665 C 
HETATM   24  N           1       0.093  -3.632   2.106  0.00  0.00    -0.235 N 
HETATM   25  N           1       1.081  -5.085   0.715  0.00  0.00    -0.235 N 
HETATM   26  H           1       0.702  -3.586   2.960  0.00  0.00     0.174 HD
HETATM   27  H           1      -0.947  -3.536   2.205  0.00  0.00     0.174 HD
HETATM   28  H           1       1.088  -5.819   1.436  0.00  0.00     0.174 HD
HETATM   29  H           1       1.500  -5.306  -0.197  0.00  0.00     0.174 HD
ENDBRANCH  20  21
ENDBRANCH  19  20
ENDBRANCH  18  19
ENDBRANCH   6  18
ENDBRANCH   4   6
ENDBRANCH   1   2
BRANCH   1  30
HETATM   30  C           1       0.353   3.412   0.468  0.00  0.00     0.241 C 
HETATM   31  N           1      -0.748   2.982   1.165  0.00  0.00    -0.344 N 
HETATM   32  H           1      -1.548   3.618   1.163  0.00  0.00     0.163 HD
HETATM   33  O           1       0.396   4.519  -0.010  0.00  0.00    -0.271 OA
BRANCH  31  34
HETATM   34  C           1      -0.882   1.709   1.899  0.00  0.00     0.200 C 
BRANCH  34  35
HETATM   35  C           1      -2.091   0.934   1.394  0.00  0.00     0.243 C 
HETATM   36  N           1      -2.105  -0.384   1.753  0.00  0.00    -0.344 N 
HETATM   37  H           1      -1.297  -0.761   2.248  0.00  0.00     0.163 HD
HETATM   38  O           1      -2.980   1.445   0.759  0.00  0.00    -0.271 OA
BRANCH  36  39
HETATM   39  C           1      -3.185  -1.294   1.347  0.00  0.00     0.204 C 
BRANCH  39  40
HETATM   40  C           1      -3.007  -1.659  -0.128  0.00  0.00     0.240 C 
HETATM   41  N           1      -4.071  -2.258  -0.726  0.00  0.00    -0.368 N 
HETATM   42  H           1      -3.978  -2.510  -1.699  0.00  0.00     0.159 HD
HETATM   43  H           1      -4.932  -2.431  -0.228  0.00  0.00     0.159 HD
HETATM   44  O           1      -1.981  -1.467  -0.729  0.00  0.00    -0.271 OA
ENDBRANCH  39  40
BRANCH  39  45
HETATM   45  C           1      -4.600  -0.826   1.741  0.00  0.00     0.146 C 
HETATM   46  C           1      -5.349  -1.894   2.540  0.00  0.00     0.042 C 
BRANCH  45  47
HETATM   47  O           1      -4.544   0.340   2.533  0.00  0.00    -0.393 OA
HETATM   48  H           1      -4.361   1.098   1.968  0.00  0.00     0.210 HD
ENDBRANCH  45  47
ENDBRANCH  39  45
ENDBRANCH  36  39
ENDBRANCH  34  35
BRANCH  34  49
HETATM   49  C           1      -0.993   1.940   3.410  0.00  0.00     0.199 C 
BRANCH  49  50
HETATM   50  O           1       0.013   1.194   4.078  0.00  0.00    -0.398 OA
HETATM   51  H           1      -0.125   1.213   5.026  0.00  0.00     0.209 HD
ENDBRANCH  49  50
ENDBRANCH  34  49
ENDBRANCH  31  34
ENDBRANCH   1  30
BRANCH   1  52
HETATM   52  C           1       2.322   2.432   1.689  0.00  0.00     0.035 C 
BRANCH  52  53
HETATM   53  C           1       2.911   1.061   2.067  0.00  0.00     0.004 C 
BRANCH  53  54
HETATM   54  C           1       3.568   1.072   3.462  0.00  0.00     0.027 C 
BRANCH  54  55
HETATM   55  C           1       3.899  -0.342   3.959  0.00  0.00     0.229 C 
BRANCH  55  56
HETATM   56  N           1       4.547  -0.196   5.311  0.00  0.00    -0.079 N 
HETATM   57  H           1       5.460   0.302   5.211  0.00  0.00     0.274 HD
HETATM   58  H           1       3.915   0.346   5.943  0.00  0.00     0.274 HD
HETATM   59  H           1       4.707  -1.148   5.711  0.00  0.00     0.274 HD
ENDBRANCH  55  56
ENDBRANCH  54  55
ENDBRANCH  53  54
ENDBRANCH  52  53
ENDBRANCH   1  52
TORSDOF 23
