REMARK  23 active torsions:
REMARK  status: ('A' for Active; 'I' for Inactive)
REMARK       I    between atoms: C_19  and  N_37 
REMARK       I    between atoms: C_22  and  N_58 
REMARK       I    between atoms: N_23  and  C_28 
REMARK    1  A    between atoms: O_25  and  C_30 
REMARK    2  A    between atoms: N_27  and  C_29 
REMARK       I    between atoms: N_27  and  C_34 
REMARK    3  A    between atoms: C_28  and  C_29 
REMARK    4  A    between atoms: C_29  and  C_30 
REMARK    5  A    between atoms: O_31  and  C_36 
REMARK       I    between atoms: N_33  and  C_43 
REMARK    6  A    between atoms: N_33  and  C_35 
REMARK    7  A    between atoms: C_34  and  C_35 
REMARK    8  A    between atoms: C_35  and  C_36 
REMARK    9  A    between atoms: N_37  and  C_38 
REMARK   10  A    between atoms: C_38  and  C_39 
REMARK   11  A    between atoms: C_39  and  C_40 
REMARK   12  A    between atoms: C_40  and  C_45 
REMARK       I    between atoms: N_42  and  C_54 
REMARK   13  A    between atoms: N_42  and  C_44 
REMARK   14  A    between atoms: C_43  and  C_44 
REMARK   15  A    between atoms: C_44  and  C_45 
REMARK   16  A    between atoms: C_46  and  N_51 
REMARK   17  A    between atoms: C_46  and  C_47 
REMARK   18  A    between atoms: C_47  and  C_56 
REMARK       I    between atoms: N_48  and  C_50 
REMARK       I    between atoms: N_49  and  C_50 
REMARK       I    between atoms: N_53  and  C_59 
REMARK   19  A    between atoms: N_53  and  C_55 
REMARK   20  A    between atoms: C_54  and  C_55 
REMARK   21  A    between atoms: C_55  and  C_56 
REMARK   22  A    between atoms: N_58  and  C_60 
REMARK   23  A    between atoms: C_59  and  C_60 
ROOT
HETATM    1  C           1      -0.164  -1.631  -2.663  0.00  0.00     0.176 C 
ENDROOT
BRANCH   1   2
HETATM    2  N           1       0.727  -1.361  -3.802  0.00  0.00    -0.346 N 
HETATM    3  H           1       0.551  -1.868  -4.670  0.00  0.00     0.163 HD
HETATM    4  C           1       1.795  -0.502  -3.848  0.00  0.00     0.241 C 
HETATM    5  O           1       2.363  -0.304  -4.894  0.00  0.00    -0.271 OA
BRANCH   4   6
HETATM    6  C           1       2.253   0.213  -2.559  0.00  0.00     0.176 C 
BRANCH   6   7
HETATM    7  N           1       3.599   0.736  -2.856  0.00  0.00    -0.346 N 
HETATM    8  H           1       3.686   1.270  -3.722  0.00  0.00     0.163 HD
HETATM    9  C           1       4.779   0.529  -2.197  0.00  0.00     0.240 C 
HETATM   10  O           1       5.788   1.042  -2.614  0.00  0.00    -0.271 OA
BRANCH   9  11
HETATM   11  C           1       4.800  -0.346  -0.938  0.00  0.00     0.172 C 
HETATM   12  C           1       4.075   0.307   0.247  0.00  0.00     0.042 C 
BRANCH  11  13
HETATM   13  N           1       6.221  -0.538  -0.601  0.00  0.00    -0.349 N 
HETATM   14  H           1       6.897   0.053  -1.087  0.00  0.00     0.163 HD
HETATM   15  C           1       6.659  -1.443   0.325  0.00  0.00     0.214 C 
HETATM   16  O           1       5.909  -2.160   0.938  0.00  0.00    -0.274 OA
HETATM   17  C           1       8.162  -1.451   0.530  0.00  0.00     0.117 C 
ENDBRANCH  11  13
ENDBRANCH   9  11
ENDBRANCH   6   7
BRANCH   6  18
HETATM   18  C           1       1.339   1.427  -2.244  0.00  0.00     0.036 C 
BRANCH  18  19
HETATM   19  C           1       0.906   1.575  -0.776  0.00  0.00     0.023 C 
BRANCH  19  20
HETATM   20  C           1      -0.130   2.687  -0.519  0.00  0.00     0.138 C 
BRANCH  20  21
HETATM   21  N           1      -0.751   2.460   0.809  0.00  0.00    -0.227 N 
HETATM   22  H           1      -0.393   1.650   1.377  0.00  0.00     0.177 HD
HETATM   23  C           1      -1.629   3.172   1.388  0.00  0.00     0.665 C 
HETATM   24  N           1      -2.042   2.722   2.501  0.00  0.00    -0.235 N 
HETATM   25  N           1      -2.091   4.317   0.957  0.00  0.00    -0.235 N 
HETATM   26  H           1      -3.065   2.748   2.731  0.00  0.00     0.174 HD
HETATM   27  H           1      -1.365   2.288   3.174  0.00  0.00     0.174 HD
HETATM   28  H           1      -2.739   4.868   1.536  0.00  0.00     0.174 HD
HETATM   29  H           1      -1.754   4.730   0.076  0.00  0.00     0.174 HD
ENDBRANCH  20  21
ENDBRANCH  19  20
ENDBRANCH  18  19
ENDBRANCH   6  18
ENDBRANCH   4   6
ENDBRANCH   1   2
BRANCH   1  30
HETATM   30  C           1      -0.017  -3.069  -2.154  0.00  0.00     0.241 C 
HETATM   31  N           1      -0.568  -3.377  -0.935  0.00  0.00    -0.344 N 
HETATM   32  H           1      -0.407  -4.329  -0.608  0.00  0.00     0.163 HD
HETATM   33  O           1       0.564  -3.908  -2.796  0.00  0.00    -0.271 OA
BRANCH  31  34
HETATM   34  C           1      -1.290  -2.459  -0.037  0.00  0.00     0.200 C 
BRANCH  34  35
HETATM   35  C           1      -0.614  -2.405   1.328  0.00  0.00     0.243 C 
HETATM   36  N           1      -1.092  -1.425   2.150  0.00  0.00    -0.344 N 
HETATM   37  H           1      -1.836  -0.822   1.799  0.00  0.00     0.163 HD
HETATM   38  O           1       0.263  -3.162   1.659  0.00  0.00    -0.271 OA
BRANCH  36  39
HETATM   39  C           1      -0.525  -1.148   3.476  0.00  0.00     0.204 C 
BRANCH  39  40
HETATM   40  C           1       0.761  -0.340   3.309  0.00  0.00     0.240 C 
HETATM   41  N           1       1.616  -0.351   4.364  0.00  0.00    -0.368 N 
HETATM   42  H           1       1.419  -0.886   5.198  0.00  0.00     0.159 HD
HETATM   43  H           1       2.469   0.183   4.285  0.00  0.00     0.159 HD
HETATM   44  O           1       0.986   0.310   2.320  0.00  0.00    -0.271 OA
ENDBRANCH  39  40
BRANCH  39  45
HETATM   45  C           1      -0.448  -2.363   4.415  0.00  0.00     0.146 C 
HETATM   46  C           1      -1.040  -2.069   5.793  0.00  0.00     0.042 C 
BRANCH  45  47
HETATM   47  O           1      -1.154  -3.446   3.853  0.00  0.00    -0.393 OA
HETATM   48  H           1      -0.584  -3.875   3.204  0.00  0.00     0.210 HD
ENDBRANCH  45  47
ENDBRANCH  39  45
ENDBRANCH  36  39
ENDBRANCH  34  35
BRANCH  34  49
HETATM   49  C           1      -2.762  -2.842   0.129  0.00  0.00     0.199 C 
BRANCH  49  50
HETATM   50  O           1      -3.459  -1.732   0.662  0.00  0.00    -0.398 OA
HETATM   51  H           1      -4.391  -1.930   0.764  0.00  0.00     0.209 HD
ENDBRANCH  49  50
ENDBRANCH  34  49
ENDBRANCH  31  34
ENDBRANCH   1  30
BRANCH   1  52
HETATM   52  C           1      -1.630  -1.334  -3.074  0.00  0.00     0.035 C 
BRANCH  52  53
HETATM   53  C           1      -1.991   0.134  -2.813  0.00  0.00     0.004 C 
BRANCH  53  54
HETATM   54  C           1      -3.486   0.470  -2.649  0.00  0.00     0.020 C 
BRANCH  54  55
HETATM   55  C           1      -3.561   1.840  -1.951  0.00  0.00     0.122 C 
BRANCH  55  56
HETATM   56  N           1      -4.911   2.354  -1.726  0.00  0.00    -0.361 N 
HETATM   57  H           1      -5.675   2.046  -2.326  0.00  0.00     0.162 HD
HETATM   58  C           1      -5.136   3.342  -0.807  0.00  0.00     0.213 C 
HETATM   59  O           1      -4.258   3.780  -0.113  0.00  0.00    -0.274 OA
HETATM   60  C           1      -6.566   3.843  -0.755  0.00  0.00     0.117 C 
ENDBRANCH  55  56
ENDBRANCH  54  55
ENDBRANCH  53  54
ENDBRANCH  52  53
ENDBRANCH   1  52
TORSDOF 23
