REMARK  29 active torsions:
REMARK  status: ('A' for Active; 'I' for Inactive)
REMARK    1  A    between atoms: C_2  and  C_3 
REMARK    2  A    between atoms: C_2  and  N_4 
REMARK       I    between atoms: C_3  and  N_9 
REMARK       I    between atoms: N_4  and  C_40 
REMARK    3  A    between atoms: C_6  and  C_15 
REMARK    4  A    between atoms: C_6  and  C_7 
REMARK    5  A    between atoms: C_7  and  N_9 
REMARK    6  A    between atoms: C_7  and  C_8 
REMARK       I    between atoms: C_8  and  N_20 
REMARK    7  A    between atoms: N_11  and  C_16 
REMARK       I    between atoms: N_11  and  C_12 
REMARK       I    between atoms: C_12  and  N_13 
REMARK    8  A    between atoms: C_15  and  C_16 
REMARK    9  A    between atoms: C_17  and  C_18 
REMARK   10  A    between atoms: C_17  and  C_22 
REMARK   11  A    between atoms: C_18  and  N_20 
REMARK   12  A    between atoms: C_18  and  C_19 
REMARK       I    between atoms: C_19  and  N_29 
REMARK   13  A    between atoms: C_22  and  C_23 
REMARK   14  A    between atoms: C_23  and  C_24 
REMARK   15  A    between atoms: C_24  and  N_25 
REMARK   16  A    between atoms: N_25  and  C_43 
REMARK   17  A    between atoms: C_26  and  O_31 
REMARK   18  A    between atoms: C_26  and  C_27 
REMARK   19  A    between atoms: C_27  and  N_29 
REMARK   20  A    between atoms: C_27  and  C_28 
REMARK       I    between atoms: C_28  and  N_35 
REMARK   21  A    between atoms: C_32  and  C_33 
REMARK   22  A    between atoms: C_32  and  O_37 
REMARK   23  A    between atoms: C_33  and  C_34 
REMARK   24  A    between atoms: C_33  and  N_35 
REMARK       I    between atoms: C_34  and  N_39 
REMARK   25  A    between atoms: C_43  and  S_44 
REMARK   26  A    between atoms: C_43  and  O_51 
REMARK   27  A    between atoms: S_44  and  C_45 
REMARK   28  A    between atoms: C_45  and  C_46 
REMARK   29  A    between atoms: C_46  and  N_47 
REMARK       I    between atoms: N_47  and  C_48 
ROOT
HETATM    1  C           1       1.557  -1.630  -1.217  0.00  0.00     0.176 C 
ENDROOT
BRANCH   1   2
HETATM    2  C           1       0.375  -0.968  -1.960  0.00  0.00     0.035 C 
BRANCH   2   3
HETATM    3  C           1       0.093   0.487  -1.531  0.00  0.00     0.004 C 
BRANCH   3   4
HETATM    4  C           1      -1.065   1.103  -2.323  0.00  0.00     0.030 C 
BRANCH   4   5
HETATM    5  C           1      -1.873   2.164  -1.550  0.00  0.00     0.274 C 
BRANCH   5   6
HETATM    6  N           1      -2.960   2.808  -2.302  0.00  0.00     0.128 N 
HETATM    7  H           1      -3.555   3.342  -1.617  0.00  0.00     0.321 HD
BRANCH   6   8
HETATM    8  C           1      -3.854   1.943  -3.084  0.00  0.00     0.303 C 
HETATM    9  C           1      -4.452   0.784  -2.279  0.00  0.00     0.094 C 
BRANCH   8  10
HETATM   10  S           1      -5.224   2.988  -3.720  0.00  0.00    -0.099 SA
BRANCH  10  11
HETATM   11  C           1      -5.699   1.959  -5.148  0.00  0.00     0.098 C 
BRANCH  11  12
HETATM   12  C           1      -7.098   2.287  -5.685  0.00  0.00     0.133 C 
BRANCH  12  13
HETATM   13  N           1      -7.379   1.277  -6.717  0.00  0.00    -0.361 N 
HETATM   14  C           1      -8.458   1.327  -7.556  0.00  0.00     0.213 C 
HETATM   15  C           1      -8.526   0.168  -8.537  0.00  0.00     0.117 C 
HETATM   16  O           1      -9.280   2.210  -7.526  0.00  0.00    -0.274 OA
HETATM   17  H           1      -6.746   0.481  -6.801  0.00  0.00     0.162 HD
ENDBRANCH  12  13
ENDBRANCH  11  12
ENDBRANCH  10  11
ENDBRANCH   8  10
BRANCH   8  18
HETATM   18  O           1      -3.073   1.439  -4.158  0.00  0.00    -0.355 OA
HETATM   19  H           1      -3.594   1.387  -4.957  0.00  0.00     0.213 HD
ENDBRANCH   8  18
ENDBRANCH   6   8
ENDBRANCH   5   6
ENDBRANCH   4   5
ENDBRANCH   3   4
ENDBRANCH   2   3
ENDBRANCH   1   2
BRANCH   1  20
HETATM   20  N           1       2.710  -1.584  -2.129  0.00  0.00    -0.346 N 
HETATM   21  C           1       3.873  -0.870  -1.984  0.00  0.00     0.241 C 
HETATM   22  O           1       4.635  -0.776  -2.915  0.00  0.00    -0.271 OA
HETATM   23  H           1       2.633  -2.115  -2.995  0.00  0.00     0.163 HD
BRANCH  21  24
HETATM   24  C           1       4.204  -0.220  -0.632  0.00  0.00     0.176 C 
BRANCH  24  25
HETATM   25  C           1       3.566   1.185  -0.498  0.00  0.00     0.036 C 
BRANCH  25  26
HETATM   26  C           1       2.674   1.421   0.735  0.00  0.00     0.023 C 
BRANCH  26  27
HETATM   27  C           1       1.917   2.761   0.717  0.00  0.00     0.138 C 
BRANCH  27  28
HETATM   28  N           1       1.119   2.879   1.962  0.00  0.00    -0.227 N 
HETATM   29  C           1       0.006   3.487   2.043  0.00  0.00     0.665 C 
HETATM   30  N           1      -0.177   4.671   1.524  0.00  0.00    -0.235 N 
HETATM   31  N           1      -0.929   2.924   2.693  0.00  0.00    -0.235 N 
HETATM   32  H           1       0.576   5.147   1.011  0.00  0.00     0.174 HD
HETATM   33  H           1      -1.082   5.151   1.611  0.00  0.00     0.174 HD
HETATM   34  H           1      -0.702   2.293   3.501  0.00  0.00     0.174 HD
HETATM   35  H           1      -1.933   3.196   2.538  0.00  0.00     0.174 HD
HETATM   36  H           1       1.359   2.237   2.761  0.00  0.00     0.177 HD
ENDBRANCH  27  28
ENDBRANCH  26  27
ENDBRANCH  25  26
ENDBRANCH  24  25
BRANCH  24  37
HETATM   37  N           1       5.667  -0.036  -0.669  0.00  0.00    -0.346 N 
HETATM   38  C           1       6.604  -0.426   0.248  0.00  0.00     0.240 C 
HETATM   39  O           1       7.773  -0.206   0.048  0.00  0.00    -0.271 OA
HETATM   40  H           1       6.037   0.375  -1.529  0.00  0.00     0.163 HD
BRANCH  38  41
HETATM   41  C           1       6.146  -1.147   1.519  0.00  0.00     0.172 C 
HETATM   42  C           1       5.321  -0.248   2.453  0.00  0.00     0.042 C 
BRANCH  41  43
HETATM   43  N           1       7.370  -1.590   2.211  0.00  0.00    -0.349 N 
HETATM   44  C           1       7.357  -2.467   3.261  0.00  0.00     0.214 C 
HETATM   45  C           1       8.725  -2.741   3.860  0.00  0.00     0.117 C 
HETATM   46  O           1       6.339  -2.959   3.681  0.00  0.00    -0.274 OA
HETATM   47  H           1       8.251  -1.197   1.883  0.00  0.00     0.163 HD
ENDBRANCH  41  43
ENDBRANCH  38  41
ENDBRANCH  24  37
ENDBRANCH  21  24
ENDBRANCH   1  20
BRANCH   1  48
HETATM   48  C           1       1.248  -3.085  -0.827  0.00  0.00     0.241 C 
HETATM   49  N           1       0.326  -3.308   0.169  0.00  0.00    -0.344 N 
HETATM   50  H           1       0.211  -4.283   0.450  0.00  0.00     0.163 HD
HETATM   51  O           1       1.802  -4.010  -1.368  0.00  0.00    -0.271 OA
BRANCH  49  52
HETATM   52  C           1      -0.484  -2.286   0.861  0.00  0.00     0.200 C 
BRANCH  52  53
HETATM   53  C           1      -1.974  -2.441   0.575  0.00  0.00     0.199 C 
BRANCH  53  54
HETATM   54  O           1      -2.643  -1.243   0.934  0.00  0.00    -0.398 OA
HETATM   55  H           1      -3.577  -1.270   0.713  0.00  0.00     0.209 HD
ENDBRANCH  53  54
ENDBRANCH  52  53
BRANCH  52  56
HETATM   56  C           1      -0.244  -2.293   2.364  0.00  0.00     0.243 C 
HETATM   57  N           1      -0.726  -1.187   3.003  0.00  0.00    -0.344 N 
HETATM   58  H           1      -1.268  -0.519   2.454  0.00  0.00     0.163 HD
HETATM   59  O           1       0.312  -3.196   2.934  0.00  0.00    -0.271 OA
BRANCH  57  60
HETATM   60  C           1      -0.459  -0.893   4.420  0.00  0.00     0.204 C 
BRANCH  60  61
HETATM   61  C           1      -0.844  -2.024   5.388  0.00  0.00     0.146 C 
HETATM   62  C           1      -1.702  -1.524   6.550  0.00  0.00     0.042 C 
BRANCH  61  63
HETATM   63  O           1      -1.577  -3.022   4.714  0.00  0.00    -0.393 OA
HETATM   64  H           1      -0.960  -3.602   4.256  0.00  0.00     0.210 HD
ENDBRANCH  61  63
ENDBRANCH  60  61
BRANCH  60  65
HETATM   65  C           1       0.952  -0.311   4.559  0.00  0.00     0.240 C 
HETATM   66  O           1       1.504   0.274   3.662  0.00  0.00    -0.271 OA
HETATM   67  N           1       1.544  -0.445   5.776  0.00  0.00    -0.368 N 
HETATM   68  H           1       1.093  -0.924   6.539  0.00  0.00     0.159 HD
HETATM   69  H           1       2.472  -0.057   5.887  0.00  0.00     0.159 HD
ENDBRANCH  60  65
ENDBRANCH  57  60
ENDBRANCH  52  56
ENDBRANCH  49  52
ENDBRANCH   1  48
TORSDOF 29
