REMARK  10 active torsions:
REMARK  status: ('A' for Active; 'I' for Inactive)
REMARK    1  A    between atoms: C_2  and  C_3 
REMARK    2  A    between atoms: C_2  and  N_4 
REMARK       I    between atoms: N_4  and  C_40 
REMARK       I    between atoms: N_11  and  C_12 
REMARK    3  A    between atoms: N_11  and  C_16 
REMARK       I    between atoms: C_12  and  N_13 
REMARK    4  A    between atoms: C_15  and  C_16 
REMARK    5  A    between atoms: C_22  and  C_23 
REMARK    6  A    between atoms: C_23  and  C_24 
REMARK    7  A    between atoms: C_24  and  N_25 
REMARK    8  A    between atoms: C_26  and  O_31 
REMARK    9  A    between atoms: C_32  and  O_38 
REMARK   10  A    between atoms: C_33  and  C_34 
REMARK       I    between atoms: C_34  and  N_39 
ROOT
HETATM    1  C           1       1.412   0.079  -4.213  0.00  0.00     0.149 A 
HETATM    2  N           1       2.584  -0.332  -3.975  0.00  0.00    -0.234 NA
HETATM    3  C           1       1.998  -0.372  -1.798  0.00  0.00     0.064 A 
HETATM    4  C           1       0.763   0.068  -2.115  0.00  0.00     0.108 A 
HETATM    5  C           1      -0.208   0.270  -1.191  0.00  0.00     0.179 A 
HETATM    6  N           1       0.517   0.285  -3.341  0.00  0.00    -0.228 NA
HETATM    7  N           1      -1.342   0.709  -1.554  0.00  0.00    -0.232 NA
HETATM    8  C           1       2.901  -0.561  -2.773  0.00  0.00     0.057 A 
HETATM    9  C           1      -2.048   0.619   0.585  0.00  0.00     0.063 A 
HETATM   10  C           1      -0.837   0.154   0.946  0.00  0.00     0.109 A 
HETATM   11  C           1      -0.522  -0.168   2.224  0.00  0.00     0.179 A 
HETATM   12  N           1       0.029   0.011   0.030  0.00  0.00    -0.223 NA
HETATM   13  N           1       0.640  -0.600   2.493  0.00  0.00    -0.237 NA
HETATM   14  C           1      -2.264   0.895  -0.709  0.00  0.00     0.041 A 
HETATM   15  C           1       0.037  -0.800   4.700  0.00  0.00     0.116 A 
HETATM   16  C           1      -1.185  -0.335   4.352  0.00  0.00     0.141 A 
HETATM   17  C           1      -2.208  -0.164   5.226  0.00  0.00     0.182 A 
HETATM   18  N           1      -1.397  -0.041   3.134  0.00  0.00    -0.220 NA
HETATM   19  N           1      -3.334   0.277   4.838  0.00  0.00    -0.236 NA
HETATM   20  C           1      -4.132   0.126   6.992  0.00  0.00     0.117 A 
HETATM   21  C           1      -2.916  -0.337   7.339  0.00  0.00     0.161 A 
HETATM   22  N           1      -2.029  -0.455   6.444  0.00  0.00    -0.219 NA
HETATM   23  C           1      -4.260   0.416   5.686  0.00  0.00     0.158 A 
HETATM   24  C           1       0.912  -0.904   3.687  0.00  0.00     0.158 A 
ENDROOT
BRANCH  14  25
HETATM   25  C           1      -3.560   1.428  -1.284  0.00  0.00     0.086 C 
BRANCH  25  26
HETATM   26  C           1      -4.459   2.193  -0.303  0.00  0.00     0.235 C 
BRANCH  26  27
HETATM   27  N           1      -5.585   2.759  -1.123  0.00  0.00    -0.079 N 
HETATM   28  H           1      -6.240   3.285  -0.501  0.00  0.00     0.274 HD
HETATM   29  H           1      -5.199   3.405  -1.848  0.00  0.00     0.274 HD
HETATM   30  H           1      -6.100   1.980  -1.591  0.00  0.00     0.274 HD
ENDBRANCH  26  27
ENDBRANCH  25  26
ENDBRANCH  14  25
BRANCH   8  31
HETATM   31  C           1       4.307  -1.047  -2.512  0.00  0.00     0.197 C 
BRANCH  31  32
HETATM   32  N           1       4.245  -2.322  -1.772  0.00  0.00    -0.221 N 
HETATM   33  C           1       4.965  -2.555  -0.754  0.00  0.00     0.665 C 
HETATM   34  N           1       4.478  -2.287   0.384  0.00  0.00    -0.235 N 
HETATM   35  N           1       6.165  -3.054  -0.877  0.00  0.00    -0.235 N 
HETATM   36  H           1       3.656  -1.639   0.466  0.00  0.00     0.174 HD
HETATM   37  H           1       4.845  -2.755   1.250  0.00  0.00     0.174 HD
HETATM   38  H           1       6.551  -3.265  -1.806  0.00  0.00     0.174 HD
HETATM   39  H           1       6.747  -3.238  -0.049  0.00  0.00     0.174 HD
HETATM   40  H           1       3.455  -2.985  -1.967  0.00  0.00     0.178 HD
ENDBRANCH  31  32
ENDBRANCH   8  31
BRANCH   1  41
HETATM   41  C           1       1.047   0.321  -5.663  0.00  0.00     0.152 C 
HETATM   42  C           1       0.579  -0.989  -6.313  0.00  0.00     0.040 C 
BRANCH  41  43
HETATM   43  N           1       2.211   0.864  -6.376  0.00  0.00    -0.350 N 
HETATM   44  C           1       2.114   1.827  -7.343  0.00  0.00     0.214 C 
HETATM   45  O           1       1.069   2.347  -7.645  0.00  0.00    -0.274 OA
HETATM   46  C           1       3.436   2.179  -7.995  0.00  0.00     0.117 C 
HETATM   47  H           1       3.124   0.457  -6.173  0.00  0.00     0.163 HD
ENDBRANCH  41  43
ENDBRANCH   1  41
BRANCH  15  48
HETATM   48  O           1       0.425  -1.154   5.960  0.00  0.00    -0.357 OA
HETATM   49  H           1       1.352  -1.444   5.942  0.00  0.00     0.218 HD
ENDBRANCH  15  48
BRANCH  21  50
HETATM   50  C           1      -2.584  -0.692   8.613  0.00  0.00     0.271 C 
HETATM   51  N           1      -1.304  -1.138   8.735  0.00  0.00    -0.365 N 
HETATM   52  H           1      -0.695  -1.183   7.925  0.00  0.00     0.159 HD
HETATM   53  H           1      -0.988  -1.419   9.651  0.00  0.00     0.159 HD
HETATM   54  O           1      -3.282  -0.650   9.595  0.00  0.00    -0.266 OA
ENDBRANCH  21  50
BRANCH  20  55
HETATM   55  O           1      -5.178   0.299   7.844  0.00  0.00    -0.357 OA
HETATM   56  H           1      -5.951   0.603   7.342  0.00  0.00     0.218 HD
ENDBRANCH  20  55
TORSDOF 10
