REMARK  7 active torsions:
REMARK  status: ('A' for Active; 'I' for Inactive)
REMARK    1  A    between atoms: C_2  and  C_3 
REMARK    2  A    between atoms: C_3  and  C_4 
REMARK    3  A    between atoms: C_3  and  N_9 
REMARK    4  A    between atoms: C_4  and  C_5 
REMARK    5  A    between atoms: C_5  and  C_6 
REMARK    6  A    between atoms: C_6  and  C_7 
REMARK    7  A    between atoms: C_7  and  N_8 
ROOT
HETATM    1  C           1      -2.247   0.205   0.549  0.00  0.00     0.283 C 
ENDROOT
BRANCH   1   2
HETATM    2  C           1      -2.702   1.510   0.008  0.00  0.00     0.204 C 
HETATM    3  O           1      -1.914   2.417  -0.320  0.00  0.00    -0.646 OA
HETATM    4  O           1      -3.932   1.375  -0.165  0.00  0.00    -0.646 OA
ENDBRANCH   1   2
BRANCH   1   5
HETATM    5  C           1      -1.035  -0.388  -0.181  0.00  0.00     0.044 C 
BRANCH   5   6
HETATM    6  C           1       0.288   0.109   0.426  0.00  0.00     0.004 C 
BRANCH   6   7
HETATM    7  C           1       1.521  -0.237  -0.430  0.00  0.00     0.027 C 
BRANCH   7   8
HETATM    8  C           1       2.826   0.055   0.329  0.00  0.00     0.229 C 
BRANCH   8   9
HETATM    9  N           1       3.964  -0.197  -0.623  0.00  0.00    -0.079 N 
HETATM   10  H           1       4.871  -0.065  -0.119  0.00  0.00     0.274 HD
HETATM   11  H           1       3.903  -1.177  -0.984  0.00  0.00     0.274 HD
HETATM   12  H           1       3.904   0.475  -1.423  0.00  0.00     0.274 HD
ENDBRANCH   8   9
ENDBRANCH   7   8
ENDBRANCH   6   7
ENDBRANCH   5   6
ENDBRANCH   1   5
BRANCH   1  13
HETATM   13  N           1      -3.453  -0.620   0.260  0.00  0.00    -0.065 N 
HETATM   14  H           1      -3.242  -1.610   0.524  0.00  0.00     0.275 HD
HETATM   15  H           1      -4.269  -0.301   0.832  0.00  0.00     0.275 HD
HETATM   16  H           1      -3.692  -0.595  -0.757  0.00  0.00     0.275 HD
ENDBRANCH   1  13
TORSDOF 7
