REMARK  7 active torsions:
REMARK  status: ('A' for Active; 'I' for Inactive)
REMARK       I    between atoms: C_7  and  N_12 
REMARK       I    between atoms: C_10  and  N_13 
REMARK    1  A    between atoms: N_12  and  C_18 
REMARK    2  A    between atoms: N_13  and  C_14 
REMARK    3  A    between atoms: C_14  and  C_15 
REMARK    4  A    between atoms: C_15  and  C_16 
REMARK    5  A    between atoms: C_16  and  C_17 
REMARK    6  A    between atoms: C_17  and  C_18 
REMARK    7  A    between atoms: C_18  and  C_19 
REMARK       I    between atoms: C_19  and  N_20 
ROOT
HETATM    1  C           1      -0.978  -0.704   2.269  0.00  0.00     0.176 C 
ENDROOT
BRANCH   1   2
HETATM    2  N           1      -2.071   0.061   2.884  0.00  0.00    -0.348 N 
HETATM    3  H           1      -1.951   0.337   3.860  0.00  0.00     0.163 HD
HETATM    4  C           1      -3.217   0.384   2.212  0.00  0.00     0.214 C 
HETATM    5  O           1      -3.406   0.070   1.064  0.00  0.00    -0.274 OA
HETATM    6  C           1      -4.217   1.173   3.034  0.00  0.00     0.117 C 
ENDBRANCH   1   2
BRANCH   1   7
HETATM    7  C           1      -0.185   0.145   1.255  0.00  0.00     0.035 C 
BRANCH   7   8
HETATM    8  C           1       0.193  -0.635  -0.016  0.00  0.00     0.004 C 
BRANCH   8   9
HETATM    9  C           1       0.915   0.248  -1.048  0.00  0.00     0.020 C 
BRANCH   9  10
HETATM   10  C           1       1.203  -0.509  -2.354  0.00  0.00     0.122 C 
BRANCH  10  11
HETATM   11  N           1       1.854   0.388  -3.314  0.00  0.00    -0.361 N 
HETATM   12  H           1       1.985   1.368  -3.063  0.00  0.00     0.162 HD
HETATM   13  C           1       2.267  -0.033  -4.547  0.00  0.00     0.213 C 
HETATM   14  O           1       2.139  -1.170  -4.929  0.00  0.00    -0.274 OA
HETATM   15  C           1       2.900   1.057  -5.391  0.00  0.00     0.117 C 
ENDBRANCH  10  11
ENDBRANCH   9  10
ENDBRANCH   8   9
ENDBRANCH   7   8
ENDBRANCH   1   7
BRANCH   1  16
HETATM   16  C           1      -0.093  -1.216   3.400  0.00  0.00     0.238 C 
HETATM   17  O           1      -0.240  -0.887   4.549  0.00  0.00    -0.271 OA
HETATM   18  N           1       0.884  -2.085   3.030  0.00  0.00    -0.368 N 
HETATM   19  H           1       1.007  -2.359   2.066  0.00  0.00     0.159 HD
HETATM   20  H           1       1.486  -2.453   3.753  0.00  0.00     0.159 HD
ENDBRANCH   1  16
TORSDOF 7
