REMARK  13 active torsions:
REMARK  status: ('A' for Active; 'I' for Inactive)
REMARK       I    between atoms: N_1  and  C_29 
REMARK       I    between atoms: N_2  and  C_21 
REMARK    1  A    between atoms: N_2  and  C_28 
REMARK    2  A    between atoms: O_11  and  C_18 
REMARK       I    between atoms: C_13  and  N_14 
REMARK    3  A    between atoms: N_14  and  C_15 
REMARK    4  A    between atoms: C_15  and  C_16 
REMARK    5  A    between atoms: C_16  and  S_17 
REMARK    6  A    between atoms: S_17  and  C_18 
REMARK    7  A    between atoms: C_18  and  N_23 
REMARK    8  A    between atoms: N_23  and  C_24 
REMARK    9  A    between atoms: C_24  and  C_25 
REMARK   10  A    between atoms: C_25  and  C_26 
REMARK   11  A    between atoms: C_26  and  C_27 
REMARK   12  A    between atoms: C_27  and  C_28 
REMARK   13  A    between atoms: C_28  and  C_29 
ROOT
ATOM      1  C   UNK     1      -0.260  -0.075  -0.025  1.00  0.00     0.274 C 
ENDROOT
BRANCH   1   2
ATOM      2  N   UNK     1       0.233   0.039  -1.393  1.00  0.00     0.128 N 
ATOM      3  H   UNK     1       0.728   0.922  -1.497  1.00  0.00     0.321 HD
BRANCH   2   4
ATOM      4  C   UNK     1      -0.739   0.011  -2.459  1.00  0.00     0.303 C 
ATOM      5  C   UNK     1      -1.883  -0.995  -2.324  1.00  0.00     0.094 C 
BRANCH   4   6
ATOM      6  O   UNK     1      -1.298   1.300  -2.574  1.00  0.00    -0.355 OA
ATOM      7  H   UNK     1      -1.141   1.526  -3.508  1.00  0.00     0.213 HD
ENDBRANCH   4   6
BRANCH   4   8
ATOM      8  S   UNK     1       0.137  -0.315  -4.038  1.00  0.00    -0.099 SA
BRANCH   8   9
ATOM      9  C   UNK     1       1.230  -1.685  -3.526  1.00  0.00     0.098 C 
BRANCH   9  10
ATOM     10  C   UNK     1       1.811  -2.410  -4.739  1.00  0.00     0.133 C 
BRANCH  10  11
ATOM     11  N   UNK     1       2.809  -3.393  -4.346  1.00  0.00    -0.361 N 
ATOM     12  H   UNK     1       2.735  -3.834  -3.438  1.00  0.00     0.162 HD
ATOM     13  C   UNK     1       3.639  -3.970  -5.283  1.00  0.00     0.213 C 
ATOM     14  O   UNK     1       3.634  -3.680  -6.473  1.00  0.00    -0.274 OA
ATOM     15  C   UNK     1       4.581  -4.986  -4.698  1.00  0.00     0.117 C 
ENDBRANCH  10  11
ENDBRANCH   9  10
ENDBRANCH   8   9
ENDBRANCH   4   8
ENDBRANCH   2   4
ENDBRANCH   1   2
BRANCH   1  16
ATOM     16  C   UNK     1      -0.993   1.163   0.500  1.00  0.00     0.030 C 
BRANCH  16  17
ATOM     17  C   UNK     1      -1.265   1.024   2.002  1.00  0.00     0.004 C 
BRANCH  17  18
ATOM     18  C   UNK     1      -1.936   2.278   2.578  1.00  0.00     0.035 C 
BRANCH  18  19
ATOM     19  C   UNK     1      -2.082   2.246   4.109  1.00  0.00     0.176 C 
BRANCH  19  20
ATOM     20  N   UNK     1      -0.796   2.138   4.786  1.00  0.00    -0.348 N 
ATOM     21  C   UNK     1       0.043   3.209   4.952  1.00  0.00     0.214 C 
ATOM     22  O   UNK     1      -0.202   4.335   4.533  1.00  0.00    -0.274 OA
ATOM     23  C   UNK     1       1.309   2.870   5.688  1.00  0.00     0.117 C 
ATOM     24  H   UNK     1      -0.576   1.241   5.210  1.00  0.00     0.163 HD
ENDBRANCH  19  20
BRANCH  19  25
ATOM     25  C   UNK     1      -2.969   1.082   4.580  1.00  0.00     0.238 C 
ATOM     26  N   UNK     1      -4.292   1.165   4.259  1.00  0.00    -0.368 N 
ATOM     27  H   UNK     1      -4.900   0.439   4.620  1.00  0.00     0.159 HD
ATOM     28  H   UNK     1      -4.718   2.023   3.935  1.00  0.00     0.159 HD
ATOM     29  O   UNK     1      -2.532   0.107   5.191  1.00  0.00    -0.271 OA
ENDBRANCH  19  25
ENDBRANCH  18  19
ENDBRANCH  17  18
ENDBRANCH  16  17
ENDBRANCH   1  16
TORSDOF 13
