REMARK  7 active torsions:
REMARK  status: ('A' for Active; 'I' for Inactive)
REMARK       I    between atoms: C_5  and  N_7 
REMARK    1  A    between atoms: N_7  and  C_13 
REMARK    2  A    between atoms: N_8  and  C_9 
REMARK    3  A    between atoms: C_9  and  C_10 
REMARK    4  A    between atoms: C_10  and  C_11 
REMARK    5  A    between atoms: C_11  and  C_12 
REMARK    6  A    between atoms: C_12  and  C_13 
REMARK    7  A    between atoms: C_13  and  C_14 
REMARK       I    between atoms: C_14  and  N_15 
ROOT
HETATM    1  C           1      -0.375  -0.856   1.626  0.00  0.00     0.176 C 
ENDROOT
BRANCH   1   2
HETATM    2  N           1      -1.625  -0.122   1.881  0.00  0.00    -0.348 N 
HETATM    3  C           1      -2.352   0.536   0.926  0.00  0.00     0.214 C 
HETATM    4  O           1      -2.018   0.609  -0.229  0.00  0.00    -0.274 OA
HETATM    5  C           1      -3.624   1.170   1.457  0.00  0.00     0.117 C 
HETATM    6  H           1      -1.962  -0.131   2.845  0.00  0.00     0.163 HD
ENDBRANCH   1   2
BRANCH   1   7
HETATM    7  C           1       0.651  -0.108   0.749  0.00  0.00     0.035 C 
BRANCH   7   8
HETATM    8  C           1       0.764  -0.697  -0.670  0.00  0.00     0.004 C 
BRANCH   8   9
HETATM    9  C           1       1.275   0.333  -1.689  0.00  0.00     0.027 C 
BRANCH   9  10
HETATM   10  C           1       1.269  -0.240  -3.111  0.00  0.00     0.229 C 
BRANCH  10  11
HETATM   11  N           1       1.639   0.897  -4.017  0.00  0.00    -0.079 N 
HETATM   12  H           1       1.655   0.563  -5.007  0.00  0.00     0.274 HD
HETATM   13  H           1       0.940   1.667  -3.919  0.00  0.00     0.274 HD
HETATM   14  H           1       2.586   1.253  -3.756  0.00  0.00     0.274 HD
ENDBRANCH  10  11
ENDBRANCH   9  10
ENDBRANCH   8   9
ENDBRANCH   7   8
ENDBRANCH   1   7
BRANCH   1  15
HETATM   15  C           1       0.206  -1.228   2.987  0.00  0.00     0.238 C 
HETATM   16  O           1      -0.292  -0.883   4.029  0.00  0.00    -0.271 OA
HETATM   17  N           1       1.322  -2.003   2.953  0.00  0.00    -0.368 N 
HETATM   18  H           1       1.731  -2.290   2.076  0.00  0.00     0.159 HD
HETATM   19  H           1       1.734  -2.278   3.834  0.00  0.00     0.159 HD
ENDBRANCH   1  15
TORSDOF 7
