MODEL 1
REMARK VINA RESULT:      -5.4      0.000      0.000
REMARK  6 active torsions:
REMARK  status: ('A' for Active; 'I' for Inactive)
REMARK    1  A    between atoms: C_1  and  O_7 
REMARK    2  A    between atoms: C_2  and  O_10 
REMARK    3  A    between atoms: C_3  and  O_11 
REMARK    4  A    between atoms: C_4  and  O_12 
REMARK    5  A    between atoms: C_6  and  C_8 
REMARK    6  A    between atoms: C_8  and  O_9 
ROOT
HETATM    1  C   LIG     1      43.071  -6.105  -4.446  1.00  0.00     0.180 C 
HETATM    2  C   LIG     1      42.681  -5.066  -3.384  1.00  0.00     0.183 C 
HETATM    3  C   LIG     1      42.463  -5.745  -2.027  1.00  0.00     0.204 C 
HETATM    4  C   LIG     1      41.434  -6.887  -2.183  1.00  0.00     0.290 C 
HETATM    5  O   LIG     1      41.930  -7.830  -3.158  1.00  0.00    -0.349 OA
HETATM    6  C   LIG     1      42.035  -7.245  -4.471  1.00  0.00     0.179 C 
ENDROOT
BRANCH   6   7
HETATM    7  C   LIG     1      42.396  -8.351  -5.467  1.00  0.00     0.198 C 
BRANCH   7   8
HETATM    8  O   LIG     1      41.232  -8.959  -6.012  1.00  0.00    -0.398 OA
HETATM    9  H   LIG     1      41.512  -9.507  -6.766  1.00  0.00     0.209 HD
ENDBRANCH   7   8
ENDBRANCH   6   7
BRANCH   1  10
HETATM   10  O   LIG     1      44.388  -6.583  -4.101  1.00  0.00    -0.390 OA
HETATM   11  H   LIG     1      44.788  -6.960  -4.907  1.00  0.00     0.210 HD
ENDBRANCH   1  10
BRANCH   2  12
HETATM   12  O   LIG     1      43.729  -4.091  -3.234  1.00  0.00    -0.390 OA
HETATM   13  H   LIG     1      44.385  -4.306  -3.931  1.00  0.00     0.210 HD
ENDBRANCH   2  12
BRANCH   4  14
HETATM   14  O   LIG     1      40.130  -6.463  -2.588  1.00  0.00    -0.363 OA
HETATM   15  C   LIG     1      39.077  -7.032  -1.822  1.00  0.00     0.204 C 
ENDBRANCH   4  14
BRANCH   3  16
HETATM   16  O   LIG     1      42.101  -4.771  -1.042  1.00  0.00    -0.388 OA
HETATM   17  H   LIG     1      42.945  -4.520  -0.614  1.00  0.00     0.210 HD
ENDBRANCH   3  16
TORSDOF 6
ENDMDL
MODEL 2
REMARK VINA RESULT:      -5.1      1.920      3.274
REMARK  6 active torsions:
REMARK  status: ('A' for Active; 'I' for Inactive)
REMARK    1  A    between atoms: C_1  and  O_7 
REMARK    2  A    between atoms: C_2  and  O_10 
REMARK    3  A    between atoms: C_3  and  O_11 
REMARK    4  A    between atoms: C_4  and  O_12 
REMARK    5  A    between atoms: C_6  and  C_8 
REMARK    6  A    between atoms: C_8  and  O_9 
ROOT
HETATM    1  C   LIG     1      42.227  -7.084  -4.343  1.00  0.00     0.180 C 
HETATM    2  C   LIG     1      43.587  -7.488  -3.755  1.00  0.00     0.183 C 
HETATM    3  C   LIG     1      43.393  -8.388  -2.528  1.00  0.00     0.204 C 
HETATM    4  C   LIG     1      42.465  -7.682  -1.515  1.00  0.00     0.290 C 
HETATM    5  O   LIG     1      41.202  -7.404  -2.157  1.00  0.00    -0.349 OA
HETATM    6  C   LIG     1      41.342  -6.468  -3.244  1.00  0.00     0.179 C 
ENDROOT
BRANCH   6   7
HETATM    7  C   LIG     1      39.943  -6.099  -3.748  1.00  0.00     0.198 C 
BRANCH   7   8
HETATM    8  O   LIG     1      39.112  -7.248  -3.859  1.00  0.00    -0.398 OA
HETATM    9  H   LIG     1      39.563  -7.981  -3.406  1.00  0.00     0.209 HD
ENDBRANCH   7   8
ENDBRANCH   6   7
BRANCH   1  10
HETATM   10  O   LIG     1      41.640  -8.279  -4.900  1.00  0.00    -0.390 OA
HETATM   11  H   LIG     1      41.147  -8.021  -5.702  1.00  0.00     0.210 HD
ENDBRANCH   1  10
BRANCH   2  12
HETATM   12  O   LIG     1      44.354  -8.219  -4.730  1.00  0.00    -0.390 OA
HETATM   13  H   LIG     1      45.291  -8.099  -4.466  1.00  0.00     0.210 HD
ENDBRANCH   2  12
BRANCH   4  14
HETATM   14  O   LIG     1      42.982  -6.459  -0.987  1.00  0.00    -0.363 OA
HETATM   15  C   LIG     1      43.640  -6.606   0.264  1.00  0.00     0.204 C 
ENDBRANCH   4  14
BRANCH   3  16
HETATM   16  O   LIG     1      44.664  -8.762  -1.986  1.00  0.00    -0.388 OA
HETATM   17  H   LIG     1      44.503  -8.892  -1.030  1.00  0.00     0.210 HD
ENDBRANCH   3  16
TORSDOF 6
ENDMDL
MODEL 3
REMARK VINA RESULT:      -5.1     10.553     12.543
REMARK  6 active torsions:
REMARK  status: ('A' for Active; 'I' for Inactive)
REMARK    1  A    between atoms: C_1  and  O_7 
REMARK    2  A    between atoms: C_2  and  O_10 
REMARK    3  A    between atoms: C_3  and  O_11 
REMARK    4  A    between atoms: C_4  and  O_12 
REMARK    5  A    between atoms: C_6  and  C_8 
REMARK    6  A    between atoms: C_8  and  O_9 
ROOT
HETATM    1  C   LIG     1      42.508   6.152   0.687  1.00  0.00     0.180 C 
HETATM    2  C   LIG     1      41.119   5.692   1.155  1.00  0.00     0.183 C 
HETATM    3  C   LIG     1      41.250   4.613   2.237  1.00  0.00     0.204 C 
HETATM    4  C   LIG     1      42.139   3.464   1.713  1.00  0.00     0.290 C 
HETATM    5  O   LIG     1      43.432   4.000   1.359  1.00  0.00    -0.349 OA
HETATM    6  C   LIG     1      43.350   4.933   0.264  1.00  0.00     0.179 C 
ENDROOT
BRANCH   6   7
HETATM    7  C   LIG     1      44.774   5.315  -0.155  1.00  0.00     0.198 C 
BRANCH   7   8
HETATM    8  O   LIG     1      45.653   5.346   0.962  1.00  0.00    -0.398 OA
HETATM    9  H   LIG     1      46.459   5.818   0.689  1.00  0.00     0.209 HD
ENDBRANCH   7   8
ENDBRANCH   6   7
BRANCH   1  10
HETATM   10  O   LIG     1      43.107   6.863   1.791  1.00  0.00    -0.390 OA
HETATM   11  H   LIG     1      43.357   6.204   2.467  1.00  0.00     0.210 HD
ENDBRANCH   1  10
BRANCH   2  12
HETATM   12  O   LIG     1      40.390   6.800   1.712  1.00  0.00    -0.390 OA
HETATM   13  H   LIG     1      39.462   6.672   1.422  1.00  0.00     0.210 HD
ENDBRANCH   2  12
BRANCH   4  14
HETATM   14  O   LIG     1      41.612   2.774   0.577  1.00  0.00    -0.363 OA
HETATM   15  C   LIG     1      41.140   1.465   0.868  1.00  0.00     0.204 C 
ENDBRANCH   4  14
BRANCH   3  16
HETATM   16  O   LIG     1      39.952   4.190   2.669  1.00  0.00    -0.388 OA
HETATM   17  H   LIG     1      39.831   3.303   2.274  1.00  0.00     0.210 HD
ENDBRANCH   3  16
TORSDOF 6
ENDMDL
MODEL 4
REMARK VINA RESULT:      -5.0      9.780     11.785
REMARK  6 active torsions:
REMARK  status: ('A' for Active; 'I' for Inactive)
REMARK    1  A    between atoms: C_1  and  O_7 
REMARK    2  A    between atoms: C_2  and  O_10 
REMARK    3  A    between atoms: C_3  and  O_11 
REMARK    4  A    between atoms: C_4  and  O_12 
REMARK    5  A    between atoms: C_6  and  C_8 
REMARK    6  A    between atoms: C_8  and  O_9 
ROOT
HETATM    1  C   LIG     1      41.338   5.474   0.763  1.00  0.00     0.180 C 
HETATM    2  C   LIG     1      39.962   4.839   1.014  1.00  0.00     0.183 C 
HETATM    3  C   LIG     1      40.117   3.499   1.744  1.00  0.00     0.204 C 
HETATM    4  C   LIG     1      41.082   2.591   0.951  1.00  0.00     0.290 C 
HETATM    5  O   LIG     1      42.355   3.261   0.827  1.00  0.00    -0.349 OA
HETATM    6  C   LIG     1      42.257   4.467   0.046  1.00  0.00     0.179 C 
ENDROOT
BRANCH   6   7
HETATM    7  C   LIG     1      43.671   5.014  -0.181  1.00  0.00     0.198 C 
BRANCH   7   8
HETATM    8  O   LIG     1      44.576   4.534   0.806  1.00  0.00    -0.398 OA
HETATM    9  H   LIG     1      45.466   4.846   0.564  1.00  0.00     0.209 HD
ENDBRANCH   7   8
ENDBRANCH   6   7
BRANCH   1  10
HETATM   10  O   LIG     1      41.863   5.858   2.051  1.00  0.00    -0.390 OA
HETATM   11  H   LIG     1      41.314   5.429   2.735  1.00  0.00     0.210 HD
ENDBRANCH   1  10
BRANCH   2  12
HETATM   12  O   LIG     1      39.157   5.706   1.834  1.00  0.00    -0.390 OA
HETATM   13  H   LIG     1      38.279   5.272   1.885  1.00  0.00     0.210 HD
ENDBRANCH   2  12
BRANCH   4  14
HETATM   14  O   LIG     1      40.629   2.238  -0.358  1.00  0.00    -0.363 OA
HETATM   15  C   LIG     1      40.413   0.845  -0.536  1.00  0.00     0.204 C 
ENDBRANCH   4  14
BRANCH   3  16
HETATM   16  O   LIG     1      38.830   2.914   1.975  1.00  0.00    -0.388 OA
HETATM   17  H   LIG     1      38.324   3.084   1.155  1.00  0.00     0.210 HD
ENDBRANCH   3  16
TORSDOF 6
ENDMDL
MODEL 5
REMARK VINA RESULT:      -4.9     11.891     12.813
REMARK  6 active torsions:
REMARK  status: ('A' for Active; 'I' for Inactive)
REMARK    1  A    between atoms: C_1  and  O_7 
REMARK    2  A    between atoms: C_2  and  O_10 
REMARK    3  A    between atoms: C_3  and  O_11 
REMARK    4  A    between atoms: C_4  and  O_12 
REMARK    5  A    between atoms: C_6  and  C_8 
REMARK    6  A    between atoms: C_8  and  O_9 
ROOT
HETATM    1  C   LIG     1      42.002   4.764   1.884  1.00  0.00     0.180 C 
HETATM    2  C   LIG     1      40.526   5.180   1.989  1.00  0.00     0.183 C 
HETATM    3  C   LIG     1      39.750   4.712   0.753  1.00  0.00     0.204 C 
HETATM    4  C   LIG     1      40.449   5.233  -0.521  1.00  0.00     0.290 C 
HETATM    5  O   LIG     1      41.805   4.735  -0.545  1.00  0.00    -0.349 OA
HETATM    6  C   LIG     1      42.590   5.253   0.547  1.00  0.00     0.179 C 
ENDROOT
BRANCH   6   7
HETATM    7  C   LIG     1      44.045   4.818   0.347  1.00  0.00     0.198 C 
BRANCH   7   8
HETATM    8  O   LIG     1      44.556   4.169   1.505  1.00  0.00    -0.398 OA
HETATM    9  H   LIG     1      43.985   4.413   2.254  1.00  0.00     0.209 HD
ENDBRANCH   7   8
ENDBRANCH   6   7
BRANCH   1  10
HETATM   10  O   LIG     1      42.040   3.326   1.994  1.00  0.00    -0.390 OA
HETATM   11  H   LIG     1      42.971   3.063   2.124  1.00  0.00     0.210 HD
ENDBRANCH   1  10
BRANCH   2  12
HETATM   12  O   LIG     1      39.924   4.581   3.151  1.00  0.00    -0.390 OA
HETATM   13  H   LIG     1      39.636   3.689   2.863  1.00  0.00     0.210 HD
ENDBRANCH   2  12
BRANCH   4  14
HETATM   14  O   LIG     1      40.491   6.658  -0.638  1.00  0.00    -0.363 OA
HETATM   15  C   LIG     1      40.561   7.123  -1.979  1.00  0.00     0.204 C 
ENDBRANCH   4  14
BRANCH   3  16
HETATM   16  O   LIG     1      38.376   5.102   0.859  1.00  0.00    -0.388 OA
HETATM   17  H   LIG     1      37.870   4.266   0.790  1.00  0.00     0.210 HD
ENDBRANCH   3  16
TORSDOF 6
ENDMDL
MODEL 6
REMARK VINA RESULT:      -4.7      4.006      7.355
REMARK  6 active torsions:
REMARK  status: ('A' for Active; 'I' for Inactive)
REMARK    1  A    between atoms: C_1  and  O_7 
REMARK    2  A    between atoms: C_2  and  O_10 
REMARK    3  A    between atoms: C_3  and  O_11 
REMARK    4  A    between atoms: C_4  and  O_12 
REMARK    5  A    between atoms: C_6  and  C_8 
REMARK    6  A    between atoms: C_8  and  O_9 
ROOT
HETATM    1  C   LIG     1      35.260  -6.983  -0.993  1.00  0.00     0.180 C 
HETATM    2  C   LIG     1      35.786  -7.211  -2.418  1.00  0.00     0.183 C 
HETATM    3  C   LIG     1      37.061  -8.061  -2.388  1.00  0.00     0.204 C 
HETATM    4  C   LIG     1      38.094  -7.406  -1.445  1.00  0.00     0.290 C 
HETATM    5  O   LIG     1      37.516  -7.295  -0.126  1.00  0.00    -0.349 OA
HETATM    6  C   LIG     1      36.381  -6.408  -0.106  1.00  0.00     0.179 C 
ENDROOT
BRANCH   6   7
HETATM    7  C   LIG     1      35.943  -6.214   1.350  1.00  0.00     0.198 C 
BRANCH   7   8
HETATM    8  O   LIG     1      34.559  -5.900   1.437  1.00  0.00    -0.398 OA
HETATM    9  H   LIG     1      34.454  -4.964   1.190  1.00  0.00     0.209 HD
ENDBRANCH   7   8
ENDBRANCH   6   7
BRANCH   1  10
HETATM   10  O   LIG     1      34.794  -8.260  -0.509  1.00  0.00    -0.390 OA
HETATM   11  H   LIG     1      35.543  -8.700  -0.063  1.00  0.00     0.210 HD
ENDBRANCH   1  10
BRANCH   2  12
HETATM   12  O   LIG     1      34.802  -7.906  -3.205  1.00  0.00    -0.390 OA
HETATM   13  H   LIG     1      35.314  -8.484  -3.809  1.00  0.00     0.210 HD
ENDBRANCH   2  12
BRANCH   4  14
HETATM   14  O   LIG     1      38.535  -6.109  -1.854  1.00  0.00    -0.363 OA
HETATM   15  C   LIG     1      39.930  -6.031  -2.115  1.00  0.00     0.204 C 
ENDBRANCH   4  14
BRANCH   3  16
HETATM   16  O   LIG     1      37.544  -8.271  -3.719  1.00  0.00    -0.388 OA
HETATM   17  H   LIG     1      37.077  -7.605  -4.265  1.00  0.00     0.210 HD
ENDBRANCH   3  16
TORSDOF 6
ENDMDL
MODEL 7
REMARK VINA RESULT:      -4.7      1.386      3.736
REMARK  6 active torsions:
REMARK  status: ('A' for Active; 'I' for Inactive)
REMARK    1  A    between atoms: C_1  and  O_7 
REMARK    2  A    between atoms: C_2  and  O_10 
REMARK    3  A    between atoms: C_3  and  O_11 
REMARK    4  A    between atoms: C_4  and  O_12 
REMARK    5  A    between atoms: C_6  and  C_8 
REMARK    6  A    between atoms: C_8  and  O_9 
ROOT
HETATM    1  C   LIG     1      41.723  -4.964  -3.266  1.00  0.00     0.180 C 
HETATM    2  C   LIG     1      40.958  -6.195  -2.756  1.00  0.00     0.183 C 
HETATM    3  C   LIG     1      41.930  -7.217  -2.154  1.00  0.00     0.204 C 
HETATM    4  C   LIG     1      43.026  -7.555  -3.188  1.00  0.00     0.290 C 
HETATM    5  O   LIG     1      43.715  -6.338  -3.550  1.00  0.00    -0.349 OA
HETATM    6  C   LIG     1      42.847  -5.405  -4.222  1.00  0.00     0.179 C 
ENDROOT
BRANCH   6   7
HETATM    7  C   LIG     1      43.694  -4.229  -4.721  1.00  0.00     0.198 C 
BRANCH   7   8
HETATM    8  O   LIG     1      44.588  -3.771  -3.715  1.00  0.00    -0.398 OA
HETATM    9  H   LIG     1      45.231  -4.483  -3.547  1.00  0.00     0.209 HD
ENDBRANCH   7   8
ENDBRANCH   6   7
BRANCH   1  10
HETATM   10  O   LIG     1      42.242  -4.283  -2.104  1.00  0.00    -0.390 OA
HETATM   11  H   LIG     1      43.096  -4.695  -1.875  1.00  0.00     0.210 HD
ENDBRANCH   1  10
BRANCH   2  12
HETATM   12  O   LIG     1      40.022  -5.809  -1.733  1.00  0.00    -0.390 OA
HETATM   13  H   LIG     1      40.414  -5.017  -1.308  1.00  0.00     0.210 HD
ENDBRANCH   2  12
BRANCH   4  14
HETATM   14  O   LIG     1      42.546  -8.174  -4.384  1.00  0.00    -0.363 OA
HETATM   15  C   LIG     1      43.574  -8.536  -5.296  1.00  0.00     0.204 C 
ENDBRANCH   4  14
BRANCH   3  16
HETATM   16  O   LIG     1      41.209  -8.360  -1.680  1.00  0.00    -0.388 OA
HETATM   17  H   LIG     1      41.853  -8.855  -1.133  1.00  0.00     0.210 HD
ENDBRANCH   3  16
TORSDOF 6
ENDMDL
MODEL 8
REMARK VINA RESULT:      -4.7      9.896     11.886
REMARK  6 active torsions:
REMARK  status: ('A' for Active; 'I' for Inactive)
REMARK    1  A    between atoms: C_1  and  O_7 
REMARK    2  A    between atoms: C_2  and  O_10 
REMARK    3  A    between atoms: C_3  and  O_11 
REMARK    4  A    between atoms: C_4  and  O_12 
REMARK    5  A    between atoms: C_6  and  C_8 
REMARK    6  A    between atoms: C_8  and  O_9 
ROOT
HETATM    1  C   LIG     1      39.929   3.345   1.445  1.00  0.00     0.180 C 
HETATM    2  C   LIG     1      40.147   4.843   1.706  1.00  0.00     0.183 C 
HETATM    3  C   LIG     1      41.009   5.458   0.597  1.00  0.00     0.204 C 
HETATM    4  C   LIG     1      42.322   4.656   0.462  1.00  0.00     0.290 C 
HETATM    5  O   LIG     1      41.999   3.282   0.160  1.00  0.00    -0.349 OA
HETATM    6  C   LIG     1      41.286   2.645   1.239  1.00  0.00     0.179 C 
ENDROOT
BRANCH   6   7
HETATM    7  C   LIG     1      41.139   1.155   0.910  1.00  0.00     0.198 C 
BRANCH   7   8
HETATM    8  O   LIG     1      42.406   0.511   0.851  1.00  0.00    -0.398 OA
HETATM    9  H   LIG     1      43.051   1.090   1.293  1.00  0.00     0.209 HD
ENDBRANCH   7   8
ENDBRANCH   6   7
BRANCH   1  10
HETATM   10  O   LIG     1      39.088   3.241   0.276  1.00  0.00    -0.390 OA
HETATM   11  H   LIG     1      39.583   2.746  -0.403  1.00  0.00     0.210 HD
ENDBRANCH   1  10
BRANCH   2  12
HETATM   12  O   LIG     1      38.884   5.532   1.727  1.00  0.00    -0.390 OA
HETATM   13  H   LIG     1      38.980   6.269   1.087  1.00  0.00     0.210 HD
ENDBRANCH   2  12
BRANCH   4  14
HETATM   14  O   LIG     1      43.156   4.679   1.623  1.00  0.00    -0.363 OA
HETATM   15  C   LIG     1      44.503   5.046   1.355  1.00  0.00     0.204 C 
ENDBRANCH   4  14
BRANCH   3  16
HETATM   16  O   LIG     1      41.207   6.854   0.847  1.00  0.00    -0.388 OA
HETATM   17  H   LIG     1      40.325   7.192   1.104  1.00  0.00     0.210 HD
ENDBRANCH   3  16
TORSDOF 6
ENDMDL
MODEL 9
REMARK VINA RESULT:      -4.7     26.577     27.649
REMARK  6 active torsions:
REMARK  status: ('A' for Active; 'I' for Inactive)
REMARK    1  A    between atoms: C_1  and  O_7 
REMARK    2  A    between atoms: C_2  and  O_10 
REMARK    3  A    between atoms: C_3  and  O_11 
REMARK    4  A    between atoms: C_4  and  O_12 
REMARK    5  A    between atoms: C_6  and  C_8 
REMARK    6  A    between atoms: C_8  and  O_9 
ROOT
HETATM    1  C   LIG     1      29.168  17.074   2.833  1.00  0.00     0.180 C 
HETATM    2  C   LIG     1      28.101  16.575   1.848  1.00  0.00     0.183 C 
HETATM    3  C   LIG     1      28.749  16.160   0.522  1.00  0.00     0.204 C 
HETATM    4  C   LIG     1      29.596  17.330  -0.024  1.00  0.00     0.290 C 
HETATM    5  O   LIG     1      30.600  17.675   0.955  1.00  0.00    -0.349 OA
HETATM    6  C   LIG     1      30.016  18.178   2.173  1.00  0.00     0.179 C 
ENDROOT
BRANCH   6   7
HETATM    7  C   LIG     1      31.145  18.680   3.080  1.00  0.00     0.198 C 
BRANCH   7   8
HETATM    8  O   LIG     1      32.165  17.700   3.227  1.00  0.00    -0.398 OA
HETATM    9  H   LIG     1      33.022  18.160   3.187  1.00  0.00     0.209 HD
ENDBRANCH   7   8
ENDBRANCH   6   7
BRANCH   1  10
HETATM   10  O   LIG     1      29.967  15.930   3.200  1.00  0.00    -0.390 OA
HETATM   11  H   LIG     1      30.098  15.957   4.167  1.00  0.00     0.210 HD
ENDBRANCH   1  10
BRANCH   2  12
HETATM   12  O   LIG     1      27.419  15.430   2.392  1.00  0.00    -0.390 OA
HETATM   13  H   LIG     1      27.700  15.383   3.331  1.00  0.00     0.210 HD
ENDBRANCH   2  12
BRANCH   4  14
HETATM   14  O   LIG     1      28.850  18.508  -0.340  1.00  0.00    -0.363 OA
HETATM   15  C   LIG     1      28.857  18.839  -1.723  1.00  0.00     0.204 C 
ENDBRANCH   4  14
BRANCH   3  16
HETATM   16  O   LIG     1      27.748  15.694  -0.390  1.00  0.00    -0.388 OA
HETATM   17  H   LIG     1      27.826  16.279  -1.170  1.00  0.00     0.210 HD
ENDBRANCH   3  16
TORSDOF 6
ENDMDL
