MODEL 1
REMARK VINA RESULT:      -5.1      0.000      0.000
REMARK  6 active torsions:
REMARK  status: ('A' for Active; 'I' for Inactive)
REMARK    1  A    between atoms: C_1  and  O_13 
REMARK    2  A    between atoms: C_2  and  O_9 
REMARK    3  A    between atoms: C_3  and  O_10 
REMARK    4  A    between atoms: C_4  and  O_11 
REMARK    5  A    between atoms: C_6  and  C_7 
REMARK    6  A    between atoms: C_7  and  O_8 
ROOT
HETATM    1  C   LIG     1      39.695   3.060   1.141  1.00  0.00     0.180 C 
HETATM    2  C   LIG     1      39.772   4.587   1.246  1.00  0.00     0.183 C 
HETATM    3  C   LIG     1      40.742   5.152   0.210  1.00  0.00     0.204 C 
HETATM    4  C   LIG     1      42.113   4.462   0.368  1.00  0.00     0.290 C 
HETATM    5  O   LIG     1      41.939   3.054   0.125  1.00  0.00    -0.349 OA
HETATM    6  C   LIG     1      41.106   2.439   1.118  1.00  0.00     0.179 C 
ENDROOT
BRANCH   6   7
HETATM    7  C   LIG     1      41.031   0.936   0.820  1.00  0.00     0.198 C 
BRANCH   7   8
HETATM    8  O   LIG     1      42.326   0.344   0.924  1.00  0.00    -0.398 OA
HETATM    9  H   LIG     1      42.754   0.751   1.701  1.00  0.00     0.209 HD
ENDBRANCH   7   8
ENDBRANCH   6   7
BRANCH   1  10
HETATM   10  O   LIG     1      38.903   2.583   2.236  1.00  0.00    -0.390 OA
HETATM   11  H   LIG     1      39.064   3.191   2.990  1.00  0.00     0.210 HD
ENDBRANCH   1  10
BRANCH   2  12
HETATM   12  O   LIG     1      38.470   5.160   1.022  1.00  0.00    -0.390 OA
HETATM   13  H   LIG     1      38.602   6.125   1.119  1.00  0.00     0.210 HD
ENDBRANCH   2  12
BRANCH   4  14
HETATM   14  O   LIG     1      42.720   4.625   1.653  1.00  0.00    -0.363 OA
HETATM   15  C   LIG     1      44.137   4.686   1.620  1.00  0.00     0.204 C 
ENDBRANCH   4  14
BRANCH   3  16
HETATM   16  O   LIG     1      40.803   6.579   0.322  1.00  0.00    -0.388 OA
HETATM   17  H   LIG     1      39.892   6.881   0.126  1.00  0.00     0.210 HD
ENDBRANCH   3  16
TORSDOF 6
ENDMDL
MODEL 2
REMARK VINA RESULT:      -5.1      3.507      4.719
REMARK  6 active torsions:
REMARK  status: ('A' for Active; 'I' for Inactive)
REMARK    1  A    between atoms: C_1  and  O_13 
REMARK    2  A    between atoms: C_2  and  O_9 
REMARK    3  A    between atoms: C_3  and  O_10 
REMARK    4  A    between atoms: C_4  and  O_11 
REMARK    5  A    between atoms: C_6  and  C_7 
REMARK    6  A    between atoms: C_7  and  O_8 
ROOT
HETATM    1  C   LIG     1      42.746   6.568   1.093  1.00  0.00     0.180 C 
HETATM    2  C   LIG     1      42.186   7.867   1.685  1.00  0.00     0.183 C 
HETATM    3  C   LIG     1      43.148   9.029   1.444  1.00  0.00     0.204 C 
HETATM    4  C   LIG     1      44.540   8.660   1.997  1.00  0.00     0.290 C 
HETATM    5  O   LIG     1      45.016   7.504   1.282  1.00  0.00    -0.349 OA
HETATM    6  C   LIG     1      44.206   6.348   1.535  1.00  0.00     0.179 C 
ENDROOT
BRANCH   6   7
HETATM    7  C   LIG     1      44.822   5.156   0.792  1.00  0.00     0.198 C 
BRANCH   7   8
HETATM    8  O   LIG     1      44.463   3.932   1.432  1.00  0.00    -0.398 OA
HETATM    9  H   LIG     1      43.487   3.901   1.441  1.00  0.00     0.209 HD
ENDBRANCH   7   8
ENDBRANCH   6   7
BRANCH   1  10
HETATM   10  O   LIG     1      41.883   5.495   1.493  1.00  0.00    -0.390 OA
HETATM   11  H   LIG     1      41.144   5.898   1.997  1.00  0.00     0.210 HD
ENDBRANCH   1  10
BRANCH   2  12
HETATM   12  O   LIG     1      40.920   8.178   1.073  1.00  0.00    -0.390 OA
HETATM   13  H   LIG     1      40.478   8.779   1.707  1.00  0.00     0.210 HD
ENDBRANCH   2  12
BRANCH   4  14
HETATM   14  O   LIG     1      44.569   8.366   3.396  1.00  0.00    -0.363 OA
HETATM   15  C   LIG     1      45.818   8.629   4.016  1.00  0.00     0.204 C 
ENDBRANCH   4  14
BRANCH   3  16
HETATM   16  O   LIG     1      42.611  10.234   2.002  1.00  0.00    -0.388 OA
HETATM   17  H   LIG     1      42.095  10.636   1.272  1.00  0.00     0.210 HD
ENDBRANCH   3  16
TORSDOF 6
ENDMDL
MODEL 3
REMARK VINA RESULT:      -4.9     10.812     12.337
REMARK  6 active torsions:
REMARK  status: ('A' for Active; 'I' for Inactive)
REMARK    1  A    between atoms: C_1  and  O_13 
REMARK    2  A    between atoms: C_2  and  O_9 
REMARK    3  A    between atoms: C_3  and  O_10 
REMARK    4  A    between atoms: C_4  and  O_11 
REMARK    5  A    between atoms: C_6  and  C_7 
REMARK    6  A    between atoms: C_7  and  O_8 
ROOT
HETATM    1  C   LIG     1      42.300  -7.358  -3.841  1.00  0.00     0.180 C 
HETATM    2  C   LIG     1      43.705  -7.768  -3.385  1.00  0.00     0.183 C 
HETATM    3  C   LIG     1      43.638  -8.589  -2.098  1.00  0.00     0.204 C 
HETATM    4  C   LIG     1      42.859  -7.795  -1.029  1.00  0.00     0.290 C 
HETATM    5  O   LIG     1      41.521  -7.577  -1.515  1.00  0.00    -0.349 OA
HETATM    6  C   LIG     1      41.504  -6.737  -2.676  1.00  0.00     0.179 C 
ENDROOT
BRANCH   6   7
HETATM    7  C   LIG     1      40.043  -6.505  -3.083  1.00  0.00     0.198 C 
BRANCH   7   8
HETATM    8  O   LIG     1      39.725  -7.268  -4.246  1.00  0.00    -0.398 OA
HETATM    9  H   LIG     1      38.794  -7.068  -4.462  1.00  0.00     0.209 HD
ENDBRANCH   7   8
ENDBRANCH   6   7
BRANCH   1  10
HETATM   10  O   LIG     1      42.442  -6.461  -4.950  1.00  0.00    -0.390 OA
HETATM   11  H   LIG     1      43.295  -5.990  -4.827  1.00  0.00     0.210 HD
ENDBRANCH   1  10
BRANCH   2  12
HETATM   12  O   LIG     1      44.341  -8.560  -4.407  1.00  0.00    -0.390 OA
HETATM   13  H   LIG     1      45.033  -9.066  -3.935  1.00  0.00     0.210 HD
ENDBRANCH   2  12
BRANCH   4  14
HETATM   14  O   LIG     1      43.427  -6.526  -0.695  1.00  0.00    -0.363 OA
HETATM   15  C   LIG     1      43.901  -6.437   0.639  1.00  0.00     0.204 C 
ENDBRANCH   4  14
BRANCH   3  16
HETATM   16  O   LIG     1      44.957  -8.963  -1.685  1.00  0.00    -0.388 OA
HETATM   17  H   LIG     1      45.269  -8.210  -1.142  1.00  0.00     0.210 HD
ENDBRANCH   3  16
TORSDOF 6
ENDMDL
MODEL 4
REMARK VINA RESULT:      -4.9      8.815     11.110
REMARK  6 active torsions:
REMARK  status: ('A' for Active; 'I' for Inactive)
REMARK    1  A    between atoms: C_1  and  O_13 
REMARK    2  A    between atoms: C_2  and  O_9 
REMARK    3  A    between atoms: C_3  and  O_10 
REMARK    4  A    between atoms: C_4  and  O_11 
REMARK    5  A    between atoms: C_6  and  C_7 
REMARK    6  A    between atoms: C_7  and  O_8 
ROOT
HETATM    1  C   LIG     1      43.122  -6.154  -4.430  1.00  0.00     0.180 C 
HETATM    2  C   LIG     1      42.033  -7.020  -3.788  1.00  0.00     0.183 C 
HETATM    3  C   LIG     1      40.666  -6.348  -3.909  1.00  0.00     0.204 C 
HETATM    4  C   LIG     1      40.745  -4.927  -3.311  1.00  0.00     0.290 C 
HETATM    5  O   LIG     1      41.706  -4.171  -4.071  1.00  0.00    -0.349 OA
HETATM    6  C   LIG     1      43.032  -4.699  -3.931  1.00  0.00     0.179 C 
ENDROOT
BRANCH   6   7
HETATM    7  C   LIG     1      43.994  -3.797  -4.715  1.00  0.00     0.198 C 
BRANCH   7   8
HETATM    8  O   LIG     1      45.344  -4.217  -4.512  1.00  0.00    -0.398 OA
HETATM    9  H   LIG     1      45.779  -3.511  -3.998  1.00  0.00     0.209 HD
ENDBRANCH   7   8
ENDBRANCH   6   7
BRANCH   1  10
HETATM   10  O   LIG     1      44.391  -6.757  -4.141  1.00  0.00    -0.390 OA
HETATM   11  H   LIG     1      45.080  -6.141  -4.472  1.00  0.00     0.210 HD
ENDBRANCH   1  10
BRANCH   2  12
HETATM   12  O   LIG     1      41.977  -8.303  -4.442  1.00  0.00    -0.390 OA
HETATM   13  H   LIG     1      42.018  -8.097  -5.398  1.00  0.00     0.210 HD
ENDBRANCH   2  12
BRANCH   4  14
HETATM   14  O   LIG     1      41.123  -4.879  -1.933  1.00  0.00    -0.363 OA
HETATM   15  C   LIG     1      40.350  -3.980  -1.153  1.00  0.00     0.204 C 
ENDBRANCH   4  14
BRANCH   3  16
HETATM   16  O   LIG     1      39.660  -7.169  -3.305  1.00  0.00    -0.388 OA
HETATM   17  H   LIG     1      39.803  -8.058  -3.690  1.00  0.00     0.210 HD
ENDBRANCH   3  16
TORSDOF 6
ENDMDL
MODEL 5
REMARK VINA RESULT:      -4.9      2.694      4.974
REMARK  6 active torsions:
REMARK  status: ('A' for Active; 'I' for Inactive)
REMARK    1  A    between atoms: C_1  and  O_13 
REMARK    2  A    between atoms: C_2  and  O_9 
REMARK    3  A    between atoms: C_3  and  O_10 
REMARK    4  A    between atoms: C_4  and  O_11 
REMARK    5  A    between atoms: C_6  and  C_7 
REMARK    6  A    between atoms: C_7  and  O_8 
ROOT
HETATM    1  C   LIG     1      41.760   6.489   0.925  1.00  0.00     0.180 C 
HETATM    2  C   LIG     1      42.525   5.187   0.664  1.00  0.00     0.183 C 
HETATM    3  C   LIG     1      43.658   5.013   1.674  1.00  0.00     0.204 C 
HETATM    4  C   LIG     1      44.560   6.264   1.646  1.00  0.00     0.290 C 
HETATM    5  O   LIG     1      43.765   7.402   2.027  1.00  0.00    -0.349 OA
HETATM    6  C   LIG     1      42.732   7.677   1.071  1.00  0.00     0.179 C 
ENDROOT
BRANCH   6   7
HETATM    7  C   LIG     1      41.982   8.937   1.520  1.00  0.00     0.198 C 
BRANCH   7   8
HETATM    8  O   LIG     1      40.618   8.628   1.803  1.00  0.00    -0.398 OA
HETATM    9  H   LIG     1      40.492   7.690   1.566  1.00  0.00     0.209 HD
ENDBRANCH   7   8
ENDBRANCH   6   7
BRANCH   1  10
HETATM   10  O   LIG     1      40.825   6.672  -0.147  1.00  0.00    -0.390 OA
HETATM   11  H   LIG     1      40.499   7.596  -0.084  1.00  0.00     0.210 HD
ENDBRANCH   1  10
BRANCH   2  12
HETATM   12  O   LIG     1      41.630   4.063   0.773  1.00  0.00    -0.390 OA
HETATM   13  H   LIG     1      41.670   3.803   1.716  1.00  0.00     0.210 HD
ENDBRANCH   2  12
BRANCH   4  14
HETATM   14  O   LIG     1      45.160   6.540   0.377  1.00  0.00    -0.363 OA
HETATM   15  C   LIG     1      46.542   6.855   0.447  1.00  0.00     0.204 C 
ENDBRANCH   4  14
BRANCH   3  16
HETATM   16  O   LIG     1      44.362   3.792   1.417  1.00  0.00    -0.388 OA
HETATM   17  H   LIG     1      45.185   4.073   0.966  1.00  0.00     0.210 HD
ENDBRANCH   3  16
TORSDOF 6
ENDMDL
MODEL 6
REMARK VINA RESULT:      -4.8      1.720      4.087
REMARK  6 active torsions:
REMARK  status: ('A' for Active; 'I' for Inactive)
REMARK    1  A    between atoms: C_1  and  O_13 
REMARK    2  A    between atoms: C_2  and  O_9 
REMARK    3  A    between atoms: C_3  and  O_10 
REMARK    4  A    between atoms: C_4  and  O_11 
REMARK    5  A    between atoms: C_6  and  C_7 
REMARK    6  A    between atoms: C_7  and  O_8 
ROOT
HETATM    1  C   LIG     1      39.824   4.809   0.909  1.00  0.00     0.180 C 
HETATM    2  C   LIG     1      40.847   4.074   1.782  1.00  0.00     0.183 C 
HETATM    3  C   LIG     1      41.569   2.995   0.978  1.00  0.00     0.204 C 
HETATM    4  C   LIG     1      40.526   2.053   0.339  1.00  0.00     0.290 C 
HETATM    5  O   LIG     1      39.704   2.830  -0.552  1.00  0.00    -0.349 OA
HETATM    6  C   LIG     1      38.928   3.808   0.153  1.00  0.00     0.179 C 
ENDROOT
BRANCH   6   7
HETATM    7  C   LIG     1      38.038   4.539  -0.861  1.00  0.00     0.198 C 
BRANCH   7   8
HETATM    8  O   LIG     1      37.207   5.490  -0.197  1.00  0.00    -0.398 OA
HETATM    9  H   LIG     1      36.603   5.850  -0.874  1.00  0.00     0.209 HD
ENDBRANCH   7   8
ENDBRANCH   6   7
BRANCH   1  10
HETATM   10  O   LIG     1      39.072   5.687   1.758  1.00  0.00    -0.390 OA
HETATM   11  H   LIG     1      39.182   6.593   1.396  1.00  0.00     0.210 HD
ENDBRANCH   1  10
BRANCH   2  12
HETATM   12  O   LIG     1      41.822   5.007   2.286  1.00  0.00    -0.390 OA
HETATM   13  H   LIG     1      42.685   4.567   2.144  1.00  0.00     0.210 HD
ENDBRANCH   2  12
BRANCH   4  14
HETATM   14  O   LIG     1      39.672   1.388   1.273  1.00  0.00    -0.363 OA
HETATM   15  C   LIG     1      39.872  -0.016   1.341  1.00  0.00     0.204 C 
ENDBRANCH   4  14
BRANCH   3  16
HETATM   16  O   LIG     1      42.521   2.318   1.807  1.00  0.00    -0.388 OA
HETATM   17  H   LIG     1      43.393   2.611   1.471  1.00  0.00     0.210 HD
ENDBRANCH   3  16
TORSDOF 6
ENDMDL
MODEL 7
REMARK VINA RESULT:      -4.8      1.247      3.523
REMARK  6 active torsions:
REMARK  status: ('A' for Active; 'I' for Inactive)
REMARK    1  A    between atoms: C_1  and  O_13 
REMARK    2  A    between atoms: C_2  and  O_9 
REMARK    3  A    between atoms: C_3  and  O_10 
REMARK    4  A    between atoms: C_4  and  O_11 
REMARK    5  A    between atoms: C_6  and  C_7 
REMARK    6  A    between atoms: C_7  and  O_8 
ROOT
HETATM    1  C   LIG     1      41.313   5.527   1.157  1.00  0.00     0.180 C 
HETATM    2  C   LIG     1      39.915   4.904   1.084  1.00  0.00     0.183 C 
HETATM    3  C   LIG     1      39.912   3.507   1.701  1.00  0.00     0.204 C 
HETATM    4  C   LIG     1      40.997   2.648   1.017  1.00  0.00     0.290 C 
HETATM    5  O   LIG     1      42.276   3.263   1.258  1.00  0.00    -0.349 OA
HETATM    6  C   LIG     1      42.379   4.547   0.629  1.00  0.00     0.179 C 
ENDROOT
BRANCH   6   7
HETATM    7  C   LIG     1      43.790   5.095   0.879  1.00  0.00     0.198 C 
BRANCH   7   8
HETATM    8  O   LIG     1      44.617   4.087   1.460  1.00  0.00    -0.398 OA
HETATM    9  H   LIG     1      44.445   4.107   2.420  1.00  0.00     0.209 HD
ENDBRANCH   7   8
ENDBRANCH   6   7
BRANCH   1  10
HETATM   10  O   LIG     1      41.286   6.758   0.421  1.00  0.00    -0.390 OA
HETATM   11  H   LIG     1      41.098   7.471   1.069  1.00  0.00     0.210 HD
ENDBRANCH   1  10
BRANCH   2  12
HETATM   12  O   LIG     1      38.974   5.728   1.799  1.00  0.00    -0.390 OA
HETATM   13  H   LIG     1      38.102   5.319   1.625  1.00  0.00     0.210 HD
ENDBRANCH   2  12
BRANCH   4  14
HETATM   14  O   LIG     1      40.832   2.491  -0.395  1.00  0.00    -0.363 OA
HETATM   15  C   LIG     1      40.745   1.140  -0.820  1.00  0.00     0.204 C 
ENDBRANCH   4  14
BRANCH   3  16
HETATM   16  O   LIG     1      38.599   2.939   1.625  1.00  0.00    -0.388 OA
HETATM   17  H   LIG     1      38.106   3.359   2.360  1.00  0.00     0.210 HD
ENDBRANCH   3  16
TORSDOF 6
ENDMDL
MODEL 8
REMARK VINA RESULT:      -4.8      9.922     11.735
REMARK  6 active torsions:
REMARK  status: ('A' for Active; 'I' for Inactive)
REMARK    1  A    between atoms: C_1  and  O_13 
REMARK    2  A    between atoms: C_2  and  O_9 
REMARK    3  A    between atoms: C_3  and  O_10 
REMARK    4  A    between atoms: C_4  and  O_11 
REMARK    5  A    between atoms: C_6  and  C_7 
REMARK    6  A    between atoms: C_7  and  O_8 
ROOT
HETATM    1  C   LIG     1      43.497  -7.056  -3.527  1.00  0.00     0.180 C 
HETATM    2  C   LIG     1      42.717  -5.981  -4.292  1.00  0.00     0.183 C 
HETATM    3  C   LIG     1      41.818  -5.188  -3.345  1.00  0.00     0.204 C 
HETATM    4  C   LIG     1      40.908  -6.165  -2.571  1.00  0.00     0.290 C 
HETATM    5  O   LIG     1      41.746  -7.042  -1.795  1.00  0.00    -0.349 OA
HETATM    6  C   LIG     1      42.557  -7.882  -2.628  1.00  0.00     0.179 C 
ENDROOT
BRANCH   6   7
HETATM    7  C   LIG     1      43.362  -8.824  -1.724  1.00  0.00     0.198 C 
BRANCH   7   8
HETATM    8  O   LIG     1      44.694  -8.338  -1.562  1.00  0.00    -0.398 OA
HETATM    9  H   LIG     1      45.160  -8.988  -1.004  1.00  0.00     0.209 HD
ENDBRANCH   7   8
ENDBRANCH   6   7
BRANCH   1  10
HETATM   10  O   LIG     1      44.190  -7.864  -4.488  1.00  0.00    -0.390 OA
HETATM   11  H   LIG     1      44.768  -7.260  -5.002  1.00  0.00     0.210 HD
ENDBRANCH   1  10
BRANCH   2  12
HETATM   12  O   LIG     1      43.633  -5.071  -4.932  1.00  0.00    -0.390 OA
HETATM   13  H   LIG     1      44.472  -5.177  -4.439  1.00  0.00     0.210 HD
ENDBRANCH   2  12
BRANCH   4  14
HETATM   14  O   LIG     1      40.057  -6.968  -3.393  1.00  0.00    -0.363 OA
HETATM   15  C   LIG     1      38.674  -6.694  -3.234  1.00  0.00     0.204 C 
ENDBRANCH   4  14
BRANCH   3  16
HETATM   16  O   LIG     1      41.096  -4.189  -4.074  1.00  0.00    -0.388 OA
HETATM   17  H   LIG     1      41.777  -3.536  -4.340  1.00  0.00     0.210 HD
ENDBRANCH   3  16
TORSDOF 6
ENDMDL
MODEL 9
REMARK VINA RESULT:      -4.8      9.356     11.398
REMARK  6 active torsions:
REMARK  status: ('A' for Active; 'I' for Inactive)
REMARK    1  A    between atoms: C_1  and  O_13 
REMARK    2  A    between atoms: C_2  and  O_9 
REMARK    3  A    between atoms: C_3  and  O_10 
REMARK    4  A    between atoms: C_4  and  O_11 
REMARK    5  A    between atoms: C_6  and  C_7 
REMARK    6  A    between atoms: C_7  and  O_8 
ROOT
HETATM    1  C   LIG     1      43.256  -5.988  -4.115  1.00  0.00     0.180 C 
HETATM    2  C   LIG     1      42.697  -4.889  -3.205  1.00  0.00     0.183 C 
HETATM    3  C   LIG     1      42.098  -5.491  -1.935  1.00  0.00     0.204 C 
HETATM    4  C   LIG     1      41.048  -6.553  -2.322  1.00  0.00     0.290 C 
HETATM    5  O   LIG     1      41.711  -7.593  -3.064  1.00  0.00    -0.349 OA
HETATM    6  C   LIG     1      42.222  -7.114  -4.316  1.00  0.00     0.179 C 
ENDROOT
BRANCH   6   7
HETATM    7  C   LIG     1      42.849  -8.297  -5.065  1.00  0.00     0.198 C 
BRANCH   7   8
HETATM    8  O   LIG     1      44.268  -8.286  -4.910  1.00  0.00    -0.398 OA
HETATM    9  H   LIG     1      44.481  -7.503  -4.369  1.00  0.00     0.209 HD
ENDBRANCH   7   8
ENDBRANCH   6   7
BRANCH   1  10
HETATM   10  O   LIG     1      43.650  -5.378  -5.351  1.00  0.00    -0.390 OA
HETATM   11  H   LIG     1      44.528  -4.966  -5.197  1.00  0.00     0.210 HD
ENDBRANCH   1  10
BRANCH   2  12
HETATM   12  O   LIG     1      43.749  -3.977  -2.834  1.00  0.00    -0.390 OA
HETATM   13  H   LIG     1      43.517  -3.684  -1.930  1.00  0.00     0.210 HD
ENDBRANCH   2  12
BRANCH   4  14
HETATM   14  O   LIG     1      39.962  -6.060  -3.111  1.00  0.00    -0.363 OA
HETATM   15  C   LIG     1      38.730  -6.725  -2.880  1.00  0.00     0.204 C 
ENDBRANCH   4  14
BRANCH   3  16
HETATM   16  O   LIG     1      41.581  -4.452  -1.096  1.00  0.00    -0.388 OA
HETATM   17  H   LIG     1      40.715  -4.222  -1.493  1.00  0.00     0.210 HD
ENDBRANCH   3  16
TORSDOF 6
ENDMDL
