MODEL 1
REMARK VINA RESULT:      -5.4      0.000      0.000
REMARK  6 active torsions:
REMARK  status: ('A' for Active; 'I' for Inactive)
REMARK    1  A    between atoms: C_1  and  O_7 
REMARK    2  A    between atoms: C_2  and  O_10 
REMARK    3  A    between atoms: C_3  and  O_12 
REMARK    4  A    between atoms: C_4  and  O_11 
REMARK    5  A    between atoms: C_6  and  C_8 
REMARK    6  A    between atoms: C_8  and  O_9 
ROOT
HETATM    1  C   LIG     1      41.909  -6.755  -3.398  1.00  0.00     0.180 C 
HETATM    2  C   LIG     1      43.368  -7.037  -3.014  1.00  0.00     0.183 C 
HETATM    3  C   LIG     1      43.481  -8.358  -2.246  1.00  0.00     0.204 C 
HETATM    4  C   LIG     1      42.472  -8.386  -1.080  1.00  0.00     0.288 C 
HETATM    5  O   LIG     1      41.151  -8.124  -1.559  1.00  0.00    -0.349 OA
HETATM    6  C   LIG     1      41.039  -6.812  -2.131  1.00  0.00     0.179 C 
ENDROOT
BRANCH   6   7
HETATM    7  C   LIG     1      39.563  -6.527  -2.422  1.00  0.00     0.198 C 
BRANCH   7   8
HETATM    8  O   LIG     1      39.038  -7.479  -3.340  1.00  0.00    -0.398 OA
HETATM    9  H   LIG     1      39.752  -7.719  -3.956  1.00  0.00     0.209 HD
ENDBRANCH   7   8
ENDBRANCH   6   7
BRANCH   1  10
HETATM   10  O   LIG     1      41.522  -7.759  -4.356  1.00  0.00    -0.390 OA
HETATM   11  H   LIG     1      41.092  -7.302  -5.106  1.00  0.00     0.210 HD
ENDBRANCH   1  10
BRANCH   2  12
HETATM   12  O   LIG     1      44.190  -7.126  -4.188  1.00  0.00    -0.390 OA
HETATM   13  H   LIG     1      43.701  -7.708  -4.808  1.00  0.00     0.210 HD
ENDBRANCH   2  12
BRANCH   4  14
HETATM   14  O   LIG     1      42.478  -9.664  -0.457  1.00  0.00    -0.369 OA
HETATM   15  H   LIG     1      43.358  -9.769  -0.049  1.00  0.00     0.212 HD
ENDBRANCH   4  14
BRANCH   3  16
HETATM   16  O   LIG     1      44.819  -8.536  -1.763  1.00  0.00    -0.388 OA
HETATM   17  H   LIG     1      44.896  -9.491  -1.560  1.00  0.00     0.210 HD
ENDBRANCH   3  16
TORSDOF 6
ENDMDL
MODEL 2
REMARK VINA RESULT:      -5.0      2.380      3.443
REMARK  6 active torsions:
REMARK  status: ('A' for Active; 'I' for Inactive)
REMARK    1  A    between atoms: C_1  and  O_7 
REMARK    2  A    between atoms: C_2  and  O_10 
REMARK    3  A    between atoms: C_3  and  O_12 
REMARK    4  A    between atoms: C_4  and  O_11 
REMARK    5  A    between atoms: C_6  and  C_8 
REMARK    6  A    between atoms: C_8  and  O_9 
ROOT
HETATM    1  C   LIG     1      42.765  -5.897  -4.085  1.00  0.00     0.180 C 
HETATM    2  C   LIG     1      42.272  -5.038  -2.914  1.00  0.00     0.183 C 
HETATM    3  C   LIG     1      43.003  -5.410  -1.621  1.00  0.00     0.204 C 
HETATM    4  C   LIG     1      42.946  -6.935  -1.394  1.00  0.00     0.288 C 
HETATM    5  O   LIG     1      43.441  -7.627  -2.542  1.00  0.00    -0.349 OA
HETATM    6  C   LIG     1      42.636  -7.382  -3.706  1.00  0.00     0.179 C 
ENDROOT
BRANCH   6   7
HETATM    7  C   LIG     1      43.097  -8.315  -4.828  1.00  0.00     0.198 C 
BRANCH   7   8
HETATM    8  O   LIG     1      44.511  -8.472  -4.804  1.00  0.00    -0.398 OA
HETATM    9  H   LIG     1      44.730  -9.055  -4.055  1.00  0.00     0.209 HD
ENDBRANCH   7   8
ENDBRANCH   6   7
BRANCH   1  10
HETATM   10  O   LIG     1      44.136  -5.528  -4.332  1.00  0.00    -0.390 OA
HETATM   11  H   LIG     1      44.677  -5.902  -3.608  1.00  0.00     0.210 HD
ENDBRANCH   1  10
BRANCH   2  12
HETATM   12  O   LIG     1      42.502  -3.645  -3.178  1.00  0.00    -0.390 OA
HETATM   13  H   LIG     1      42.133  -3.167  -2.406  1.00  0.00     0.210 HD
ENDBRANCH   2  12
BRANCH   4  14
HETATM   14  O   LIG     1      43.743  -7.295  -0.273  1.00  0.00    -0.369 OA
HETATM   15  H   LIG     1      44.661  -7.363  -0.597  1.00  0.00     0.212 HD
ENDBRANCH   4  14
BRANCH   3  16
HETATM   16  O   LIG     1      42.431  -4.711  -0.509  1.00  0.00    -0.388 OA
HETATM   17  H   LIG     1      42.529  -5.314   0.256  1.00  0.00     0.210 HD
ENDBRANCH   3  16
TORSDOF 6
ENDMDL
MODEL 3
REMARK VINA RESULT:      -4.9     12.029     12.923
REMARK  6 active torsions:
REMARK  status: ('A' for Active; 'I' for Inactive)
REMARK    1  A    between atoms: C_1  and  O_7 
REMARK    2  A    between atoms: C_2  and  O_10 
REMARK    3  A    between atoms: C_3  and  O_12 
REMARK    4  A    between atoms: C_4  and  O_11 
REMARK    5  A    between atoms: C_6  and  C_8 
REMARK    6  A    between atoms: C_8  and  O_9 
ROOT
HETATM    1  C   LIG     1      41.347   5.460   0.788  1.00  0.00     0.180 C 
HETATM    2  C   LIG     1      39.966   4.846   1.054  1.00  0.00     0.183 C 
HETATM    3  C   LIG     1      40.100   3.494   1.761  1.00  0.00     0.204 C 
HETATM    4  C   LIG     1      41.092   2.589   1.000  1.00  0.00     0.288 C 
HETATM    5  O   LIG     1      42.342   3.260   0.824  1.00  0.00    -0.349 OA
HETATM    6  C   LIG     1      42.207   4.442   0.020  1.00  0.00     0.179 C 
ENDROOT
BRANCH   6   7
HETATM    7  C   LIG     1      43.604   4.980  -0.300  1.00  0.00     0.198 C 
BRANCH   7   8
HETATM    8  O   LIG     1      44.545   4.554   0.679  1.00  0.00    -0.398 OA
HETATM    9  H   LIG     1      44.148   4.708   1.555  1.00  0.00     0.209 HD
ENDBRANCH   7   8
ENDBRANCH   6   7
BRANCH   1  10
HETATM   10  O   LIG     1      41.920   5.783   2.069  1.00  0.00    -0.390 OA
HETATM   11  H   LIG     1      42.582   6.489   1.927  1.00  0.00     0.210 HD
ENDBRANCH   1  10
BRANCH   2  12
HETATM   12  O   LIG     1      39.180   5.714   1.885  1.00  0.00    -0.390 OA
HETATM   13  H   LIG     1      38.692   5.122   2.495  1.00  0.00     0.210 HD
ENDBRANCH   2  12
BRANCH   4  14
HETATM   14  O   LIG     1      41.324   1.392   1.732  1.00  0.00    -0.369 OA
HETATM   15  H   LIG     1      41.825   0.799   1.141  1.00  0.00     0.212 HD
ENDBRANCH   4  14
BRANCH   3  16
HETATM   16  O   LIG     1      38.818   2.862   1.868  1.00  0.00    -0.388 OA
HETATM   17  H   LIG     1      38.216   3.401   1.315  1.00  0.00     0.210 HD
ENDBRANCH   3  16
TORSDOF 6
ENDMDL
MODEL 4
REMARK VINA RESULT:      -4.8     11.865     12.811
REMARK  6 active torsions:
REMARK  status: ('A' for Active; 'I' for Inactive)
REMARK    1  A    between atoms: C_1  and  O_7 
REMARK    2  A    between atoms: C_2  and  O_10 
REMARK    3  A    between atoms: C_3  and  O_12 
REMARK    4  A    between atoms: C_4  and  O_11 
REMARK    5  A    between atoms: C_6  and  C_8 
REMARK    6  A    between atoms: C_8  and  O_9 
ROOT
HETATM    1  C   LIG     1      42.245   3.122   1.092  1.00  0.00     0.180 C 
HETATM    2  C   LIG     1      40.922   2.458   1.496  1.00  0.00     0.183 C 
HETATM    3  C   LIG     1      39.762   3.453   1.397  1.00  0.00     0.204 C 
HETATM    4  C   LIG     1      40.107   4.753   2.152  1.00  0.00     0.288 C 
HETATM    5  O   LIG     1      41.348   5.286   1.684  1.00  0.00    -0.349 OA
HETATM    6  C   LIG     1      42.444   4.393   1.936  1.00  0.00     0.179 C 
ENDROOT
BRANCH   6   7
HETATM    7  C   LIG     1      43.752   5.116   1.607  1.00  0.00     0.198 C 
BRANCH   7   8
HETATM    8  O   LIG     1      44.763   4.185   1.238  1.00  0.00    -0.398 OA
HETATM    9  H   LIG     1      44.333   3.323   1.099  1.00  0.00     0.209 HD
ENDBRANCH   7   8
ENDBRANCH   6   7
BRANCH   1  10
HETATM   10  O   LIG     1      42.153   3.427  -0.313  1.00  0.00    -0.390 OA
HETATM   11  H   LIG     1      42.993   3.852  -0.578  1.00  0.00     0.210 HD
ENDBRANCH   1  10
BRANCH   2  12
HETATM   12  O   LIG     1      40.636   1.343   0.636  1.00  0.00    -0.390 OA
HETATM   13  H   LIG     1      40.915   1.625  -0.260  1.00  0.00     0.210 HD
ENDBRANCH   2  12
BRANCH   4  14
HETATM   14  O   LIG     1      39.092   5.726   1.942  1.00  0.00    -0.369 OA
HETATM   15  H   LIG     1      39.159   5.999   1.008  1.00  0.00     0.212 HD
ENDBRANCH   4  14
BRANCH   3  16
HETATM   16  O   LIG     1      38.562   2.867   1.919  1.00  0.00    -0.388 OA
HETATM   17  H   LIG     1      37.876   3.033   1.240  1.00  0.00     0.210 HD
ENDBRANCH   3  16
TORSDOF 6
ENDMDL
MODEL 5
REMARK VINA RESULT:      -4.7     12.608     13.693
REMARK  6 active torsions:
REMARK  status: ('A' for Active; 'I' for Inactive)
REMARK    1  A    between atoms: C_1  and  O_7 
REMARK    2  A    between atoms: C_2  and  O_10 
REMARK    3  A    between atoms: C_3  and  O_12 
REMARK    4  A    between atoms: C_4  and  O_11 
REMARK    5  A    between atoms: C_6  and  C_8 
REMARK    6  A    between atoms: C_8  and  O_9 
ROOT
HETATM    1  C   LIG     1      41.823   4.067   1.807  1.00  0.00     0.180 C 
HETATM    2  C   LIG     1      40.326   4.385   1.911  1.00  0.00     0.183 C 
HETATM    3  C   LIG     1      39.798   4.952   0.590  1.00  0.00     0.204 C 
HETATM    4  C   LIG     1      40.690   6.117   0.114  1.00  0.00     0.288 C 
HETATM    5  O   LIG     1      42.055   5.701   0.043  1.00  0.00    -0.349 OA
HETATM    6  C   LIG     1      42.569   5.326   1.331  1.00  0.00     0.179 C 
ENDROOT
BRANCH   6   7
HETATM    7  C   LIG     1      44.079   5.101   1.211  1.00  0.00     0.198 C 
BRANCH   7   8
HETATM    8  O   LIG     1      44.440   3.822   1.717  1.00  0.00    -0.398 OA
HETATM    9  H   LIG     1      45.400   3.830   1.881  1.00  0.00     0.209 HD
ENDBRANCH   7   8
ENDBRANCH   6   7
BRANCH   1  10
HETATM   10  O   LIG     1      41.961   2.981   0.871  1.00  0.00    -0.390 OA
HETATM   11  H   LIG     1      41.638   3.296   0.004  1.00  0.00     0.210 HD
ENDBRANCH   1  10
BRANCH   2  12
HETATM   12  O   LIG     1      39.580   3.198   2.223  1.00  0.00    -0.390 OA
HETATM   13  H   LIG     1      39.352   3.274   3.174  1.00  0.00     0.210 HD
ENDBRANCH   2  12
BRANCH   4  14
HETATM   14  O   LIG     1      40.285   6.549  -1.178  1.00  0.00    -0.369 OA
HETATM   15  H   LIG     1      39.311   6.611  -1.157  1.00  0.00     0.212 HD
ENDBRANCH   4  14
BRANCH   3  16
HETATM   16  O   LIG     1      38.440   5.385   0.745  1.00  0.00    -0.388 OA
HETATM   17  H   LIG     1      37.934   4.577   0.970  1.00  0.00     0.210 HD
ENDBRANCH   3  16
TORSDOF 6
ENDMDL
MODEL 6
REMARK VINA RESULT:      -4.7     28.674     29.264
REMARK  6 active torsions:
REMARK  status: ('A' for Active; 'I' for Inactive)
REMARK    1  A    between atoms: C_1  and  O_7 
REMARK    2  A    between atoms: C_2  and  O_10 
REMARK    3  A    between atoms: C_3  and  O_12 
REMARK    4  A    between atoms: C_4  and  O_11 
REMARK    5  A    between atoms: C_6  and  C_8 
REMARK    6  A    between atoms: C_8  and  O_9 
ROOT
HETATM    1  C   LIG     1      33.740  20.004   2.550  1.00  0.00     0.180 C 
HETATM    2  C   LIG     1      34.935  20.834   3.038  1.00  0.00     0.183 C 
HETATM    3  C   LIG     1      35.558  20.207   4.288  1.00  0.00     0.204 C 
HETATM    4  C   LIG     1      34.470  19.929   5.346  1.00  0.00     0.288 C 
HETATM    5  O   LIG     1      33.419  19.140   4.783  1.00  0.00    -0.349 OA
HETATM    6  C   LIG     1      32.749  19.825   3.714  1.00  0.00     0.179 C 
ENDROOT
BRANCH   6   7
HETATM    7  C   LIG     1      31.513  19.016   3.311  1.00  0.00     0.198 C 
BRANCH   7   8
HETATM    8  O   LIG     1      31.822  17.629   3.236  1.00  0.00    -0.398 OA
HETATM    9  H   LIG     1      32.775  17.548   3.056  1.00  0.00     0.209 HD
ENDBRANCH   7   8
ENDBRANCH   6   7
BRANCH   1  10
HETATM   10  O   LIG     1      34.260  18.740   2.095  1.00  0.00    -0.390 OA
HETATM   11  H   LIG     1      33.497  18.174   1.862  1.00  0.00     0.210 HD
ENDBRANCH   1  10
BRANCH   2  12
HETATM   12  O   LIG     1      35.945  20.908   2.019  1.00  0.00    -0.390 OA
HETATM   13  H   LIG     1      36.796  20.985   2.499  1.00  0.00     0.210 HD
ENDBRANCH   2  12
BRANCH   4  14
HETATM   14  O   LIG     1      35.025  19.220   6.446  1.00  0.00    -0.369 OA
HETATM   15  H   LIG     1      34.610  18.337   6.444  1.00  0.00     0.212 HD
ENDBRANCH   4  14
BRANCH   3  16
HETATM   16  O   LIG     1      36.574  21.067   4.820  1.00  0.00    -0.388 OA
HETATM   17  H   LIG     1      36.830  21.655   4.080  1.00  0.00     0.210 HD
ENDBRANCH   3  16
TORSDOF 6
ENDMDL
MODEL 7
REMARK VINA RESULT:      -4.7     11.677     12.311
REMARK  6 active torsions:
REMARK  status: ('A' for Active; 'I' for Inactive)
REMARK    1  A    between atoms: C_1  and  O_7 
REMARK    2  A    between atoms: C_2  and  O_10 
REMARK    3  A    between atoms: C_3  and  O_12 
REMARK    4  A    between atoms: C_4  and  O_11 
REMARK    5  A    between atoms: C_6  and  C_8 
REMARK    6  A    between atoms: C_8  and  O_9 
ROOT
HETATM    1  C   LIG     1      40.588   3.473   0.532  1.00  0.00     0.180 C 
HETATM    2  C   LIG     1      40.830   4.870   1.119  1.00  0.00     0.183 C 
HETATM    3  C   LIG     1      42.329   5.141   1.275  1.00  0.00     0.204 C 
HETATM    4  C   LIG     1      43.007   3.979   2.030  1.00  0.00     0.288 C 
HETATM    5  O   LIG     1      42.723   2.735   1.386  1.00  0.00    -0.349 OA
HETATM    6  C   LIG     1      41.319   2.433   1.398  1.00  0.00     0.179 C 
ENDROOT
BRANCH   6   7
HETATM    7  C   LIG     1      41.120   1.003   0.890  1.00  0.00     0.198 C 
BRANCH   7   8
HETATM    8  O   LIG     1      42.358   0.304   0.855  1.00  0.00    -0.398 OA
HETATM    9  H   LIG     1      43.065   0.963   0.742  1.00  0.00     0.209 HD
ENDBRANCH   7   8
ENDBRANCH   6   7
BRANCH   1  10
HETATM   10  O   LIG     1      41.090   3.489  -0.818  1.00  0.00    -0.390 OA
HETATM   11  H   LIG     1      40.853   2.634  -1.231  1.00  0.00     0.210 HD
ENDBRANCH   1  10
BRANCH   2  12
HETATM   12  O   LIG     1      40.275   5.880   0.262  1.00  0.00    -0.390 OA
HETATM   13  H   LIG     1      40.395   5.544  -0.651  1.00  0.00     0.210 HD
ENDBRANCH   2  12
BRANCH   4  14
HETATM   14  O   LIG     1      44.417   4.163   2.050  1.00  0.00    -0.369 OA
HETATM   15  H   LIG     1      44.612   4.728   2.821  1.00  0.00     0.212 HD
ENDBRANCH   4  14
BRANCH   3  16
HETATM   16  O   LIG     1      42.540   6.382   1.961  1.00  0.00    -0.388 OA
HETATM   17  H   LIG     1      42.453   7.076   1.275  1.00  0.00     0.210 HD
ENDBRANCH   3  16
TORSDOF 6
ENDMDL
MODEL 8
REMARK VINA RESULT:      -4.7     13.831     14.369
REMARK  6 active torsions:
REMARK  status: ('A' for Active; 'I' for Inactive)
REMARK    1  A    between atoms: C_1  and  O_7 
REMARK    2  A    between atoms: C_2  and  O_10 
REMARK    3  A    between atoms: C_3  and  O_12 
REMARK    4  A    between atoms: C_4  and  O_11 
REMARK    5  A    between atoms: C_6  and  C_8 
REMARK    6  A    between atoms: C_8  and  O_9 
ROOT
HETATM    1  C   LIG     1      42.335   4.540   1.279  1.00  0.00     0.180 C 
HETATM    2  C   LIG     1      43.694   5.100   0.838  1.00  0.00     0.183 C 
HETATM    3  C   LIG     1      44.022   6.390   1.594  1.00  0.00     0.204 C 
HETATM    4  C   LIG     1      42.839   7.377   1.506  1.00  0.00     0.288 C 
HETATM    5  O   LIG     1      41.635   6.752   1.954  1.00  0.00    -0.349 OA
HETATM    6  C   LIG     1      41.268   5.638   1.125  1.00  0.00     0.179 C 
ENDROOT
BRANCH   6   7
HETATM    7  C   LIG     1      39.873   5.160   1.533  1.00  0.00     0.198 C 
BRANCH   7   8
HETATM    8  O   LIG     1      39.830   4.856   2.922  1.00  0.00    -0.398 OA
HETATM    9  H   LIG     1      38.942   5.085   3.247  1.00  0.00     0.209 HD
ENDBRANCH   7   8
ENDBRANCH   6   7
BRANCH   1  10
HETATM   10  O   LIG     1      42.475   4.125   2.652  1.00  0.00    -0.390 OA
HETATM   11  H   LIG     1      43.430   4.107   2.859  1.00  0.00     0.210 HD
ENDBRANCH   1  10
BRANCH   2  12
HETATM   12  O   LIG     1      44.738   4.148   1.095  1.00  0.00    -0.390 OA
HETATM   13  H   LIG     1      44.467   3.329   0.628  1.00  0.00     0.210 HD
ENDBRANCH   2  12
BRANCH   4  14
HETATM   14  O   LIG     1      43.086   8.514   2.324  1.00  0.00    -0.369 OA
HETATM   15  H   LIG     1      42.221   8.798   2.672  1.00  0.00     0.212 HD
ENDBRANCH   4  14
BRANCH   3  16
HETATM   16  O   LIG     1      45.216   6.983   1.068  1.00  0.00    -0.388 OA
HETATM   17  H   LIG     1      44.936   7.843   0.693  1.00  0.00     0.210 HD
ENDBRANCH   3  16
TORSDOF 6
ENDMDL
MODEL 9
REMARK VINA RESULT:      -4.6     13.129     13.830
REMARK  6 active torsions:
REMARK  status: ('A' for Active; 'I' for Inactive)
REMARK    1  A    between atoms: C_1  and  O_7 
REMARK    2  A    between atoms: C_2  and  O_10 
REMARK    3  A    between atoms: C_3  and  O_12 
REMARK    4  A    between atoms: C_4  and  O_11 
REMARK    5  A    between atoms: C_6  and  C_8 
REMARK    6  A    between atoms: C_8  and  O_9 
ROOT
HETATM    1  C   LIG     1      42.439   5.464   1.446  1.00  0.00     0.180 C 
HETATM    2  C   LIG     1      41.991   4.072   1.911  1.00  0.00     0.183 C 
HETATM    3  C   LIG     1      40.685   3.663   1.223  1.00  0.00     0.204 C 
HETATM    4  C   LIG     1      39.632   4.781   1.369  1.00  0.00     0.288 C 
HETATM    5  O   LIG     1      40.155   6.023   0.894  1.00  0.00    -0.349 OA
HETATM    6  C   LIG     1      41.286   6.458   1.665  1.00  0.00     0.179 C 
ENDROOT
BRANCH   6   7
HETATM    7  C   LIG     1      41.652   7.882   1.238  1.00  0.00     0.198 C 
BRANCH   7   8
HETATM    8  O   LIG     1      40.726   8.821   1.770  1.00  0.00    -0.398 OA
HETATM    9  H   LIG     1      41.167   9.290   2.500  1.00  0.00     0.209 HD
ENDBRANCH   7   8
ENDBRANCH   6   7
BRANCH   1  10
HETATM   10  O   LIG     1      42.789   5.352   0.053  1.00  0.00    -0.390 OA
HETATM   11  H   LIG     1      42.206   5.959  -0.447  1.00  0.00     0.210 HD
ENDBRANCH   1  10
BRANCH   2  12
HETATM   12  O   LIG     1      42.992   3.090   1.598  1.00  0.00    -0.390 OA
HETATM   13  H   LIG     1      43.317   3.322   0.703  1.00  0.00     0.210 HD
ENDBRANCH   2  12
BRANCH   4  14
HETATM   14  O   LIG     1      38.471   4.463   0.612  1.00  0.00    -0.369 OA
HETATM   15  H   LIG     1      38.664   4.715  -0.310  1.00  0.00     0.212 HD
ENDBRANCH   4  14
BRANCH   3  16
HETATM   16  O   LIG     1      40.199   2.433   1.774  1.00  0.00    -0.388 OA
HETATM   17  H   LIG     1      40.887   1.767   1.570  1.00  0.00     0.210 HD
ENDBRANCH   3  16
TORSDOF 6
ENDMDL
