MODEL 1
REMARK VINA RESULT:      -5.8      0.000      0.000
REMARK  11 active torsions:
REMARK  status: ('A' for Active; 'I' for Inactive)
REMARK    1  A    between atoms: C_1  and  O_7 
REMARK    2  A    between atoms: C_2  and  O_10 
REMARK    3  A    between atoms: C_3  and  O_11 
REMARK    4  A    between atoms: C_4  and  O_12 
REMARK    5  A    between atoms: C_6  and  C_8 
REMARK    6  A    between atoms: C_8  and  O_9 
REMARK    7  A    between atoms: O_12  and  C_13 
REMARK    8  A    between atoms: C_13  and  C_14 
REMARK    9  A    between atoms: C_15  and  C_16 
REMARK   10  A    between atoms: C_16  and  C_17 
REMARK   11  A    between atoms: C_17  and  C_18 
ROOT
HETATM    1  C   LIG     1      43.814   6.702   0.975  1.00  0.00     0.180 C 
HETATM    2  C   LIG     1      45.343   6.687   1.097  1.00  0.00     0.183 C 
HETATM    3  C   LIG     1      45.818   7.107   2.499  1.00  0.00     0.204 C 
HETATM    4  C   LIG     1      45.104   8.408   2.920  1.00  0.00     0.291 C 
HETATM    5  O   LIG     1      43.684   8.291   2.777  1.00  0.00    -0.348 OA
HETATM    6  C   LIG     1      43.299   8.080   1.416  1.00  0.00     0.179 C 
ENDROOT
BRANCH   4   7
HETATM    7  O   LIG     1      45.361   8.722   4.288  1.00  0.00    -0.355 OA
BRANCH   7   8
HETATM    8  C   LIG     1      46.088   9.939   4.414  1.00  0.00     0.198 C 
BRANCH   8   9
HETATM    9  C   LIG     1      47.240   9.727   5.346  1.00  0.00    -0.005 C 
HETATM   10  C   LIG     1      47.981  10.747   5.803  1.00  0.00    -0.029 C 
BRANCH  10  11
HETATM   11  C   LIG     1      49.136  10.603   6.753  1.00  0.00     0.027 C 
BRANCH  11  12
HETATM   12  C   LIG     1      49.586  11.974   7.268  1.00  0.00     0.003 C 
BRANCH  12  13
HETATM   13  C   LIG     1      48.479  12.687   8.041  1.00  0.00    -0.004 C 
HETATM   14  C   LIG     1      48.918  12.999   9.464  1.00  0.00     0.005 C 
ENDBRANCH  12  13
ENDBRANCH  11  12
ENDBRANCH  10  11
ENDBRANCH   8   9
ENDBRANCH   7   8
ENDBRANCH   4   7
BRANCH   3  15
HETATM   15  O   LIG     1      47.243   7.302   2.445  1.00  0.00    -0.388 OA
HETATM   16  H   LIG     1      47.438   8.001   3.102  1.00  0.00     0.210 HD
ENDBRANCH   3  15
BRANCH   2  17
HETATM   17  O   LIG     1      45.863   5.382   0.805  1.00  0.00    -0.390 OA
HETATM   18  H   LIG     1      45.667   4.836   1.596  1.00  0.00     0.210 HD
ENDBRANCH   2  17
BRANCH   6  19
HETATM   19  C   LIG     1      41.779   8.214   1.321  1.00  0.00     0.198 C 
BRANCH  19  20
HETATM   20  O   LIG     1      41.336   9.399   1.970  1.00  0.00    -0.398 OA
HETATM   21  H   LIG     1      41.945   9.576   2.708  1.00  0.00     0.209 HD
ENDBRANCH  19  20
ENDBRANCH   6  19
BRANCH   1  22
HETATM   22  O   LIG     1      43.306   5.647   1.812  1.00  0.00    -0.390 OA
HETATM   23  H   LIG     1      42.330   5.674   1.760  1.00  0.00     0.210 HD
ENDBRANCH   1  22
TORSDOF 11
ENDMDL
MODEL 2
REMARK VINA RESULT:      -5.7      4.287      8.616
REMARK  11 active torsions:
REMARK  status: ('A' for Active; 'I' for Inactive)
REMARK    1  A    between atoms: C_1  and  O_7 
REMARK    2  A    between atoms: C_2  and  O_10 
REMARK    3  A    between atoms: C_3  and  O_11 
REMARK    4  A    between atoms: C_4  and  O_12 
REMARK    5  A    between atoms: C_6  and  C_8 
REMARK    6  A    between atoms: C_8  and  O_9 
REMARK    7  A    between atoms: O_12  and  C_13 
REMARK    8  A    between atoms: C_13  and  C_14 
REMARK    9  A    between atoms: C_15  and  C_16 
REMARK   10  A    between atoms: C_16  and  C_17 
REMARK   11  A    between atoms: C_17  and  C_18 
ROOT
HETATM    1  C   LIG     1      50.759  11.788   8.595  1.00  0.00     0.180 C 
HETATM    2  C   LIG     1      50.029  10.848   7.627  1.00  0.00     0.183 C 
HETATM    3  C   LIG     1      49.000  11.591   6.759  1.00  0.00     0.204 C 
HETATM    4  C   LIG     1      48.115  12.482   7.655  1.00  0.00     0.291 C 
HETATM    5  O   LIG     1      48.909  13.324   8.499  1.00  0.00    -0.348 OA
HETATM    6  C   LIG     1      49.712  12.565   9.408  1.00  0.00     0.179 C 
ENDROOT
BRANCH   4   7
HETATM    7  O   LIG     1      47.283  13.340   6.875  1.00  0.00    -0.355 OA
BRANCH   7   8
HETATM    8  C   LIG     1      45.918  13.234   7.262  1.00  0.00     0.198 C 
BRANCH   8   9
HETATM    9  C   LIG     1      45.190  12.387   6.266  1.00  0.00    -0.005 C 
HETATM   10  C   LIG     1      45.112  12.723   4.970  1.00  0.00    -0.029 C 
BRANCH  10  11
HETATM   11  C   LIG     1      44.414  11.907   3.919  1.00  0.00     0.027 C 
BRANCH  11  12
HETATM   12  C   LIG     1      45.427  11.104   3.097  1.00  0.00     0.003 C 
BRANCH  12  13
HETATM   13  C   LIG     1      45.630   9.697   3.654  1.00  0.00    -0.004 C 
HETATM   14  C   LIG     1      44.994   8.653   2.748  1.00  0.00     0.005 C 
ENDBRANCH  12  13
ENDBRANCH  11  12
ENDBRANCH  10  11
ENDBRANCH   8   9
ENDBRANCH   7   8
ENDBRANCH   4   7
BRANCH   3  15
HETATM   15  O   LIG     1      48.204  10.608   6.073  1.00  0.00    -0.388 OA
HETATM   16  H   LIG     1      47.292  10.962   6.072  1.00  0.00     0.210 HD
ENDBRANCH   3  15
BRANCH   2  17
HETATM   17  O   LIG     1      50.965  10.182   6.766  1.00  0.00    -0.390 OA
HETATM   18  H   LIG     1      51.778  10.061   7.302  1.00  0.00     0.210 HD
ENDBRANCH   2  17
BRANCH   6  19
HETATM   19  C   LIG     1      50.329  13.528  10.421  1.00  0.00     0.198 C 
BRANCH  19  20
HETATM   20  O   LIG     1      51.172  14.472   9.772  1.00  0.00    -0.398 OA
HETATM   21  H   LIG     1      50.961  14.450   8.823  1.00  0.00     0.209 HD
ENDBRANCH  19  20
ENDBRANCH   6  19
BRANCH   1  22
HETATM   22  O   LIG     1      51.583  12.664   7.806  1.00  0.00    -0.390 OA
HETATM   23  H   LIG     1      51.305  13.582   7.996  1.00  0.00     0.210 HD
ENDBRANCH   1  22
TORSDOF 11
ENDMDL
MODEL 3
REMARK VINA RESULT:      -5.5      6.851     11.916
REMARK  11 active torsions:
REMARK  status: ('A' for Active; 'I' for Inactive)
REMARK    1  A    between atoms: C_1  and  O_7 
REMARK    2  A    between atoms: C_2  and  O_10 
REMARK    3  A    between atoms: C_3  and  O_11 
REMARK    4  A    between atoms: C_4  and  O_12 
REMARK    5  A    between atoms: C_6  and  C_8 
REMARK    6  A    between atoms: C_8  and  O_9 
REMARK    7  A    between atoms: O_12  and  C_13 
REMARK    8  A    between atoms: C_13  and  C_14 
REMARK    9  A    between atoms: C_15  and  C_16 
REMARK   10  A    between atoms: C_16  and  C_17 
REMARK   11  A    between atoms: C_17  and  C_18 
ROOT
HETATM    1  C   LIG     1      41.200   5.298   1.332  1.00  0.00     0.180 C 
HETATM    2  C   LIG     1      39.931   4.830   0.609  1.00  0.00     0.183 C 
HETATM    3  C   LIG     1      39.873   3.299   0.469  1.00  0.00     0.204 C 
HETATM    4  C   LIG     1      41.215   2.780  -0.088  1.00  0.00     0.291 C 
HETATM    5  O   LIG     1      42.321   3.271   0.679  1.00  0.00    -0.348 OA
HETATM    6  C   LIG     1      42.422   4.697   0.619  1.00  0.00     0.179 C 
ENDROOT
BRANCH   4   7
HETATM    7  O   LIG     1      41.278   1.355  -0.044  1.00  0.00    -0.355 OA
BRANCH   7   8
HETATM    8  C   LIG     1      41.534   0.886   1.275  1.00  0.00     0.198 C 
BRANCH   8   9
HETATM    9  C   LIG     1      40.958  -0.488   1.427  1.00  0.00    -0.005 C 
HETATM   10  C   LIG     1      39.817  -0.850   0.823  1.00  0.00    -0.029 C 
BRANCH  10  11
HETATM   11  C   LIG     1      39.198  -2.216   0.919  1.00  0.00     0.027 C 
BRANCH  11  12
HETATM   12  C   LIG     1      38.906  -2.777  -0.476  1.00  0.00     0.003 C 
BRANCH  12  13
HETATM   13  C   LIG     1      38.588  -4.270  -0.438  1.00  0.00    -0.004 C 
HETATM   14  C   LIG     1      38.088  -4.757  -1.789  1.00  0.00     0.005 C 
ENDBRANCH  12  13
ENDBRANCH  11  12
ENDBRANCH  10  11
ENDBRANCH   8   9
ENDBRANCH   7   8
ENDBRANCH   4   7
BRANCH   3  15
HETATM   15  O   LIG     1      38.792   2.976  -0.425  1.00  0.00    -0.388 OA
HETATM   16  H   LIG     1      38.614   3.795  -0.930  1.00  0.00     0.210 HD
ENDBRANCH   3  15
BRANCH   2  17
HETATM   17  O   LIG     1      38.758   5.274   1.308  1.00  0.00    -0.390 OA
HETATM   18  H   LIG     1      38.658   4.666   2.071  1.00  0.00     0.210 HD
ENDBRANCH   2  17
BRANCH   6  19
HETATM   19  C   LIG     1      43.751   5.110   1.249  1.00  0.00     0.198 C 
BRANCH  19  20
HETATM   20  O   LIG     1      44.577   3.974   1.474  1.00  0.00    -0.398 OA
HETATM   21  H   LIG     1      44.041   3.182   1.298  1.00  0.00     0.209 HD
ENDBRANCH  19  20
ENDBRANCH   6  19
BRANCH   1  22
HETATM   22  O   LIG     1      41.106   4.856   2.698  1.00  0.00    -0.390 OA
HETATM   23  H   LIG     1      41.670   5.445   3.238  1.00  0.00     0.210 HD
ENDBRANCH   1  22
TORSDOF 11
ENDMDL
MODEL 4
REMARK VINA RESULT:      -5.5      4.955      7.979
REMARK  11 active torsions:
REMARK  status: ('A' for Active; 'I' for Inactive)
REMARK    1  A    between atoms: C_1  and  O_7 
REMARK    2  A    between atoms: C_2  and  O_10 
REMARK    3  A    between atoms: C_3  and  O_11 
REMARK    4  A    between atoms: C_4  and  O_12 
REMARK    5  A    between atoms: C_6  and  C_8 
REMARK    6  A    between atoms: C_8  and  O_9 
REMARK    7  A    between atoms: O_12  and  C_13 
REMARK    8  A    between atoms: C_13  and  C_14 
REMARK    9  A    between atoms: C_15  and  C_16 
REMARK   10  A    between atoms: C_16  and  C_17 
REMARK   11  A    between atoms: C_17  and  C_18 
ROOT
HETATM    1  C   LIG     1      51.306  12.040   8.386  1.00  0.00     0.180 C 
HETATM    2  C   LIG     1      51.869  11.025   7.383  1.00  0.00     0.183 C 
HETATM    3  C   LIG     1      51.027  10.948   6.099  1.00  0.00     0.204 C 
HETATM    4  C   LIG     1      49.535  10.801   6.466  1.00  0.00     0.291 C 
HETATM    5  O   LIG     1      49.126  11.812   7.393  1.00  0.00    -0.348 OA
HETATM    6  C   LIG     1      49.826  11.713   8.637  1.00  0.00     0.179 C 
ENDROOT
BRANCH   4   7
HETATM    7  O   LIG     1      48.702  10.929   5.314  1.00  0.00    -0.355 OA
BRANCH   7   8
HETATM    8  C   LIG     1      47.695   9.924   5.287  1.00  0.00     0.198 C 
BRANCH   8   9
HETATM    9  C   LIG     1      46.355  10.569   5.469  1.00  0.00    -0.005 C 
HETATM   10  C   LIG     1      46.180  11.627   6.273  1.00  0.00    -0.029 C 
BRANCH  10  11
HETATM   11  C   LIG     1      44.868  12.330   6.482  1.00  0.00     0.027 C 
BRANCH  11  12
HETATM   12  C   LIG     1      44.897  13.157   7.771  1.00  0.00     0.003 C 
BRANCH  12  13
HETATM   13  C   LIG     1      43.853  12.682   8.779  1.00  0.00    -0.004 C 
HETATM   14  C   LIG     1      43.657  13.707   9.886  1.00  0.00     0.005 C 
ENDBRANCH  12  13
ENDBRANCH  11  12
ENDBRANCH  10  11
ENDBRANCH   8   9
ENDBRANCH   7   8
ENDBRANCH   4   7
BRANCH   3  15
HETATM   15  O   LIG     1      51.479   9.813   5.338  1.00  0.00    -0.388 OA
HETATM   16  H   LIG     1      52.399  10.021   5.076  1.00  0.00     0.210 HD
ENDBRANCH   3  15
BRANCH   2  17
HETATM   17  O   LIG     1      53.220  11.358   7.030  1.00  0.00    -0.390 OA
HETATM   18  H   LIG     1      53.264  11.283   6.053  1.00  0.00     0.210 HD
ENDBRANCH   2  17
BRANCH   6  19
HETATM   19  C   LIG     1      49.161  12.657   9.638  1.00  0.00     0.198 C 
BRANCH  19  20
HETATM   20  O   LIG     1      48.410  13.659   8.964  1.00  0.00    -0.398 OA
HETATM   21  H   LIG     1      47.875  14.124   9.630  1.00  0.00     0.209 HD
ENDBRANCH  19  20
ENDBRANCH   6  19
BRANCH   1  22
HETATM   22  O   LIG     1      51.477  13.349   7.815  1.00  0.00    -0.390 OA
HETATM   23  H   LIG     1      52.086  13.263   7.055  1.00  0.00     0.210 HD
ENDBRANCH   1  22
TORSDOF 11
ENDMDL
MODEL 5
REMARK VINA RESULT:      -5.5     13.163     16.597
REMARK  11 active torsions:
REMARK  status: ('A' for Active; 'I' for Inactive)
REMARK    1  A    between atoms: C_1  and  O_7 
REMARK    2  A    between atoms: C_2  and  O_10 
REMARK    3  A    between atoms: C_3  and  O_11 
REMARK    4  A    between atoms: C_4  and  O_12 
REMARK    5  A    between atoms: C_6  and  C_8 
REMARK    6  A    between atoms: C_8  and  O_9 
REMARK    7  A    between atoms: O_12  and  C_13 
REMARK    8  A    between atoms: C_13  and  C_14 
REMARK    9  A    between atoms: C_15  and  C_16 
REMARK   10  A    between atoms: C_16  and  C_17 
REMARK   11  A    between atoms: C_17  and  C_18 
ROOT
HETATM    1  C   LIG     1      43.343  -6.332  -4.574  1.00  0.00     0.180 C 
HETATM    2  C   LIG     1      43.025  -4.938  -4.020  1.00  0.00     0.183 C 
HETATM    3  C   LIG     1      42.109  -4.999  -2.786  1.00  0.00     0.204 C 
HETATM    4  C   LIG     1      40.904  -5.917  -3.080  1.00  0.00     0.291 C 
HETATM    5  O   LIG     1      41.330  -7.191  -3.575  1.00  0.00    -0.348 OA
HETATM    6  C   LIG     1      42.023  -7.076  -4.822  1.00  0.00     0.179 C 
ENDROOT
BRANCH   4   7
HETATM    7  O   LIG     1      40.139  -6.163  -1.901  1.00  0.00    -0.355 OA
BRANCH   7   8
HETATM    8  C   LIG     1      38.757  -5.896  -2.113  1.00  0.00     0.198 C 
BRANCH   8   9
HETATM    9  C   LIG     1      38.416  -4.568  -1.512  1.00  0.00    -0.005 C 
HETATM   10  C   LIG     1      39.010  -4.121  -0.396  1.00  0.00    -0.029 C 
BRANCH  10  11
HETATM   11  C   LIG     1      38.728  -2.791   0.246  1.00  0.00     0.027 C 
BRANCH  11  12
HETATM   12  C   LIG     1      40.031  -2.114   0.682  1.00  0.00     0.003 C 
BRANCH  12  13
HETATM   13  C   LIG     1      40.109  -0.666   0.205  1.00  0.00    -0.004 C 
HETATM   14  C   LIG     1      39.852  -0.567  -1.291  1.00  0.00     0.005 C 
ENDBRANCH  12  13
ENDBRANCH  11  12
ENDBRANCH  10  11
ENDBRANCH   8   9
ENDBRANCH   7   8
ENDBRANCH   4   7
BRANCH   3  15
HETATM   15  O   LIG     1      41.669  -3.660  -2.492  1.00  0.00    -0.388 OA
HETATM   16  H   LIG     1      42.437  -3.215  -2.079  1.00  0.00     0.210 HD
ENDBRANCH   3  15
BRANCH   2  17
HETATM   17  O   LIG     1      44.231  -4.245  -3.666  1.00  0.00    -0.390 OA
HETATM   18  H   LIG     1      44.964  -4.853  -3.903  1.00  0.00     0.210 HD
ENDBRANCH   2  17
BRANCH   6  19
HETATM   19  C   LIG     1      42.219  -8.480  -5.392  1.00  0.00     0.198 C 
BRANCH  19  20
HETATM   20  O   LIG     1      41.040  -8.928  -6.048  1.00  0.00    -0.398 OA
HETATM   21  H   LIG     1      40.503  -8.144  -6.256  1.00  0.00     0.209 HD
ENDBRANCH  19  20
ENDBRANCH   6  19
BRANCH   1  22
HETATM   22  O   LIG     1      44.164  -7.004  -3.603  1.00  0.00    -0.390 OA
HETATM   23  H   LIG     1      45.069  -6.643  -3.680  1.00  0.00     0.210 HD
ENDBRANCH   1  22
TORSDOF 11
ENDMDL
MODEL 6
REMARK VINA RESULT:      -5.4      3.554      5.183
REMARK  11 active torsions:
REMARK  status: ('A' for Active; 'I' for Inactive)
REMARK    1  A    between atoms: C_1  and  O_7 
REMARK    2  A    between atoms: C_2  and  O_10 
REMARK    3  A    between atoms: C_3  and  O_11 
REMARK    4  A    between atoms: C_4  and  O_12 
REMARK    5  A    between atoms: C_6  and  C_8 
REMARK    6  A    between atoms: C_8  and  O_9 
REMARK    7  A    between atoms: O_12  and  C_13 
REMARK    8  A    between atoms: C_13  and  C_14 
REMARK    9  A    between atoms: C_15  and  C_16 
REMARK   10  A    between atoms: C_16  and  C_17 
REMARK   11  A    between atoms: C_17  and  C_18 
ROOT
HETATM    1  C   LIG     1      45.821  12.655   3.508  1.00  0.00     0.180 C 
HETATM    2  C   LIG     1      45.104  11.342   3.848  1.00  0.00     0.183 C 
HETATM    3  C   LIG     1      45.894  10.494   4.859  1.00  0.00     0.204 C 
HETATM    4  C   LIG     1      47.363  10.380   4.403  1.00  0.00     0.291 C 
HETATM    5  O   LIG     1      47.925  11.669   4.132  1.00  0.00    -0.348 OA
HETATM    6  C   LIG     1      47.253  12.331   3.056  1.00  0.00     0.179 C 
ENDROOT
BRANCH   4   7
HETATM    7  O   LIG     1      48.174   9.775   5.409  1.00  0.00    -0.355 OA
BRANCH   7   8
HETATM    8  C   LIG     1      49.557  10.010   5.173  1.00  0.00     0.198 C 
BRANCH   8   9
HETATM    9  C   LIG     1      50.232  10.315   6.475  1.00  0.00    -0.005 C 
HETATM   10  C   LIG     1      49.759  11.244   7.319  1.00  0.00    -0.029 C 
BRANCH  10  11
HETATM   11  C   LIG     1      50.378  11.582   8.646  1.00  0.00     0.027 C 
BRANCH  11  12
HETATM   12  C   LIG     1      50.157  13.060   8.984  1.00  0.00     0.003 C 
BRANCH  12  13
HETATM   13  C   LIG     1      49.194  13.241  10.154  1.00  0.00    -0.004 C 
HETATM   14  C   LIG     1      49.869  13.964  11.310  1.00  0.00     0.005 C 
ENDBRANCH  12  13
ENDBRANCH  11  12
ENDBRANCH  10  11
ENDBRANCH   8   9
ENDBRANCH   7   8
ENDBRANCH   4   7
BRANCH   3  15
HETATM   15  O   LIG     1      45.279   9.194   4.925  1.00  0.00    -0.388 OA
HETATM   16  H   LIG     1      44.346   9.330   4.661  1.00  0.00     0.210 HD
ENDBRANCH   3  15
BRANCH   2  17
HETATM   17  O   LIG     1      43.798  11.602   4.383  1.00  0.00    -0.390 OA
HETATM   18  H   LIG     1      43.902  12.383   4.968  1.00  0.00     0.210 HD
ENDBRANCH   2  17
BRANCH   6  19
HETATM   19  C   LIG     1      48.061  13.571   2.676  1.00  0.00     0.198 C 
BRANCH  19  20
HETATM   20  O   LIG     1      47.252  14.738   2.739  1.00  0.00    -0.398 OA
HETATM   21  H   LIG     1      46.778  14.722   3.589  1.00  0.00     0.209 HD
ENDBRANCH  19  20
ENDBRANCH   6  19
BRANCH   1  22
HETATM   22  O   LIG     1      45.804  13.473   4.691  1.00  0.00    -0.390 OA
HETATM   23  H   LIG     1      45.909  12.880   5.461  1.00  0.00     0.210 HD
ENDBRANCH   1  22
TORSDOF 11
ENDMDL
MODEL 7
REMARK VINA RESULT:      -5.4     15.594     18.370
REMARK  11 active torsions:
REMARK  status: ('A' for Active; 'I' for Inactive)
REMARK    1  A    between atoms: C_1  and  O_7 
REMARK    2  A    between atoms: C_2  and  O_10 
REMARK    3  A    between atoms: C_3  and  O_11 
REMARK    4  A    between atoms: C_4  and  O_12 
REMARK    5  A    between atoms: C_6  and  C_8 
REMARK    6  A    between atoms: C_8  and  O_9 
REMARK    7  A    between atoms: O_12  and  C_13 
REMARK    8  A    between atoms: C_13  and  C_14 
REMARK    9  A    between atoms: C_15  and  C_16 
REMARK   10  A    between atoms: C_16  and  C_17 
REMARK   11  A    between atoms: C_17  and  C_18 
ROOT
HETATM    1  C   LIG     1      28.427  15.997   1.353  1.00  0.00     0.180 C 
HETATM    2  C   LIG     1      29.771  16.146   2.077  1.00  0.00     0.183 C 
HETATM    3  C   LIG     1      29.797  17.367   3.011  1.00  0.00     0.204 C 
HETATM    4  C   LIG     1      29.279  18.608   2.255  1.00  0.00     0.291 C 
HETATM    5  O   LIG     1      28.012  18.350   1.638  1.00  0.00    -0.348 OA
HETATM    6  C   LIG     1      28.100  17.322   0.647  1.00  0.00     0.179 C 
ENDROOT
BRANCH   4   7
HETATM    7  O   LIG     1      29.094  19.714   3.137  1.00  0.00    -0.355 OA
BRANCH   7   8
HETATM    8  C   LIG     1      30.029  20.753   2.871  1.00  0.00     0.198 C 
BRANCH   8   9
HETATM    9  C   LIG     1      30.891  20.959   4.078  1.00  0.00    -0.005 C 
HETATM   10  C   LIG     1      32.227  21.034   3.993  1.00  0.00    -0.029 C 
BRANCH  10  11
HETATM   11  C   LIG     1      33.144  21.259   5.162  1.00  0.00     0.027 C 
BRANCH  11  12
HETATM   12  C   LIG     1      34.312  20.268   5.131  1.00  0.00     0.003 C 
BRANCH  12  13
HETATM   13  C   LIG     1      35.542  20.856   4.445  1.00  0.00    -0.004 C 
HETATM   14  C   LIG     1      36.133  19.873   3.445  1.00  0.00     0.005 C 
ENDBRANCH  12  13
ENDBRANCH  11  12
ENDBRANCH  10  11
ENDBRANCH   8   9
ENDBRANCH   7   8
ENDBRANCH   4   7
BRANCH   3  15
HETATM   15  O   LIG     1      31.154  17.566   3.447  1.00  0.00    -0.388 OA
HETATM   16  H   LIG     1      31.697  17.550   2.632  1.00  0.00     0.210 HD
ENDBRANCH   3  15
BRANCH   2  17
HETATM   17  O   LIG     1      30.066  14.970   2.845  1.00  0.00    -0.390 OA
HETATM   18  H   LIG     1      30.990  14.731   2.620  1.00  0.00     0.210 HD
ENDBRANCH   2  17
BRANCH   6  19
HETATM   19  C   LIG     1      26.780  17.284  -0.123  1.00  0.00     0.198 C 
BRANCH  19  20
HETATM   20  O   LIG     1      25.678  17.469   0.756  1.00  0.00    -0.398 OA
HETATM   21  H   LIG     1      25.964  17.200   1.646  1.00  0.00     0.209 HD
ENDBRANCH  19  20
ENDBRANCH   6  19
BRANCH   1  22
HETATM   22  O   LIG     1      27.440  15.659   2.344  1.00  0.00    -0.390 OA
HETATM   23  H   LIG     1      26.621  16.145   2.122  1.00  0.00     0.210 HD
ENDBRANCH   1  22
TORSDOF 11
ENDMDL
MODEL 8
REMARK VINA RESULT:      -5.4      2.297      3.365
REMARK  11 active torsions:
REMARK  status: ('A' for Active; 'I' for Inactive)
REMARK    1  A    between atoms: C_1  and  O_7 
REMARK    2  A    between atoms: C_2  and  O_10 
REMARK    3  A    between atoms: C_3  and  O_11 
REMARK    4  A    between atoms: C_4  and  O_12 
REMARK    5  A    between atoms: C_6  and  C_8 
REMARK    6  A    between atoms: C_8  and  O_9 
REMARK    7  A    between atoms: O_12  and  C_13 
REMARK    8  A    between atoms: C_13  and  C_14 
REMARK    9  A    between atoms: C_15  and  C_16 
REMARK   10  A    between atoms: C_16  and  C_17 
REMARK   11  A    between atoms: C_17  and  C_18 
ROOT
HETATM    1  C   LIG     1      41.540   5.877   0.844  1.00  0.00     0.180 C 
HETATM    2  C   LIG     1      42.518   4.699   0.756  1.00  0.00     0.183 C 
HETATM    3  C   LIG     1      43.681   4.833   1.754  1.00  0.00     0.204 C 
HETATM    4  C   LIG     1      44.291   6.246   1.651  1.00  0.00     0.291 C 
HETATM    5  O   LIG     1      43.283   7.257   1.764  1.00  0.00    -0.348 OA
HETATM    6  C   LIG     1      42.332   7.186   0.698  1.00  0.00     0.179 C 
ENDROOT
BRANCH   4   7
HETATM    7  O   LIG     1      45.236   6.481   2.695  1.00  0.00    -0.355 OA
BRANCH   7   8
HETATM    8  C   LIG     1      45.870   7.746   2.547  1.00  0.00     0.198 C 
BRANCH   8   9
HETATM    9  C   LIG     1      45.842   8.465   3.860  1.00  0.00    -0.005 C 
HETATM   10  C   LIG     1      46.655   9.498   4.122  1.00  0.00    -0.029 C 
BRANCH  10  11
HETATM   11  C   LIG     1      46.662  10.272   5.410  1.00  0.00     0.027 C 
BRANCH  11  12
HETATM   12  C   LIG     1      45.298  10.924   5.656  1.00  0.00     0.003 C 
BRANCH  12  13
HETATM   13  C   LIG     1      45.252  12.363   5.148  1.00  0.00    -0.004 C 
HETATM   14  C   LIG     1      44.388  12.475   3.901  1.00  0.00     0.005 C 
ENDBRANCH  12  13
ENDBRANCH  11  12
ENDBRANCH  10  11
ENDBRANCH   8   9
ENDBRANCH   7   8
ENDBRANCH   4   7
BRANCH   3  15
HETATM   15  O   LIG     1      44.662   3.830   1.431  1.00  0.00    -0.388 OA
HETATM   16  H   LIG     1      44.872   3.963   0.484  1.00  0.00     0.210 HD
ENDBRANCH   3  15
BRANCH   2  17
HETATM   17  O   LIG     1      41.840   3.458   1.000  1.00  0.00    -0.390 OA
HETATM   18  H   LIG     1      42.215   2.820   0.356  1.00  0.00     0.210 HD
ENDBRANCH   2  17
BRANCH   6  19
HETATM   19  C   LIG     1      41.451   8.433   0.757  1.00  0.00     0.198 C 
BRANCH  19  20
HETATM   20  O   LIG     1      40.978   8.654   2.080  1.00  0.00    -0.398 OA
HETATM   21  H   LIG     1      41.621   8.259   2.692  1.00  0.00     0.209 HD
ENDBRANCH  19  20
ENDBRANCH   6  19
BRANCH   1  22
HETATM   22  O   LIG     1      40.877   5.791   2.118  1.00  0.00    -0.390 OA
HETATM   23  H   LIG     1      40.066   6.335   2.066  1.00  0.00     0.210 HD
ENDBRANCH   1  22
TORSDOF 11
ENDMDL
MODEL 9
REMARK VINA RESULT:      -5.3      4.645      6.928
REMARK  11 active torsions:
REMARK  status: ('A' for Active; 'I' for Inactive)
REMARK    1  A    between atoms: C_1  and  O_7 
REMARK    2  A    between atoms: C_2  and  O_10 
REMARK    3  A    between atoms: C_3  and  O_11 
REMARK    4  A    between atoms: C_4  and  O_12 
REMARK    5  A    between atoms: C_6  and  C_8 
REMARK    6  A    between atoms: C_8  and  O_9 
REMARK    7  A    between atoms: O_12  and  C_13 
REMARK    8  A    between atoms: C_13  and  C_14 
REMARK    9  A    between atoms: C_15  and  C_16 
REMARK   10  A    between atoms: C_16  and  C_17 
REMARK   11  A    between atoms: C_17  and  C_18 
ROOT
HETATM    1  C   LIG     1      38.684   4.078   0.315  1.00  0.00     0.180 C 
HETATM    2  C   LIG     1      39.241   2.825   1.002  1.00  0.00     0.183 C 
HETATM    3  C   LIG     1      40.737   2.959   1.332  1.00  0.00     0.204 C 
HETATM    4  C   LIG     1      41.499   3.461   0.088  1.00  0.00     0.291 C 
HETATM    5  O   LIG     1      40.894   4.642  -0.451  1.00  0.00    -0.348 OA
HETATM    6  C   LIG     1      39.560   4.401  -0.905  1.00  0.00     0.179 C 
ENDROOT
BRANCH   4   7
HETATM    7  O   LIG     1      42.850   3.792   0.405  1.00  0.00    -0.355 OA
BRANCH   7   8
HETATM    8  C   LIG     1      42.924   4.628   1.554  1.00  0.00     0.198 C 
BRANCH   8   9
HETATM    9  C   LIG     1      44.147   5.487   1.457  1.00  0.00    -0.005 C 
HETATM   10  C   LIG     1      44.980   5.420   0.408  1.00  0.00    -0.029 C 
BRANCH  10  11
HETATM   11  C   LIG     1      46.210   6.267   0.242  1.00  0.00     0.027 C 
BRANCH  11  12
HETATM   12  C   LIG     1      46.700   6.781   1.600  1.00  0.00     0.003 C 
BRANCH  12  13
HETATM   13  C   LIG     1      46.579   8.298   1.716  1.00  0.00    -0.004 C 
HETATM   14  C   LIG     1      45.575   8.686   2.792  1.00  0.00     0.005 C 
ENDBRANCH  12  13
ENDBRANCH  11  12
ENDBRANCH  10  11
ENDBRANCH   8   9
ENDBRANCH   7   8
ENDBRANCH   4   7
BRANCH   3  15
HETATM   15  O   LIG     1      41.221   1.666   1.738  1.00  0.00    -0.388 OA
HETATM   16  H   LIG     1      40.449   1.066   1.682  1.00  0.00     0.210 HD
ENDBRANCH   3  15
BRANCH   2  17
HETATM   17  O   LIG     1      38.523   2.550   2.214  1.00  0.00    -0.390 OA
HETATM   18  H   LIG     1      37.843   3.253   2.284  1.00  0.00     0.210 HD
ENDBRANCH   2  17
BRANCH   6  19
HETATM   19  C   LIG     1      39.087   5.630  -1.679  1.00  0.00     0.198 C 
BRANCH  19  20
HETATM   20  O   LIG     1      39.713   6.808  -1.187  1.00  0.00    -0.398 OA
HETATM   21  H   LIG     1      40.675   6.684  -1.266  1.00  0.00     0.209 HD
ENDBRANCH  19  20
ENDBRANCH   6  19
BRANCH   1  22
HETATM   22  O   LIG     1      38.701   5.143   1.283  1.00  0.00    -0.390 OA
HETATM   23  H   LIG     1      38.009   4.950   1.946  1.00  0.00     0.210 HD
ENDBRANCH   1  22
TORSDOF 11
ENDMDL
