MODEL 1
REMARK VINA RESULT:      -5.7      0.000      0.000
REMARK  15 active torsions:
REMARK  status: ('A' for Active; 'I' for Inactive)
REMARK    1  A    between atoms: C_1  and  O_23 
REMARK    2  A    between atoms: C_2  and  O_9 
REMARK    3  A    between atoms: C_3  and  O_10 
REMARK    4  A    between atoms: C_4  and  O_11 
REMARK    5  A    between atoms: C_6  and  C_7 
REMARK    6  A    between atoms: C_7  and  O_8 
REMARK    7  A    between atoms: O_11  and  C_12 
REMARK    8  A    between atoms: C_12  and  C_13 
REMARK    9  A    between atoms: C_14  and  C_15 
REMARK   10  A    between atoms: C_15  and  C_16 
REMARK   11  A    between atoms: C_16  and  C_17 
REMARK   12  A    between atoms: C_17  and  C_18 
REMARK   13  A    between atoms: C_18  and  C_19 
REMARK   14  A    between atoms: C_19  and  C_20 
REMARK   15  A    between atoms: C_20  and  C_21 
ROOT
HETATM    1  C   LIG     1      42.559   6.810   1.100  1.00  0.00     0.180 C 
HETATM    2  C   LIG     1      42.185   8.117   1.814  1.00  0.00     0.183 C 
HETATM    3  C   LIG     1      43.230   9.189   1.533  1.00  0.00     0.204 C 
HETATM    4  C   LIG     1      44.606   8.665   1.981  1.00  0.00     0.291 C 
HETATM    5  O   LIG     1      44.930   7.502   1.206  1.00  0.00    -0.348 OA
HETATM    6  C   LIG     1      44.021   6.405   1.392  1.00  0.00     0.179 C 
ENDROOT
BRANCH   4   7
HETATM    7  O   LIG     1      44.655   8.337   3.374  1.00  0.00    -0.355 OA
BRANCH   7   8
HETATM    8  C   LIG     1      45.869   8.771   3.979  1.00  0.00     0.198 C 
BRANCH   8   9
HETATM    9  C   LIG     1      45.710  10.197   4.409  1.00  0.00    -0.005 C 
HETATM   10  C   LIG     1      45.210  10.538   5.606  1.00  0.00    -0.029 C 
BRANCH  10  11
HETATM   11  C   LIG     1      44.987  11.951   6.063  1.00  0.00     0.027 C 
BRANCH  11  12
HETATM   12  C   LIG     1      46.279  12.767   5.966  1.00  0.00     0.004 C 
BRANCH  12  13
HETATM   13  C   LIG     1      46.785  13.186   7.345  1.00  0.00     0.000 C 
BRANCH  13  14
HETATM   14  C   LIG     1      48.196  12.654   7.600  1.00  0.00     0.000 C 
BRANCH  14  15
HETATM   15  C   LIG     1      48.737  11.921   6.374  1.00  0.00     0.000 C 
BRANCH  15  16
HETATM   16  C   LIG     1      49.103  10.472   6.703  1.00  0.00    -0.000 C 
BRANCH  16  17
HETATM   17  C   LIG     1      50.064  10.405   7.888  1.00  0.00    -0.005 C 
HETATM   18  C   LIG     1      51.471  10.821   7.493  1.00  0.00     0.005 C 
ENDBRANCH  16  17
ENDBRANCH  15  16
ENDBRANCH  14  15
ENDBRANCH  13  14
ENDBRANCH  12  13
ENDBRANCH  11  12
ENDBRANCH  10  11
ENDBRANCH   8   9
ENDBRANCH   7   8
ENDBRANCH   4   7
BRANCH   3  19
HETATM   19  O   LIG     1      42.845  10.415   2.163  1.00  0.00    -0.388 OA
HETATM   20  H   LIG     1      43.680  10.917   2.269  1.00  0.00     0.210 HD
ENDBRANCH   3  19
BRANCH   2  21
HETATM   21  O   LIG     1      40.911   8.619   1.370  1.00  0.00    -0.390 OA
HETATM   22  H   LIG     1      40.467   7.898   0.882  1.00  0.00     0.210 HD
ENDBRANCH   2  21
BRANCH   6  23
HETATM   23  C   LIG     1      44.504   5.278   0.460  1.00  0.00     0.198 C 
BRANCH  23  24
HETATM   24  O   LIG     1      43.455   4.579  -0.192  1.00  0.00    -0.398 OA
HETATM   25  H   LIG     1      43.416   4.880  -1.114  1.00  0.00     0.209 HD
ENDBRANCH  23  24
ENDBRANCH   6  23
BRANCH   1  26
HETATM   26  O   LIG     1      41.610   5.807   1.480  1.00  0.00    -0.390 OA
HETATM   27  H   LIG     1      41.033   6.172   2.174  1.00  0.00     0.210 HD
ENDBRANCH   1  26
TORSDOF 15
ENDMDL
MODEL 2
REMARK VINA RESULT:      -5.4      4.927      7.314
REMARK  15 active torsions:
REMARK  status: ('A' for Active; 'I' for Inactive)
REMARK    1  A    between atoms: C_1  and  O_23 
REMARK    2  A    between atoms: C_2  and  O_9 
REMARK    3  A    between atoms: C_3  and  O_10 
REMARK    4  A    between atoms: C_4  and  O_11 
REMARK    5  A    between atoms: C_6  and  C_7 
REMARK    6  A    between atoms: C_7  and  O_8 
REMARK    7  A    between atoms: O_11  and  C_12 
REMARK    8  A    between atoms: C_12  and  C_13 
REMARK    9  A    between atoms: C_14  and  C_15 
REMARK   10  A    between atoms: C_15  and  C_16 
REMARK   11  A    between atoms: C_16  and  C_17 
REMARK   12  A    between atoms: C_17  and  C_18 
REMARK   13  A    between atoms: C_18  and  C_19 
REMARK   14  A    between atoms: C_19  and  C_20 
REMARK   15  A    between atoms: C_20  and  C_21 
ROOT
HETATM    1  C   LIG     1      42.334   7.120   1.552  1.00  0.00     0.180 C 
HETATM    2  C   LIG     1      42.746   5.657   1.336  1.00  0.00     0.183 C 
HETATM    3  C   LIG     1      44.233   5.481   1.616  1.00  0.00     0.204 C 
HETATM    4  C   LIG     1      45.022   6.438   0.704  1.00  0.00     0.291 C 
HETATM    5  O   LIG     1      44.657   7.787   1.029  1.00  0.00    -0.348 OA
HETATM    6  C   LIG     1      43.271   8.088   0.796  1.00  0.00     0.179 C 
ENDROOT
BRANCH   4   7
HETATM    7  O   LIG     1      44.790   6.205  -0.689  1.00  0.00    -0.355 OA
BRANCH   7   8
HETATM    8  C   LIG     1      45.979   5.801  -1.364  1.00  0.00     0.198 C 
BRANCH   8   9
HETATM    9  C   LIG     1      46.725   7.025  -1.799  1.00  0.00    -0.005 C 
HETATM   10  C   LIG     1      47.806   7.480  -1.149  1.00  0.00    -0.029 C 
BRANCH  10  11
HETATM   11  C   LIG     1      48.558   8.727  -1.517  1.00  0.00     0.027 C 
BRANCH  11  12
HETATM   12  C   LIG     1      49.761   8.933  -0.592  1.00  0.00     0.004 C 
BRANCH  12  13
HETATM   13  C   LIG     1      51.070   8.989  -1.378  1.00  0.00     0.000 C 
BRANCH  13  14
HETATM   14  C   LIG     1      52.105   8.026  -0.794  1.00  0.00     0.000 C 
BRANCH  14  15
HETATM   15  C   LIG     1      52.342   6.841  -1.730  1.00  0.00     0.000 C 
BRANCH  15  16
HETATM   16  C   LIG     1      51.674   7.057  -3.089  1.00  0.00    -0.000 C 
BRANCH  16  17
HETATM   17  C   LIG     1      50.600   6.002  -3.346  1.00  0.00    -0.005 C 
HETATM   18  C   LIG     1      50.175   5.980  -4.804  1.00  0.00     0.005 C 
ENDBRANCH  16  17
ENDBRANCH  15  16
ENDBRANCH  14  15
ENDBRANCH  13  14
ENDBRANCH  12  13
ENDBRANCH  11  12
ENDBRANCH  10  11
ENDBRANCH   8   9
ENDBRANCH   7   8
ENDBRANCH   4   7
BRANCH   3  19
HETATM   19  O   LIG     1      44.594   4.105   1.458  1.00  0.00    -0.388 OA
HETATM   20  H   LIG     1      43.926   3.608   1.975  1.00  0.00     0.210 HD
ENDBRANCH   3  19
BRANCH   2  21
HETATM   21  O   LIG     1      42.027   4.768   2.211  1.00  0.00    -0.390 OA
HETATM   22  H   LIG     1      41.204   5.223   2.477  1.00  0.00     0.210 HD
ENDBRANCH   2  21
BRANCH   6  23
HETATM   23  C   LIG     1      43.065   9.551   1.235  1.00  0.00     0.198 C 
BRANCH  23  24
HETATM   24  O   LIG     1      41.885   9.764   1.994  1.00  0.00    -0.398 OA
HETATM   25  H   LIG     1      41.187   9.190   1.639  1.00  0.00     0.209 HD
ENDBRANCH  23  24
ENDBRANCH   6  23
BRANCH   1  26
HETATM   26  O   LIG     1      40.960   7.257   1.175  1.00  0.00    -0.390 OA
HETATM   27  H   LIG     1      40.776   6.643   0.442  1.00  0.00     0.210 HD
ENDBRANCH   1  26
TORSDOF 15
ENDMDL
MODEL 3
REMARK VINA RESULT:      -5.3     11.287     15.469
REMARK  15 active torsions:
REMARK  status: ('A' for Active; 'I' for Inactive)
REMARK    1  A    between atoms: C_1  and  O_23 
REMARK    2  A    between atoms: C_2  and  O_9 
REMARK    3  A    between atoms: C_3  and  O_10 
REMARK    4  A    between atoms: C_4  and  O_11 
REMARK    5  A    between atoms: C_6  and  C_7 
REMARK    6  A    between atoms: C_7  and  O_8 
REMARK    7  A    between atoms: O_11  and  C_12 
REMARK    8  A    between atoms: C_12  and  C_13 
REMARK    9  A    between atoms: C_14  and  C_15 
REMARK   10  A    between atoms: C_15  and  C_16 
REMARK   11  A    between atoms: C_16  and  C_17 
REMARK   12  A    between atoms: C_17  and  C_18 
REMARK   13  A    between atoms: C_18  and  C_19 
REMARK   14  A    between atoms: C_19  and  C_20 
REMARK   15  A    between atoms: C_20  and  C_21 
ROOT
HETATM    1  C   LIG     1      43.665  -6.730  -3.513  1.00  0.00     0.180 C 
HETATM    2  C   LIG     1      43.220  -5.378  -4.088  1.00  0.00     0.183 C 
HETATM    3  C   LIG     1      42.696  -4.479  -2.975  1.00  0.00     0.204 C 
HETATM    4  C   LIG     1      41.542  -5.204  -2.258  1.00  0.00     0.291 C 
HETATM    5  O   LIG     1      42.052  -6.407  -1.667  1.00  0.00    -0.348 OA
HETATM    6  C   LIG     1      42.569  -7.352  -2.619  1.00  0.00     0.179 C 
ENDROOT
BRANCH   4   7
HETATM    7  O   LIG     1      40.455  -5.527  -3.132  1.00  0.00    -0.355 OA
BRANCH   7   8
HETATM    8  C   LIG     1      39.196  -5.175  -2.565  1.00  0.00     0.198 C 
BRANCH   8   9
HETATM    9  C   LIG     1      39.412  -4.097  -1.548  1.00  0.00    -0.005 C 
HETATM   10  C   LIG     1      38.631  -3.959  -0.467  1.00  0.00    -0.029 C 
BRANCH  10  11
HETATM   11  C   LIG     1      38.777  -2.867   0.554  1.00  0.00     0.027 C 
BRANCH  11  12
HETATM   12  C   LIG     1      40.247  -2.471   0.723  1.00  0.00     0.004 C 
BRANCH  12  13
HETATM   13  C   LIG     1      40.409  -0.958   0.865  1.00  0.00     0.000 C 
BRANCH  13  14
HETATM   14  C   LIG     1      40.269  -0.260  -0.489  1.00  0.00     0.000 C 
BRANCH  14  15
HETATM   15  C   LIG     1      39.613   1.111  -0.336  1.00  0.00     0.000 C 
BRANCH  15  16
HETATM   16  C   LIG     1      39.485   1.510   1.136  1.00  0.00    -0.000 C 
BRANCH  16  17
HETATM   17  C   LIG     1      39.482   3.029   1.294  1.00  0.00    -0.005 C 
HETATM   18  C   LIG     1      38.616   3.700   0.242  1.00  0.00     0.005 C 
ENDBRANCH  16  17
ENDBRANCH  15  16
ENDBRANCH  14  15
ENDBRANCH  13  14
ENDBRANCH  12  13
ENDBRANCH  11  12
ENDBRANCH  10  11
ENDBRANCH   8   9
ENDBRANCH   7   8
ENDBRANCH   4   7
BRANCH   3  19
HETATM   19  O   LIG     1      42.331  -3.205  -3.515  1.00  0.00    -0.388 OA
HETATM   20  H   LIG     1      42.746  -3.179  -4.403  1.00  0.00     0.210 HD
ENDBRANCH   3  19
BRANCH   2  21
HETATM   21  O   LIG     1      44.310  -4.690  -4.730  1.00  0.00    -0.390 OA
HETATM   22  H   LIG     1      45.134  -4.975  -4.291  1.00  0.00     0.210 HD
ENDBRANCH   2  21
BRANCH   6  23
HETATM   23  C   LIG     1      43.100  -8.545  -1.802  1.00  0.00     0.198 C 
BRANCH  23  24
HETATM   24  O   LIG     1      44.516  -8.615  -1.737  1.00  0.00    -0.398 OA
HETATM   25  H   LIG     1      44.879  -8.156  -2.511  1.00  0.00     0.209 HD
ENDBRANCH  23  24
ENDBRANCH   6  23
BRANCH   1  26
HETATM   26  O   LIG     1      44.046  -7.575  -4.605  1.00  0.00    -0.390 OA
HETATM   27  H   LIG     1      43.300  -8.162  -4.819  1.00  0.00     0.210 HD
ENDBRANCH   1  26
TORSDOF 15
ENDMDL
MODEL 4
REMARK VINA RESULT:      -5.2      1.520      3.577
REMARK  15 active torsions:
REMARK  status: ('A' for Active; 'I' for Inactive)
REMARK    1  A    between atoms: C_1  and  O_23 
REMARK    2  A    between atoms: C_2  and  O_9 
REMARK    3  A    between atoms: C_3  and  O_10 
REMARK    4  A    between atoms: C_4  and  O_11 
REMARK    5  A    between atoms: C_6  and  C_7 
REMARK    6  A    between atoms: C_7  and  O_8 
REMARK    7  A    between atoms: O_11  and  C_12 
REMARK    8  A    between atoms: C_12  and  C_13 
REMARK    9  A    between atoms: C_14  and  C_15 
REMARK   10  A    between atoms: C_15  and  C_16 
REMARK   11  A    between atoms: C_16  and  C_17 
REMARK   12  A    between atoms: C_17  and  C_18 
REMARK   13  A    between atoms: C_18  and  C_19 
REMARK   14  A    between atoms: C_19  and  C_20 
REMARK   15  A    between atoms: C_20  and  C_21 
ROOT
HETATM    1  C   LIG     1      41.559   6.131   0.768  1.00  0.00     0.180 C 
HETATM    2  C   LIG     1      42.557   4.997   0.498  1.00  0.00     0.183 C 
HETATM    3  C   LIG     1      43.620   4.959   1.589  1.00  0.00     0.204 C 
HETATM    4  C   LIG     1      44.315   6.331   1.647  1.00  0.00     0.291 C 
HETATM    5  O   LIG     1      43.341   7.325   1.997  1.00  0.00    -0.348 OA
HETATM    6  C   LIG     1      42.283   7.470   1.035  1.00  0.00     0.179 C 
ENDROOT
BRANCH   4   7
HETATM    7  O   LIG     1      44.943   6.695   0.413  1.00  0.00    -0.355 OA
BRANCH   7   8
HETATM    8  C   LIG     1      46.343   6.907   0.573  1.00  0.00     0.198 C 
BRANCH   8   9
HETATM    9  C   LIG     1      46.552   8.142   1.395  1.00  0.00    -0.005 C 
HETATM   10  C   LIG     1      47.237   8.134   2.547  1.00  0.00    -0.029 C 
BRANCH  10  11
HETATM   11  C   LIG     1      47.432   9.335   3.428  1.00  0.00     0.027 C 
BRANCH  11  12
HETATM   12  C   LIG     1      46.521   9.263   4.658  1.00  0.00     0.004 C 
BRANCH  12  13
HETATM   13  C   LIG     1      46.354  10.633   5.314  1.00  0.00     0.000 C 
BRANCH  13  14
HETATM   14  C   LIG     1      47.644  11.450   5.220  1.00  0.00     0.000 C 
BRANCH  14  15
HETATM   15  C   LIG     1      48.362  11.500   6.568  1.00  0.00     0.000 C 
BRANCH  15  16
HETATM   16  C   LIG     1      49.431  10.412   6.675  1.00  0.00    -0.000 C 
BRANCH  16  17
HETATM   17  C   LIG     1      50.259  10.579   7.948  1.00  0.00    -0.005 C 
HETATM   18  C   LIG     1      49.868  11.834   8.709  1.00  0.00     0.005 C 
ENDBRANCH  16  17
ENDBRANCH  15  16
ENDBRANCH  14  15
ENDBRANCH  13  14
ENDBRANCH  12  13
ENDBRANCH  11  12
ENDBRANCH  10  11
ENDBRANCH   8   9
ENDBRANCH   7   8
ENDBRANCH   4   7
BRANCH   3  19
HETATM   19  O   LIG     1      44.515   3.868   1.354  1.00  0.00    -0.388 OA
HETATM   20  H   LIG     1      44.182   3.141   1.921  1.00  0.00     0.210 HD
ENDBRANCH   3  19
BRANCH   2  21
HETATM   21  O   LIG     1      41.907   3.712   0.475  1.00  0.00    -0.390 OA
HETATM   22  H   LIG     1      42.403   3.123   1.075  1.00  0.00     0.210 HD
ENDBRANCH   2  21
BRANCH   6  23
HETATM   23  C   LIG     1      41.328   8.540   1.597  1.00  0.00     0.198 C 
BRANCH  23  24
HETATM   24  O   LIG     1      41.966   9.764   1.929  1.00  0.00    -0.398 OA
HETATM   25  H   LIG     1      41.478  10.172   2.661  1.00  0.00     0.209 HD
ENDBRANCH  23  24
ENDBRANCH   6  23
BRANCH   1  26
HETATM   26  O   LIG     1      40.648   6.195  -0.335  1.00  0.00    -0.390 OA
HETATM   27  H   LIG     1      40.665   5.342  -0.803  1.00  0.00     0.210 HD
ENDBRANCH   1  26
TORSDOF 15
ENDMDL
MODEL 5
REMARK VINA RESULT:      -5.2     15.800     19.252
REMARK  15 active torsions:
REMARK  status: ('A' for Active; 'I' for Inactive)
REMARK    1  A    between atoms: C_1  and  O_23 
REMARK    2  A    between atoms: C_2  and  O_9 
REMARK    3  A    between atoms: C_3  and  O_10 
REMARK    4  A    between atoms: C_4  and  O_11 
REMARK    5  A    between atoms: C_6  and  C_7 
REMARK    6  A    between atoms: C_7  and  O_8 
REMARK    7  A    between atoms: O_11  and  C_12 
REMARK    8  A    between atoms: C_12  and  C_13 
REMARK    9  A    between atoms: C_14  and  C_15 
REMARK   10  A    between atoms: C_15  and  C_16 
REMARK   11  A    between atoms: C_16  and  C_17 
REMARK   12  A    between atoms: C_17  and  C_18 
REMARK   13  A    between atoms: C_18  and  C_19 
REMARK   14  A    between atoms: C_19  and  C_20 
REMARK   15  A    between atoms: C_20  and  C_21 
ROOT
HETATM    1  C   LIG     1      43.459  -6.840  -3.834  1.00  0.00     0.180 C 
HETATM    2  C   LIG     1      43.029  -5.439  -4.291  1.00  0.00     0.183 C 
HETATM    3  C   LIG     1      43.147  -4.449  -3.140  1.00  0.00     0.204 C 
HETATM    4  C   LIG     1      42.291  -4.956  -1.964  1.00  0.00     0.291 C 
HETATM    5  O   LIG     1      42.810  -6.221  -1.530  1.00  0.00    -0.348 OA
HETATM    6  C   LIG     1      42.743  -7.253  -2.528  1.00  0.00     0.179 C 
ENDROOT
BRANCH   4   7
HETATM    7  O   LIG     1      40.907  -5.100  -2.300  1.00  0.00    -0.355 OA
BRANCH   7   8
HETATM    8  C   LIG     1      40.116  -4.050  -1.750  1.00  0.00     0.198 C 
BRANCH   8   9
HETATM    9  C   LIG     1      38.951  -4.653  -1.027  1.00  0.00    -0.005 C 
HETATM   10  C   LIG     1      38.388  -5.809  -1.404  1.00  0.00    -0.029 C 
BRANCH  10  11
HETATM   11  C   LIG     1      37.191  -6.429  -0.741  1.00  0.00     0.027 C 
BRANCH  11  12
HETATM   12  C   LIG     1      36.748  -7.693  -1.484  1.00  0.00     0.004 C 
BRANCH  12  13
HETATM   13  C   LIG     1      37.387  -7.783  -2.869  1.00  0.00     0.000 C 
BRANCH  13  14
HETATM   14  C   LIG     1      36.501  -8.573  -3.834  1.00  0.00     0.000 C 
BRANCH  14  15
HETATM   15  C   LIG     1      36.730  -8.131  -5.278  1.00  0.00     0.000 C 
BRANCH  15  16
HETATM   16  C   LIG     1      38.172  -7.670  -5.501  1.00  0.00    -0.000 C 
BRANCH  16  17
HETATM   17  C   LIG     1      38.764  -8.308  -6.756  1.00  0.00    -0.005 C 
HETATM   18  C   LIG     1      38.042  -7.849  -8.012  1.00  0.00     0.005 C 
ENDBRANCH  16  17
ENDBRANCH  15  16
ENDBRANCH  14  15
ENDBRANCH  13  14
ENDBRANCH  12  13
ENDBRANCH  11  12
ENDBRANCH  10  11
ENDBRANCH   8   9
ENDBRANCH   7   8
ENDBRANCH   4   7
BRANCH   3  19
HETATM   19  O   LIG     1      42.791  -3.139  -3.591  1.00  0.00    -0.388 OA
HETATM   20  H   LIG     1      42.585  -2.638  -2.774  1.00  0.00     0.210 HD
ENDBRANCH   3  19
BRANCH   2  21
HETATM   21  O   LIG     1      43.851  -4.957  -5.370  1.00  0.00    -0.390 OA
HETATM   22  H   LIG     1      44.112  -5.731  -5.906  1.00  0.00     0.210 HD
ENDBRANCH   2  21
BRANCH   6  23
HETATM   23  C   LIG     1      43.374  -8.509  -1.897  1.00  0.00     0.198 C 
BRANCH  23  24
HETATM   24  O   LIG     1      43.054  -8.687  -0.526  1.00  0.00    -0.398 OA
HETATM   25  H   LIG     1      43.246  -9.608  -0.287  1.00  0.00     0.209 HD
ENDBRANCH  23  24
ENDBRANCH   6  23
BRANCH   1  26
HETATM   26  O   LIG     1      43.229  -7.752  -4.914  1.00  0.00    -0.390 OA
HETATM   27  H   LIG     1      42.913  -7.248  -5.685  1.00  0.00     0.210 HD
ENDBRANCH   1  26
TORSDOF 15
ENDMDL
MODEL 6
REMARK VINA RESULT:      -5.2     16.157     19.193
REMARK  15 active torsions:
REMARK  status: ('A' for Active; 'I' for Inactive)
REMARK    1  A    between atoms: C_1  and  O_23 
REMARK    2  A    between atoms: C_2  and  O_9 
REMARK    3  A    between atoms: C_3  and  O_10 
REMARK    4  A    between atoms: C_4  and  O_11 
REMARK    5  A    between atoms: C_6  and  C_7 
REMARK    6  A    between atoms: C_7  and  O_8 
REMARK    7  A    between atoms: O_11  and  C_12 
REMARK    8  A    between atoms: C_12  and  C_13 
REMARK    9  A    between atoms: C_14  and  C_15 
REMARK   10  A    between atoms: C_15  and  C_16 
REMARK   11  A    between atoms: C_16  and  C_17 
REMARK   12  A    between atoms: C_17  and  C_18 
REMARK   13  A    between atoms: C_18  and  C_19 
REMARK   14  A    between atoms: C_19  and  C_20 
REMARK   15  A    between atoms: C_20  and  C_21 
ROOT
HETATM    1  C   LIG     1      43.265  -7.695  -1.062  1.00  0.00     0.180 C 
HETATM    2  C   LIG     1      42.316  -7.621  -2.266  1.00  0.00     0.183 C 
HETATM    3  C   LIG     1      42.510  -6.307  -3.012  1.00  0.00     0.204 C 
HETATM    4  C   LIG     1      42.279  -5.145  -2.029  1.00  0.00     0.291 C 
HETATM    5  O   LIG     1      43.260  -5.224  -0.985  1.00  0.00    -0.348 OA
HETATM    6  C   LIG     1      43.175  -6.420  -0.193  1.00  0.00     0.179 C 
ENDROOT
BRANCH   4   7
HETATM    7  O   LIG     1      40.969  -5.151  -1.451  1.00  0.00    -0.355 OA
BRANCH   7   8
HETATM    8  C   LIG     1      39.996  -4.602  -2.336  1.00  0.00     0.198 C 
BRANCH   8   9
HETATM    9  C   LIG     1      38.727  -5.385  -2.202  1.00  0.00    -0.005 C 
HETATM   10  C   LIG     1      38.670  -6.565  -1.568  1.00  0.00    -0.029 C 
BRANCH  10  11
HETATM   11  C   LIG     1      37.433  -7.409  -1.450  1.00  0.00     0.027 C 
BRANCH  11  12
HETATM   12  C   LIG     1      36.310  -6.636  -0.752  1.00  0.00     0.004 C 
BRANCH  12  13
HETATM   13  C   LIG     1      35.065  -6.536  -1.633  1.00  0.00     0.000 C 
BRANCH  13  14
HETATM   14  C   LIG     1      35.129  -5.306  -2.539  1.00  0.00     0.000 C 
BRANCH  14  15
HETATM   15  C   LIG     1      34.800  -5.671  -3.986  1.00  0.00     0.000 C 
BRANCH  15  16
HETATM   16  C   LIG     1      36.020  -6.238  -4.713  1.00  0.00    -0.000 C 
BRANCH  16  17
HETATM   17  C   LIG     1      35.787  -7.690  -5.128  1.00  0.00    -0.005 C 
HETATM   18  C   LIG     1      37.026  -8.540  -4.907  1.00  0.00     0.005 C 
ENDBRANCH  16  17
ENDBRANCH  15  16
ENDBRANCH  14  15
ENDBRANCH  13  14
ENDBRANCH  12  13
ENDBRANCH  11  12
ENDBRANCH  10  11
ENDBRANCH   8   9
ENDBRANCH   7   8
ENDBRANCH   4   7
BRANCH   3  19
HETATM   19  O   LIG     1      41.655  -6.272  -4.159  1.00  0.00    -0.388 OA
HETATM   20  H   LIG     1      41.357  -7.198  -4.280  1.00  0.00     0.210 HD
ENDBRANCH   3  19
BRANCH   2  21
HETATM   21  O   LIG     1      42.556  -8.693  -3.197  1.00  0.00    -0.390 OA
HETATM   22  H   LIG     1      41.813  -9.322  -3.117  1.00  0.00     0.210 HD
ENDBRANCH   2  21
BRANCH   6  23
HETATM   23  C   LIG     1      44.319  -6.342   0.835  1.00  0.00     0.198 C 
BRANCH  23  24
HETATM   24  O   LIG     1      44.220  -7.295   1.882  1.00  0.00    -0.398 OA
HETATM   25  H   LIG     1      43.999  -8.155   1.490  1.00  0.00     0.209 HD
ENDBRANCH  23  24
ENDBRANCH   6  23
BRANCH   1  26
HETATM   26  O   LIG     1      42.971  -8.893  -0.335  1.00  0.00    -0.390 OA
HETATM   27  H   LIG     1      42.821  -8.661   0.599  1.00  0.00     0.210 HD
ENDBRANCH   1  26
TORSDOF 15
ENDMDL
MODEL 7
REMARK VINA RESULT:      -5.2     22.704     24.176
REMARK  15 active torsions:
REMARK  status: ('A' for Active; 'I' for Inactive)
REMARK    1  A    between atoms: C_1  and  O_23 
REMARK    2  A    between atoms: C_2  and  O_9 
REMARK    3  A    between atoms: C_3  and  O_10 
REMARK    4  A    between atoms: C_4  and  O_11 
REMARK    5  A    between atoms: C_6  and  C_7 
REMARK    6  A    between atoms: C_7  and  O_8 
REMARK    7  A    between atoms: O_11  and  C_12 
REMARK    8  A    between atoms: C_12  and  C_13 
REMARK    9  A    between atoms: C_14  and  C_15 
REMARK   10  A    between atoms: C_15  and  C_16 
REMARK   11  A    between atoms: C_16  and  C_17 
REMARK   12  A    between atoms: C_17  and  C_18 
REMARK   13  A    between atoms: C_18  and  C_19 
REMARK   14  A    between atoms: C_19  and  C_20 
REMARK   15  A    between atoms: C_20  and  C_21 
ROOT
HETATM    1  C   LIG     1      36.920   1.329  23.916  1.00  0.00     0.180 C 
HETATM    2  C   LIG     1      35.654   2.045  23.425  1.00  0.00     0.183 C 
HETATM    3  C   LIG     1      35.947   3.517  23.166  1.00  0.00     0.204 C 
HETATM    4  C   LIG     1      36.495   4.146  24.460  1.00  0.00     0.291 C 
HETATM    5  O   LIG     1      37.725   3.492  24.803  1.00  0.00    -0.348 OA
HETATM    6  C   LIG     1      37.582   2.090  25.087  1.00  0.00     0.179 C 
ENDROOT
BRANCH   4   7
HETATM    7  O   LIG     1      35.583   4.051  25.559  1.00  0.00    -0.355 OA
BRANCH   7   8
HETATM    8  C   LIG     1      35.956   4.909  26.634  1.00  0.00     0.198 C 
BRANCH   8   9
HETATM    9  C   LIG     1      35.931   6.326  26.149  1.00  0.00    -0.005 C 
HETATM   10  C   LIG     1      36.393   7.348  26.883  1.00  0.00    -0.029 C 
BRANCH  10  11
HETATM   11  C   LIG     1      36.345   8.789  26.460  1.00  0.00     0.027 C 
BRANCH  11  12
HETATM   12  C   LIG     1      35.988   9.693  27.644  1.00  0.00     0.004 C 
BRANCH  12  13
HETATM   13  C   LIG     1      35.425  11.034  27.176  1.00  0.00     0.000 C 
BRANCH  13  14
HETATM   14  C   LIG     1      34.876  10.935  25.752  1.00  0.00     0.000 C 
BRANCH  14  15
HETATM   15  C   LIG     1      33.354  10.806  25.757  1.00  0.00     0.000 C 
BRANCH  15  16
HETATM   16  C   LIG     1      32.867   9.855  24.663  1.00  0.00    -0.000 C 
BRANCH  16  17
HETATM   17  C   LIG     1      31.826   8.879  25.207  1.00  0.00    -0.005 C 
HETATM   18  C   LIG     1      32.458   7.563  25.628  1.00  0.00     0.005 C 
ENDBRANCH  16  17
ENDBRANCH  15  16
ENDBRANCH  14  15
ENDBRANCH  13  14
ENDBRANCH  12  13
ENDBRANCH  11  12
ENDBRANCH  10  11
ENDBRANCH   8   9
ENDBRANCH   7   8
ENDBRANCH   4   7
BRANCH   3  19
HETATM   19  O   LIG     1      34.773   4.162  22.663  1.00  0.00    -0.388 OA
HETATM   20  H   LIG     1      34.640   3.782  21.769  1.00  0.00     0.210 HD
ENDBRANCH   3  19
BRANCH   2  21
HETATM   21  O   LIG     1      35.162   1.473  22.199  1.00  0.00    -0.390 OA
HETATM   22  H   LIG     1      34.646   0.678  22.434  1.00  0.00     0.210 HD
ENDBRANCH   2  21
BRANCH   6  23
HETATM   23  C   LIG     1      38.996   1.562  25.392  1.00  0.00     0.198 C 
BRANCH  23  24
HETATM   24  O   LIG     1      40.024   2.209  24.656  1.00  0.00    -0.398 OA
HETATM   25  H   LIG     1      40.389   1.573  24.020  1.00  0.00     0.209 HD
ENDBRANCH  23  24
ENDBRANCH   6  23
BRANCH   1  26
HETATM   26  O   LIG     1      36.570  -0.019  24.248  1.00  0.00    -0.390 OA
HETATM   27  H   LIG     1      35.682  -0.205  23.896  1.00  0.00     0.210 HD
ENDBRANCH   1  26
TORSDOF 15
ENDMDL
MODEL 8
REMARK VINA RESULT:      -5.1      2.045      3.568
REMARK  15 active torsions:
REMARK  status: ('A' for Active; 'I' for Inactive)
REMARK    1  A    between atoms: C_1  and  O_23 
REMARK    2  A    between atoms: C_2  and  O_9 
REMARK    3  A    between atoms: C_3  and  O_10 
REMARK    4  A    between atoms: C_4  and  O_11 
REMARK    5  A    between atoms: C_6  and  C_7 
REMARK    6  A    between atoms: C_7  and  O_8 
REMARK    7  A    between atoms: O_11  and  C_12 
REMARK    8  A    between atoms: C_12  and  C_13 
REMARK    9  A    between atoms: C_14  and  C_15 
REMARK   10  A    between atoms: C_15  and  C_16 
REMARK   11  A    between atoms: C_16  and  C_17 
REMARK   12  A    between atoms: C_17  and  C_18 
REMARK   13  A    between atoms: C_18  and  C_19 
REMARK   14  A    between atoms: C_19  and  C_20 
REMARK   15  A    between atoms: C_20  and  C_21 
ROOT
HETATM    1  C   LIG     1      42.763   6.776   1.278  1.00  0.00     0.180 C 
HETATM    2  C   LIG     1      42.290   8.107   1.881  1.00  0.00     0.183 C 
HETATM    3  C   LIG     1      43.294   9.211   1.574  1.00  0.00     0.204 C 
HETATM    4  C   LIG     1      44.670   8.792   2.122  1.00  0.00     0.291 C 
HETATM    5  O   LIG     1      45.089   7.598   1.446  1.00  0.00    -0.348 OA
HETATM    6  C   LIG     1      44.227   6.469   1.667  1.00  0.00     0.179 C 
ENDROOT
BRANCH   4   7
HETATM    7  O   LIG     1      44.665   8.562   3.535  1.00  0.00    -0.355 OA
BRANCH   7   8
HETATM    8  C   LIG     1      45.984   8.409   4.052  1.00  0.00     0.198 C 
BRANCH   8   9
HETATM    9  C   LIG     1      46.365   9.664   4.775  1.00  0.00    -0.005 C 
HETATM   10  C   LIG     1      45.462  10.456   5.372  1.00  0.00    -0.029 C 
BRANCH  10  11
HETATM   11  C   LIG     1      45.790  11.746   6.067  1.00  0.00     0.027 C 
BRANCH  11  12
HETATM   12  C   LIG     1      45.793  12.915   5.076  1.00  0.00     0.004 C 
BRANCH  12  13
HETATM   13  C   LIG     1      47.193  13.183   4.528  1.00  0.00     0.000 C 
BRANCH  13  14
HETATM   14  C   LIG     1      47.281  12.827   3.042  1.00  0.00     0.000 C 
BRANCH  14  15
HETATM   15  C   LIG     1      47.264  14.084   2.174  1.00  0.00     0.000 C 
BRANCH  15  16
HETATM   16  C   LIG     1      45.889  14.309   1.541  1.00  0.00    -0.000 C 
BRANCH  16  17
HETATM   17  C   LIG     1      45.113  12.998   1.432  1.00  0.00    -0.005 C 
HETATM   18  C   LIG     1      44.615  12.759   0.017  1.00  0.00     0.005 C 
ENDBRANCH  16  17
ENDBRANCH  15  16
ENDBRANCH  14  15
ENDBRANCH  13  14
ENDBRANCH  12  13
ENDBRANCH  11  12
ENDBRANCH  10  11
ENDBRANCH   8   9
ENDBRANCH   7   8
ENDBRANCH   4   7
BRANCH   3  19
HETATM   19  O   LIG     1      42.818  10.455   2.098  1.00  0.00    -0.388 OA
HETATM   20  H   LIG     1      43.021  10.419   3.056  1.00  0.00     0.210 HD
ENDBRANCH   3  19
BRANCH   2  21
HETATM   21  O   LIG     1      41.017   8.509   1.343  1.00  0.00    -0.390 OA
HETATM   22  H   LIG     1      40.854   9.427   1.634  1.00  0.00     0.210 HD
ENDBRANCH   2  21
BRANCH   6  23
HETATM   23  C   LIG     1      44.812   5.308   0.839  1.00  0.00     0.198 C 
BRANCH  23  24
HETATM   24  O   LIG     1      44.453   4.021   1.318  1.00  0.00    -0.398 OA
HETATM   25  H   LIG     1      45.087   3.766   2.007  1.00  0.00     0.209 HD
ENDBRANCH  23  24
ENDBRANCH   6  23
BRANCH   1  26
HETATM   26  O   LIG     1      41.848   5.752   1.683  1.00  0.00    -0.390 OA
HETATM   27  H   LIG     1      41.145   6.158   2.220  1.00  0.00     0.210 HD
ENDBRANCH   1  26
TORSDOF 15
ENDMDL
MODEL 9
REMARK VINA RESULT:      -5.1     13.442     16.553
REMARK  15 active torsions:
REMARK  status: ('A' for Active; 'I' for Inactive)
REMARK    1  A    between atoms: C_1  and  O_23 
REMARK    2  A    between atoms: C_2  and  O_9 
REMARK    3  A    between atoms: C_3  and  O_10 
REMARK    4  A    between atoms: C_4  and  O_11 
REMARK    5  A    between atoms: C_6  and  C_7 
REMARK    6  A    between atoms: C_7  and  O_8 
REMARK    7  A    between atoms: O_11  and  C_12 
REMARK    8  A    between atoms: C_12  and  C_13 
REMARK    9  A    between atoms: C_14  and  C_15 
REMARK   10  A    between atoms: C_15  and  C_16 
REMARK   11  A    between atoms: C_16  and  C_17 
REMARK   12  A    between atoms: C_17  and  C_18 
REMARK   13  A    between atoms: C_18  and  C_19 
REMARK   14  A    between atoms: C_19  and  C_20 
REMARK   15  A    between atoms: C_20  and  C_21 
ROOT
HETATM    1  C   LIG     1      43.613  -6.935  -3.661  1.00  0.00     0.180 C 
HETATM    2  C   LIG     1      42.994  -5.758  -4.428  1.00  0.00     0.183 C 
HETATM    3  C   LIG     1      42.308  -4.801  -3.462  1.00  0.00     0.204 C 
HETATM    4  C   LIG     1      41.249  -5.583  -2.663  1.00  0.00     0.291 C 
HETATM    5  O   LIG     1      41.910  -6.602  -1.900  1.00  0.00    -0.348 OA
HETATM    6  C   LIG     1      42.591  -7.583  -2.700  1.00  0.00     0.179 C 
ENDROOT
BRANCH   4   7
HETATM    7  O   LIG     1      40.251  -6.185  -3.495  1.00  0.00    -0.355 OA
BRANCH   7   8
HETATM    8  C   LIG     1      38.935  -5.926  -3.015  1.00  0.00     0.198 C 
BRANCH   8   9
HETATM    9  C   LIG     1      38.791  -4.454  -2.775  1.00  0.00    -0.005 C 
HETATM   10  C   LIG     1      37.597  -3.858  -2.645  1.00  0.00    -0.029 C 
BRANCH  10  11
HETATM   11  C   LIG     1      37.401  -2.381  -2.452  1.00  0.00     0.027 C 
BRANCH  11  12
HETATM   12  C   LIG     1      38.224  -1.583  -3.469  1.00  0.00     0.004 C 
BRANCH  12  13
HETATM   13  C   LIG     1      39.030  -0.475  -2.793  1.00  0.00     0.000 C 
BRANCH  13  14
HETATM   14  C   LIG     1      39.971  -1.048  -1.731  1.00  0.00     0.000 C 
BRANCH  14  15
HETATM   15  C   LIG     1      39.857  -0.272  -0.420  1.00  0.00     0.000 C 
BRANCH  15  16
HETATM   16  C   LIG     1      40.026  -1.190   0.792  1.00  0.00    -0.000 C 
BRANCH  16  17
HETATM   17  C   LIG     1      39.941  -2.659   0.384  1.00  0.00    -0.005 C 
HETATM   18  C   LIG     1      38.762  -3.355   1.044  1.00  0.00     0.005 C 
ENDBRANCH  16  17
ENDBRANCH  15  16
ENDBRANCH  14  15
ENDBRANCH  13  14
ENDBRANCH  12  13
ENDBRANCH  11  12
ENDBRANCH  10  11
ENDBRANCH   8   9
ENDBRANCH   7   8
ENDBRANCH   4   7
BRANCH   3  19
HETATM   19  O   LIG     1      41.778  -3.684  -4.183  1.00  0.00    -0.388 OA
HETATM   20  H   LIG     1      40.980  -3.416  -3.682  1.00  0.00     0.210 HD
ENDBRANCH   3  19
BRANCH   2  21
HETATM   21  O   LIG     1      43.992  -5.012  -5.150  1.00  0.00    -0.390 OA
HETATM   22  H   LIG     1      44.850  -5.174  -4.712  1.00  0.00     0.210 HD
ENDBRANCH   2  21
BRANCH   6  23
HETATM   23  C   LIG     1      43.263  -8.557  -1.714  1.00  0.00     0.198 C 
BRANCH  23  24
HETATM   24  O   LIG     1      44.682  -8.546  -1.770  1.00  0.00    -0.398 OA
HETATM   25  H   LIG     1      44.967  -7.669  -2.071  1.00  0.00     0.209 HD
ENDBRANCH  23  24
ENDBRANCH   6  23
BRANCH   1  26
HETATM   26  O   LIG     1      44.150  -7.857  -4.616  1.00  0.00    -0.390 OA
HETATM   27  H   LIG     1      43.413  -8.248  -5.118  1.00  0.00     0.210 HD
ENDBRANCH   1  26
TORSDOF 15
ENDMDL
