MODEL 1
REMARK VINA RESULT:      -8.8      0.000      0.000
REMARK  19 active torsions:
REMARK  status: ('A' for Active; 'I' for Inactive)
REMARK    1  A    between atoms: C_1  and  C_3 
REMARK    2  A    between atoms: C_1  and  O_13 
REMARK    3  A    between atoms: O_2  and  C_3 
REMARK    4  A    between atoms: C_3  and  C_11 
REMARK    5  A    between atoms: O_4  and  C_5 
REMARK    6  A    between atoms: O_6  and  C_7 
REMARK    7  A    between atoms: O_8  and  C_9 
REMARK    8  A    between atoms: C_12  and  O_40 
REMARK    9  A    between atoms: C_22  and  N_23 
REMARK   10  A    between atoms: C_24  and  O_25 
REMARK   11  A    between atoms: C_26  and  O_27 
REMARK   12  A    between atoms: C_28  and  C_31 
REMARK   13  A    between atoms: C_31  and  O_32 
REMARK   14  A    between atoms: O_32  and  P_33 
REMARK   15  A    between atoms: P_33  and  O_35 
REMARK   16  A    between atoms: P_33  and  O_36 
REMARK   17  A    between atoms: O_36  and  P_37 
REMARK   18  A    between atoms: P_37  and  O_40 
REMARK   19  A    between atoms: P_37  and  O_39 
ROOT
HETATM    1  P           1      44.099   7.917   1.800  0.00  0.00     0.401 P 
HETATM    2  O           1      44.434   8.491   0.471  0.00  0.00    -0.631 OA
ENDROOT
BRANCH   1   3
HETATM    3  O           1      44.516   9.064   2.915  0.00  0.00    -0.294 OA
BRANCH   3   4
HETATM    4  C           1      45.477   8.757   3.893  0.00  0.00     0.215 C 
BRANCH   4   5
HETATM    5  C           1      45.577   9.917   4.876  0.00  0.00     0.180 C 
HETATM    6  C           1      45.201  11.279   4.297  0.00  0.00     0.182 C 
HETATM    7  C           1      46.412  12.144   4.591  0.00  0.00     0.198 C 
HETATM    8  C           1      47.106  11.369   5.694  0.00  0.00     0.262 C 
HETATM    9  N           1      48.534  11.672   5.859  0.00  0.00    -0.294 N 
HETATM   10  O           1      46.892  10.020   5.348  0.00  0.00    -0.353 OA
HETATM   11  C           1      49.413  11.429   4.982  0.00  0.00     0.214 A 
HETATM   12  C           1      49.035  12.191   6.896  0.00  0.00     0.167 A 
HETATM   13  N           1      50.547  11.782   5.416  0.00  0.00    -0.236 NA
HETATM   14  C           1      50.341  12.248   6.578  0.00  0.00     0.149 A 
HETATM   15  C           1      51.209  12.753   7.471  0.00  0.00     0.155 A 
HETATM   16  N           1      50.747  13.154   8.583  0.00  0.00    -0.222 NA
HETATM   17  C           1      49.499  13.061   8.791  0.00  0.00     0.237 A 
HETATM   18  N           1      48.612  12.601   8.012  0.00  0.00    -0.222 NA
BRANCH   6  19
HETATM   19  O           1      44.091  11.811   4.981  0.00  0.00    -0.390 OA
HETATM   20  H           1      43.477  12.219   4.367  0.00  0.00     0.210 HD
ENDBRANCH   6  19
BRANCH   7  21
HETATM   21  O           1      46.037  13.435   5.011  0.00  0.00    -0.388 OA
HETATM   22  H           1      45.853  13.419   5.953  0.00  0.00     0.210 HD
ENDBRANCH   7  21
BRANCH  15  23
HETATM   23  N           1      52.438  12.807   7.166  0.00  0.00    -0.382 N 
HETATM   24  H           1      52.764  13.458   6.412  0.00  0.00     0.157 HD
HETATM   25  H           1      53.134  12.201   7.666  0.00  0.00     0.157 HD
ENDBRANCH  15  23
ENDBRANCH   4   5
ENDBRANCH   3   4
ENDBRANCH   1   3
BRANCH   1  26
HETATM   26  O           1      42.518   8.157   2.078  0.00  0.00    -0.307 OA
HETATM   27  H           1      42.159   7.419   2.537  0.00  0.00     0.222 HD
ENDBRANCH   1  26
BRANCH   1  28
HETATM   28  O           1      44.745   6.496   2.100  0.00  0.00    -0.195 OA
BRANCH  28  29
HETATM   29  P           1      44.587   5.360   0.994  0.00  0.00     0.404 P 
HETATM   30  O           1      45.741   5.295   0.057  0.00  0.00    -0.631 OA
BRANCH  29  31
HETATM   31  O           1      43.170   5.096   0.224  0.00  0.00    -0.263 OA
BRANCH  31  32
HETATM   32  C           1      42.055   4.567   0.914  0.00  0.00     0.303 C 
HETATM   33  C           1      40.789   5.211   0.389  0.00  0.00     0.205 C 
HETATM   34  C           1      39.593   4.551   1.050  0.00  0.00     0.183 C 
HETATM   35  C           1      39.677   3.074   0.727  0.00  0.00     0.181 C 
HETATM   36  C           1      41.001   2.505   1.235  0.00  0.00     0.186 C 
HETATM   37  O           1      42.062   3.184   0.615  0.00  0.00    -0.347 OA
BRANCH  33  38
HETATM   38  O           1      40.779   6.579   0.712  0.00  0.00    -0.388 OA
HETATM   39  H           1      41.681   6.907   0.668  0.00  0.00     0.210 HD
ENDBRANCH  33  38
BRANCH  34  40
HETATM   40  O           1      38.396   5.097   0.551  0.00  0.00    -0.390 OA
HETATM   41  H           1      38.431   5.132  -0.409  0.00  0.00     0.210 HD
ENDBRANCH  34  40
BRANCH  35  42
HETATM   42  O           1      38.582   2.411   1.303  0.00  0.00    -0.390 OA
HETATM   43  H           1      38.595   2.587   2.248  0.00  0.00     0.210 HD
ENDBRANCH  35  42
BRANCH  36  44
HETATM   44  C           1      41.115   0.998   1.001  0.00  0.00     0.173 C 
BRANCH  44  45
HETATM   45  C           1      40.842   0.554  -0.425  0.00  0.00     0.198 C 
BRANCH  45  46
HETATM   46  O           1      42.013   0.648  -1.207  0.00  0.00    -0.398 OA
HETATM   47  H           1      42.125  -0.162  -1.709  0.00  0.00     0.209 HD
ENDBRANCH  45  46
ENDBRANCH  44  45
BRANCH  44  48
HETATM   48  O           1      40.236   0.302   1.853  0.00  0.00    -0.391 OA
HETATM   49  H           1      39.362   0.293   1.453  0.00  0.00     0.210 HD
ENDBRANCH  44  48
ENDBRANCH  36  44
ENDBRANCH  31  32
ENDBRANCH  29  31
BRANCH  29  50
HETATM   50  O           1      44.549   3.878   1.692  0.00  0.00    -0.307 OA
HETATM   51  H           1      45.055   3.278   1.171  0.00  0.00     0.222 HD
ENDBRANCH  29  50
ENDBRANCH  28  29
ENDBRANCH   1  28
TORSDOF 19
ENDMDL
MODEL 2
REMARK VINA RESULT:      -8.4      1.350      1.607
REMARK  19 active torsions:
REMARK  status: ('A' for Active; 'I' for Inactive)
REMARK    1  A    between atoms: C_1  and  C_3 
REMARK    2  A    between atoms: C_1  and  O_13 
REMARK    3  A    between atoms: O_2  and  C_3 
REMARK    4  A    between atoms: C_3  and  C_11 
REMARK    5  A    between atoms: O_4  and  C_5 
REMARK    6  A    between atoms: O_6  and  C_7 
REMARK    7  A    between atoms: O_8  and  C_9 
REMARK    8  A    between atoms: C_12  and  O_40 
REMARK    9  A    between atoms: C_22  and  N_23 
REMARK   10  A    between atoms: C_24  and  O_25 
REMARK   11  A    between atoms: C_26  and  O_27 
REMARK   12  A    between atoms: C_28  and  C_31 
REMARK   13  A    between atoms: C_31  and  O_32 
REMARK   14  A    between atoms: O_32  and  P_33 
REMARK   15  A    between atoms: P_33  and  O_35 
REMARK   16  A    between atoms: P_33  and  O_36 
REMARK   17  A    between atoms: O_36  and  P_37 
REMARK   18  A    between atoms: P_37  and  O_40 
REMARK   19  A    between atoms: P_37  and  O_39 
ROOT
HETATM    1  P           1      44.909   7.943   2.085  0.00  0.00     0.401 P 
HETATM    2  O           1      43.472   7.922   2.465  0.00  0.00    -0.631 OA
ENDROOT
BRANCH   1   3
HETATM    3  O           1      45.412   9.507   2.271  0.00  0.00    -0.294 OA
BRANCH   3   4
HETATM    4  C           1      44.455  10.532   2.361  0.00  0.00     0.215 C 
BRANCH   4   5
HETATM    5  C           1      45.007  11.655   3.231  0.00  0.00     0.180 C 
HETATM    6  C           1      45.866  12.675   2.488  0.00  0.00     0.182 C 
HETATM    7  C           1      47.167  12.690   3.270  0.00  0.00     0.198 C 
HETATM    8  C           1      46.754  12.089   4.600  0.00  0.00     0.262 C 
HETATM    9  N           1      47.855  11.521   5.389  0.00  0.00    -0.294 N 
HETATM   10  O           1      45.801  11.113   4.250  0.00  0.00    -0.353 OA
HETATM   11  C           1      48.543  10.525   5.026  0.00  0.00     0.214 A 
HETATM   12  C           1      48.218  11.956   6.518  0.00  0.00     0.167 A 
HETATM   13  N           1      49.400  10.258   5.918  0.00  0.00    -0.236 NA
HETATM   14  C           1      49.220  11.117   6.835  0.00  0.00     0.149 A 
HETATM   15  C           1      49.861  11.276   8.004  0.00  0.00     0.155 A 
HETATM   16  N           1      49.483  12.222   8.762  0.00  0.00    -0.222 NA
HETATM   17  C           1      48.529  12.964   8.376  0.00  0.00     0.237 A 
HETATM   18  N           1      47.870  12.887   7.297  0.00  0.00    -0.222 NA
BRANCH   6  19
HETATM   19  O           1      45.282  13.954   2.562  0.00  0.00    -0.390 OA
HETATM   20  H           1      45.938  14.636   2.404  0.00  0.00     0.210 HD
ENDBRANCH   6  19
BRANCH   7  21
HETATM   21  O           1      47.668  13.998   3.416  0.00  0.00    -0.388 OA
HETATM   22  H           1      48.491  13.967   3.911  0.00  0.00     0.210 HD
ENDBRANCH   7  21
BRANCH  15  23
HETATM   23  N           1      50.806  10.484   8.297  0.00  0.00    -0.382 N 
HETATM   24  H           1      50.766   9.482   7.991  0.00  0.00     0.157 HD
HETATM   25  H           1      51.632  10.827   8.847  0.00  0.00     0.157 HD
ENDBRANCH  15  23
ENDBRANCH   4   5
ENDBRANCH   3   4
ENDBRANCH   1   3
BRANCH   1  26
HETATM   26  O           1      45.784   7.462   3.365  0.00  0.00    -0.307 OA
HETATM   27  H           1      45.305   7.622   4.158  0.00  0.00     0.222 HD
ENDBRANCH   1  26
BRANCH   1  28
HETATM   28  O           1      45.232   7.355   0.645  0.00  0.00    -0.195 OA
BRANCH  28  29
HETATM   29  P           1      44.822   5.843   0.351  0.00  0.00     0.404 P 
HETATM   30  O           1      45.838   5.109  -0.450  0.00  0.00    -0.631 OA
BRANCH  29  31
HETATM   31  O           1      43.301   5.430  -0.081  0.00  0.00    -0.263 OA
BRANCH  31  32
HETATM   32  C           1      42.403   4.877   0.859  0.00  0.00     0.303 C 
HETATM   33  C           1      41.067   5.581   0.752  0.00  0.00     0.205 C 
HETATM   34  C           1      40.077   4.901   1.679  0.00  0.00     0.183 C 
HETATM   35  C           1      40.011   3.449   1.255  0.00  0.00     0.181 C 
HETATM   36  C           1      41.399   2.819   1.334  0.00  0.00     0.186 C 
HETATM   37  O           1      42.272   3.518   0.485  0.00  0.00    -0.347 OA
BRANCH  33  38
HETATM   38  O           1      41.201   6.923   1.149  0.00  0.00    -0.388 OA
HETATM   39  H           1      41.016   7.483   0.390  0.00  0.00     0.210 HD
ENDBRANCH  33  38
BRANCH  34  40
HETATM   40  O           1      38.811   5.505   1.572  0.00  0.00    -0.390 OA
HETATM   41  H           1      38.518   5.481   0.657  0.00  0.00     0.210 HD
ENDBRANCH  34  40
BRANCH  35  42
HETATM   42  O           1      39.094   2.769   2.073  0.00  0.00    -0.390 OA
HETATM   43  H           1      39.593   2.192   2.657  0.00  0.00     0.210 HD
ENDBRANCH  35  42
BRANCH  36  44
HETATM   44  C           1      41.385   1.330   0.984  0.00  0.00     0.173 C 
BRANCH  44  45
HETATM   45  C           1      40.809   1.004  -0.381  0.00  0.00     0.198 C 
BRANCH  45  46
HETATM   46  O           1      41.811   0.491  -1.233  0.00  0.00    -0.398 OA
HETATM   47  H           1      41.437  -0.201  -1.783  0.00  0.00     0.209 HD
ENDBRANCH  45  46
ENDBRANCH  44  45
BRANCH  44  48
HETATM   48  O           1      40.658   0.607   1.950  0.00  0.00    -0.391 OA
HETATM   49  H           1      40.099   1.219   2.437  0.00  0.00     0.210 HD
ENDBRANCH  44  48
ENDBRANCH  36  44
ENDBRANCH  31  32
ENDBRANCH  29  31
BRANCH  29  50
HETATM   50  O           1      44.717   4.993   1.748  0.00  0.00    -0.307 OA
HETATM   51  H           1      44.630   5.592   2.469  0.00  0.00     0.222 HD
ENDBRANCH  29  50
ENDBRANCH  28  29
ENDBRANCH   1  28
TORSDOF 19
ENDMDL
MODEL 3
REMARK VINA RESULT:      -8.2      9.728     15.571
REMARK  19 active torsions:
REMARK  status: ('A' for Active; 'I' for Inactive)
REMARK    1  A    between atoms: C_1  and  C_3 
REMARK    2  A    between atoms: C_1  and  O_13 
REMARK    3  A    between atoms: O_2  and  C_3 
REMARK    4  A    between atoms: C_3  and  C_11 
REMARK    5  A    between atoms: O_4  and  C_5 
REMARK    6  A    between atoms: O_6  and  C_7 
REMARK    7  A    between atoms: O_8  and  C_9 
REMARK    8  A    between atoms: C_12  and  O_40 
REMARK    9  A    between atoms: C_22  and  N_23 
REMARK   10  A    between atoms: C_24  and  O_25 
REMARK   11  A    between atoms: C_26  and  O_27 
REMARK   12  A    between atoms: C_28  and  C_31 
REMARK   13  A    between atoms: C_31  and  O_32 
REMARK   14  A    between atoms: O_32  and  P_33 
REMARK   15  A    between atoms: P_33  and  O_35 
REMARK   16  A    between atoms: P_33  and  O_36 
REMARK   17  A    between atoms: O_36  and  P_37 
REMARK   18  A    between atoms: P_37  and  O_40 
REMARK   19  A    between atoms: P_37  and  O_39 
ROOT
HETATM    1  P           1      39.935  -0.578  -1.808  0.00  0.00     0.401 P 
HETATM    2  O           1      39.034  -0.609  -2.991  0.00  0.00    -0.631 OA
ENDROOT
BRANCH   1   3
HETATM    3  O           1      39.968  -2.120  -1.215  0.00  0.00    -0.294 OA
BRANCH   3   4
HETATM    4  C           1      38.773  -2.716  -0.778  0.00  0.00     0.215 C 
BRANCH   4   5
HETATM    5  C           1      38.509  -3.969  -1.605  0.00  0.00     0.180 C 
HETATM    6  C           1      38.031  -5.175  -0.801  0.00  0.00     0.182 C 
HETATM    7  C           1      39.017  -6.269  -1.170  0.00  0.00     0.198 C 
HETATM    8  C           1      39.615  -5.745  -2.462  0.00  0.00     0.262 C 
HETATM    9  N           1      40.923  -6.314  -2.812  0.00  0.00    -0.294 N 
HETATM   10  O           1      39.684  -4.352  -2.264  0.00  0.00    -0.353 OA
HETATM   11  C           1      41.973  -6.145  -2.127  0.00  0.00     0.214 A 
HETATM   12  C           1      41.141  -7.015  -3.840  0.00  0.00     0.167 A 
HETATM   13  N           1      42.940  -6.736  -2.688  0.00  0.00    -0.236 NA
HETATM   14  C           1      42.456  -7.273  -3.731  0.00  0.00     0.149 A 
HETATM   15  C           1      43.058  -8.012  -4.678  0.00  0.00     0.155 A 
HETATM   16  N           1      42.346  -8.434  -5.640  0.00  0.00    -0.222 NA
HETATM   17  C           1      41.111  -8.141  -5.655  0.00  0.00     0.237 A 
HETATM   18  N           1      40.464  -7.453  -4.811  0.00  0.00    -0.222 NA
BRANCH   6  19
HETATM   19  O           1      36.746  -5.567  -1.223  0.00  0.00    -0.390 OA
HETATM   20  H           1      36.473  -5.065  -1.994  0.00  0.00     0.210 HD
ENDBRANCH   6  19
BRANCH   7  21
HETATM   21  O           1      38.372  -7.507  -1.353  0.00  0.00    -0.388 OA
HETATM   22  H           1      37.563  -7.520  -0.836  0.00  0.00     0.210 HD
ENDBRANCH   7  21
BRANCH  15  23
HETATM   23  N           1      44.298  -8.254  -4.570  0.00  0.00    -0.382 N 
HETATM   24  H           1      44.669  -9.206  -4.804  0.00  0.00     0.157 HD
HETATM   25  H           1      44.956  -7.504  -4.245  0.00  0.00     0.157 HD
ENDBRANCH  15  23
ENDBRANCH   4   5
ENDBRANCH   3   4
ENDBRANCH   1   3
BRANCH   1  26
HETATM   26  O           1      41.468  -0.696  -2.329  0.00  0.00    -0.307 OA
HETATM   27  H           1      41.884   0.146  -2.290  0.00  0.00     0.222 HD
ENDBRANCH   1  26
BRANCH   1  28
HETATM   28  O           1      39.559   0.504  -0.706  0.00  0.00    -0.195 OA
BRANCH  28  29
HETATM   29  P           1      40.320   0.436   0.692  0.00  0.00     0.404 P 
HETATM   30  O           1      39.526  -0.238   1.754  0.00  0.00    -0.631 OA
BRANCH  29  31
HETATM   31  O           1      41.157   1.709   1.281  0.00  0.00    -0.263 OA
BRANCH  31  32
HETATM   32  C           1      40.994   3.002   0.736  0.00  0.00     0.303 C 
HETATM   33  C           1      40.320   3.896   1.756  0.00  0.00     0.205 C 
HETATM   34  C           1      40.257   5.309   1.206  0.00  0.00     0.183 C 
HETATM   35  C           1      41.683   5.725   0.913  0.00  0.00     0.181 C 
HETATM   36  C           1      42.318   4.750  -0.077  0.00  0.00     0.186 C 
HETATM   37  O           1      42.308   3.460   0.476  0.00  0.00    -0.347 OA
BRANCH  33  38
HETATM   38  O           1      39.007   3.450   1.989  0.00  0.00    -0.388 OA
HETATM   39  H           1      38.544   3.421   1.147  0.00  0.00     0.210 HD
ENDBRANCH  33  38
BRANCH  34  40
HETATM   40  O           1      39.675   6.175   2.148  0.00  0.00    -0.390 OA
HETATM   41  H           1      39.887   5.878   3.037  0.00  0.00     0.210 HD
ENDBRANCH  34  40
BRANCH  35  42
HETATM   42  O           1      41.690   7.037   0.413  0.00  0.00    -0.390 OA
HETATM   43  H           1      40.837   7.432   0.613  0.00  0.00     0.210 HD
ENDBRANCH  35  42
BRANCH  36  44
HETATM   44  C           1      43.739   5.158  -0.467  0.00  0.00     0.173 C 
BRANCH  44  45
HETATM   45  C           1      44.692   5.334   0.700  0.00  0.00     0.198 C 
BRANCH  45  46
HETATM   46  O           1      44.767   4.148   1.463  0.00  0.00    -0.398 OA
HETATM   47  H           1      44.616   4.356   2.387  0.00  0.00     0.209 HD
ENDBRANCH  45  46
ENDBRANCH  44  45
BRANCH  44  48
HETATM   48  O           1      43.719   6.360  -1.202  0.00  0.00    -0.391 OA
HETATM   49  H           1      42.834   6.492  -1.553  0.00  0.00     0.210 HD
ENDBRANCH  44  48
ENDBRANCH  36  44
ENDBRANCH  31  32
ENDBRANCH  29  31
BRANCH  29  50
HETATM   50  O           1      41.678  -0.472   0.565  0.00  0.00    -0.307 OA
HETATM   51  H           1      42.320   0.001   0.064  0.00  0.00     0.222 HD
ENDBRANCH  29  50
ENDBRANCH  28  29
ENDBRANCH   1  28
TORSDOF 19
ENDMDL
MODEL 4
REMARK VINA RESULT:      -8.1      3.027      4.279
REMARK  19 active torsions:
REMARK  status: ('A' for Active; 'I' for Inactive)
REMARK    1  A    between atoms: C_1  and  C_3 
REMARK    2  A    between atoms: C_1  and  O_13 
REMARK    3  A    between atoms: O_2  and  C_3 
REMARK    4  A    between atoms: C_3  and  C_11 
REMARK    5  A    between atoms: O_4  and  C_5 
REMARK    6  A    between atoms: O_6  and  C_7 
REMARK    7  A    between atoms: O_8  and  C_9 
REMARK    8  A    between atoms: C_12  and  O_40 
REMARK    9  A    between atoms: C_22  and  N_23 
REMARK   10  A    between atoms: C_24  and  O_25 
REMARK   11  A    between atoms: C_26  and  O_27 
REMARK   12  A    between atoms: C_28  and  C_31 
REMARK   13  A    between atoms: C_31  and  O_32 
REMARK   14  A    between atoms: O_32  and  P_33 
REMARK   15  A    between atoms: P_33  and  O_35 
REMARK   16  A    between atoms: P_33  and  O_36 
REMARK   17  A    between atoms: O_36  and  P_37 
REMARK   18  A    between atoms: P_37  and  O_40 
REMARK   19  A    between atoms: P_37  and  O_39 
ROOT
HETATM    1  P           1      44.402   7.934   2.124  0.00  0.00     0.401 P 
HETATM    2  O           1      44.877   8.762   0.984  0.00  0.00    -0.631 OA
ENDROOT
BRANCH   1   3
HETATM    3  O           1      44.654   8.837   3.485  0.00  0.00    -0.294 OA
BRANCH   3   4
HETATM    4  C           1      45.919   8.823   4.096  0.00  0.00     0.215 C 
BRANCH   4   5
HETATM    5  C           1      46.448  10.250   4.182  0.00  0.00     0.180 C 
HETATM    6  C           1      45.862  11.080   5.321  0.00  0.00     0.182 C 
HETATM    7  C           1      45.320  12.315   4.625  0.00  0.00     0.198 C 
HETATM    8  C           1      46.063  12.297   3.303  0.00  0.00     0.262 C 
HETATM    9  N           1      45.423  13.060   2.224  0.00  0.00    -0.294 N 
HETATM   10  O           1      46.166  10.928   2.990  0.00  0.00    -0.353 OA
HETATM   11  C           1      44.300  12.767   1.723  0.00  0.00     0.214 A 
HETATM   12  C           1      45.933  14.075   1.672  0.00  0.00     0.167 A 
HETATM   13  N           1      44.021  13.591   0.804  0.00  0.00    -0.236 NA
HETATM   14  C           1      45.002  14.396   0.756  0.00  0.00     0.149 A 
HETATM   15  C           1      45.210  15.453  -0.046  0.00  0.00     0.155 A 
HETATM   16  N           1      46.290  16.104   0.103  0.00  0.00    -0.222 NA
HETATM   17  C           1      47.108  15.727   0.996  0.00  0.00     0.237 A 
HETATM   18  N           1      46.995  14.747   1.791  0.00  0.00    -0.222 NA
BRANCH   6  19
HETATM   19  O           1      46.878  11.476   6.211  0.00  0.00    -0.390 OA
HETATM   20  H           1      47.317  12.269   5.896  0.00  0.00     0.210 HD
ENDBRANCH   6  19
BRANCH   7  21
HETATM   21  O           1      45.586  13.485   5.363  0.00  0.00    -0.388 OA
HETATM   22  H           1      45.623  14.234   4.763  0.00  0.00     0.210 HD
ENDBRANCH   7  21
BRANCH  15  23
HETATM   23  N           1      44.328  15.753  -0.905  0.00  0.00    -0.382 N 
HETATM   24  H           1      43.817  16.666  -0.838  0.00  0.00     0.157 HD
HETATM   25  H           1      44.105  15.089  -1.687  0.00  0.00     0.157 HD
ENDBRANCH  15  23
ENDBRANCH   4   5
ENDBRANCH   3   4
ENDBRANCH   1   3
BRANCH   1  26
HETATM   26  O           1      42.793   8.111   2.250  0.00  0.00    -0.307 OA
HETATM   27  H           1      42.429   7.386   2.724  0.00  0.00     0.222 HD
ENDBRANCH   1  26
BRANCH   1  28
HETATM   28  O           1      45.044   6.484   2.213  0.00  0.00    -0.195 OA
BRANCH  28  29
HETATM   29  P           1      44.682   5.438   1.065  0.00  0.00     0.404 P 
HETATM   30  O           1      45.722   5.355   0.005  0.00  0.00    -0.631 OA
BRANCH  29  31
HETATM   31  O           1      43.175   5.329   0.443  0.00  0.00    -0.263 OA
BRANCH  31  32
HETATM   32  C           1      42.134   4.703   1.165  0.00  0.00     0.303 C 
HETATM   33  C           1      40.809   5.325   0.777  0.00  0.00     0.205 C 
HETATM   34  C           1      39.690   4.568   1.466  0.00  0.00     0.183 C 
HETATM   35  C           1      39.810   3.123   1.030  0.00  0.00     0.181 C 
HETATM   36  C           1      41.187   2.578   1.404  0.00  0.00     0.186 C 
HETATM   37  O           1      42.174   3.346   0.766  0.00  0.00    -0.347 OA
BRANCH  33  38
HETATM   38  O           1      40.768   6.665   1.200  0.00  0.00    -0.388 OA
HETATM   39  H           1      41.575   7.099   0.910  0.00  0.00     0.210 HD
ENDBRANCH  33  38
BRANCH  34  40
HETATM   40  O           1      38.440   5.094   1.091  0.00  0.00    -0.390 OA
HETATM   41  H           1      37.813   4.378   0.959  0.00  0.00     0.210 HD
ENDBRANCH  34  40
BRANCH  35  42
HETATM   42  O           1      38.785   2.372   1.629  0.00  0.00    -0.390 OA
HETATM   43  H           1      39.121   2.025   2.459  0.00  0.00     0.210 HD
ENDBRANCH  35  42
BRANCH  36  44
HETATM   44  C           1      41.344   1.099   1.052  0.00  0.00     0.173 C 
BRANCH  44  45
HETATM   45  C           1      41.027   0.752  -0.391  0.00  0.00     0.198 C 
BRANCH  45  46
HETATM   46  O           1      40.910  -0.646  -0.552  0.00  0.00    -0.398 OA
HETATM   47  H           1      41.781  -1.024  -0.687  0.00  0.00     0.209 HD
ENDBRANCH  45  46
ENDBRANCH  44  45
BRANCH  44  48
HETATM   48  O           1      40.525   0.309   1.882  0.00  0.00    -0.391 OA
HETATM   49  H           1      40.368   0.784   2.703  0.00  0.00     0.210 HD
ENDBRANCH  44  48
ENDBRANCH  36  44
ENDBRANCH  31  32
ENDBRANCH  29  31
BRANCH  29  50
HETATM   50  O           1      44.603   3.919   1.674  0.00  0.00    -0.307 OA
HETATM   51  H           1      44.546   3.304   0.964  0.00  0.00     0.222 HD
ENDBRANCH  29  50
ENDBRANCH  28  29
ENDBRANCH   1  28
TORSDOF 19
ENDMDL
MODEL 5
REMARK VINA RESULT:      -8.1      1.867      3.140
REMARK  19 active torsions:
REMARK  status: ('A' for Active; 'I' for Inactive)
REMARK    1  A    between atoms: C_1  and  C_3 
REMARK    2  A    between atoms: C_1  and  O_13 
REMARK    3  A    between atoms: O_2  and  C_3 
REMARK    4  A    between atoms: C_3  and  C_11 
REMARK    5  A    between atoms: O_4  and  C_5 
REMARK    6  A    between atoms: O_6  and  C_7 
REMARK    7  A    between atoms: O_8  and  C_9 
REMARK    8  A    between atoms: C_12  and  O_40 
REMARK    9  A    between atoms: C_22  and  N_23 
REMARK   10  A    between atoms: C_24  and  O_25 
REMARK   11  A    between atoms: C_26  and  O_27 
REMARK   12  A    between atoms: C_28  and  C_31 
REMARK   13  A    between atoms: C_31  and  O_32 
REMARK   14  A    between atoms: O_32  and  P_33 
REMARK   15  A    between atoms: P_33  and  O_35 
REMARK   16  A    between atoms: P_33  and  O_36 
REMARK   17  A    between atoms: O_36  and  P_37 
REMARK   18  A    between atoms: P_37  and  O_40 
REMARK   19  A    between atoms: P_37  and  O_39 
ROOT
HETATM    1  P           1      44.495   9.068   2.918  0.00  0.00     0.401 P 
HETATM    2  O           1      45.175   8.612   4.158  0.00  0.00    -0.631 OA
ENDROOT
BRANCH   1   3
HETATM    3  O           1      44.092  10.651   3.169  0.00  0.00    -0.294 OA
BRANCH   3   4
HETATM    4  C           1      45.111  11.600   3.356  0.00  0.00     0.215 C 
BRANCH   4   5
HETATM    5  C           1      45.638  11.492   4.782  0.00  0.00     0.180 C 
HETATM    6  C           1      45.322  12.691   5.672  0.00  0.00     0.182 C 
HETATM    7  C           1      46.680  13.121   6.195  0.00  0.00     0.198 C 
HETATM    8  C           1      47.524  11.882   5.968  0.00  0.00     0.262 C 
HETATM    9  N           1      48.972  12.122   5.912  0.00  0.00    -0.294 N 
HETATM   10  O           1      47.032  11.353   4.759  0.00  0.00    -0.353 OA
HETATM   11  C           1      49.539  12.809   5.014  0.00  0.00     0.214 A 
HETATM   12  C           1      49.802  11.655   6.741  0.00  0.00     0.167 A 
HETATM   13  N           1      50.788  12.820   5.220  0.00  0.00    -0.236 NA
HETATM   14  C           1      50.969  12.125   6.266  0.00  0.00     0.149 A 
HETATM   15  C           1      52.108  11.817   6.908  0.00  0.00     0.155 A 
HETATM   16  N           1      52.024  11.090   7.945  0.00  0.00    -0.222 NA
HETATM   17  C           1      50.877  10.696   8.319  0.00  0.00     0.237 A 
HETATM   18  N           1      49.757  10.935   7.777  0.00  0.00    -0.222 NA
BRANCH   6  19
HETATM   19  O           1      44.526  12.295   6.763  0.00  0.00    -0.390 OA
HETATM   20  H           1      45.057  11.854   7.430  0.00  0.00     0.210 HD
ENDBRANCH   6  19
BRANCH   7  21
HETATM   21  O           1      46.622  13.476   7.557  0.00  0.00    -0.388 OA
HETATM   22  H           1      47.075  14.313   7.684  0.00  0.00     0.210 HD
ENDBRANCH   7  21
BRANCH  15  23
HETATM   23  N           1      53.206  12.264   6.457  0.00  0.00    -0.382 N 
HETATM   24  H           1      54.114  11.855   6.785  0.00  0.00     0.157 HD
HETATM   25  H           1      53.210  13.044   5.755  0.00  0.00     0.157 HD
ENDBRANCH  15  23
ENDBRANCH   4   5
ENDBRANCH   3   4
ENDBRANCH   1   3
BRANCH   1  26
HETATM   26  O           1      45.629   9.481   1.833  0.00  0.00    -0.307 OA
HETATM   27  H           1      45.741  10.415   1.828  0.00  0.00     0.222 HD
ENDBRANCH   1  26
BRANCH   1  28
HETATM   28  O           1      43.259   8.178   2.464  0.00  0.00    -0.195 OA
BRANCH  28  29
HETATM   29  P           1      42.458   8.626   1.161  0.00  0.00     0.404 P 
HETATM   30  O           1      41.145   9.253   1.472  0.00  0.00    -0.631 OA
BRANCH  29  31
HETATM   31  O           1      42.375   7.680  -0.168  0.00  0.00    -0.263 OA
BRANCH  31  32
HETATM   32  C           1      42.300   6.273  -0.056  0.00  0.00     0.303 C 
HETATM   33  C           1      43.549   5.757   0.627  0.00  0.00     0.205 C 
HETATM   34  C           1      43.404   4.263   0.850  0.00  0.00     0.183 C 
HETATM   35  C           1      42.156   4.066   1.683  0.00  0.00     0.181 C 
HETATM   36  C           1      40.948   4.658   0.960  0.00  0.00     0.186 C 
HETATM   37  O           1      41.163   6.030   0.751  0.00  0.00    -0.347 OA
BRANCH  33  38
HETATM   38  O           1      44.669   5.980  -0.192  0.00  0.00    -0.388 OA
HETATM   39  H           1      45.339   6.431   0.328  0.00  0.00     0.210 HD
ENDBRANCH  33  38
BRANCH  34  40
HETATM   40  O           1      44.531   3.757   1.524  0.00  0.00    -0.390 OA
HETATM   41  H           1      45.204   4.440   1.586  0.00  0.00     0.210 HD
ENDBRANCH  34  40
BRANCH  35  42
HETATM   42  O           1      41.978   2.696   1.935  0.00  0.00    -0.390 OA
HETATM   43  H           1      42.556   2.454   2.663  0.00  0.00     0.210 HD
ENDBRANCH  35  42
BRANCH  36  44
HETATM   44  C           1      39.642   4.427   1.720  0.00  0.00     0.173 C 
BRANCH  44  45
HETATM   45  C           1      38.820   3.250   1.229  0.00  0.00     0.198 C 
BRANCH  45  46
HETATM   46  O           1      38.760   2.241   2.214  0.00  0.00    -0.398 OA
HETATM   47  H           1      39.472   2.370   2.845  0.00  0.00     0.209 HD
ENDBRANCH  45  46
ENDBRANCH  44  45
BRANCH  44  48
HETATM   48  O           1      38.833   5.579   1.666  0.00  0.00    -0.391 OA
HETATM   49  H           1      38.928   6.061   2.492  0.00  0.00     0.210 HD
ENDBRANCH  44  48
ENDBRANCH  36  44
ENDBRANCH  31  32
ENDBRANCH  29  31
BRANCH  29  50
HETATM   50  O           1      43.280   9.790   0.352  0.00  0.00    -0.307 OA
HETATM   51  H           1      42.683  10.474   0.102  0.00  0.00     0.222 HD
ENDBRANCH  29  50
ENDBRANCH  28  29
ENDBRANCH   1  28
TORSDOF 19
ENDMDL
MODEL 6
REMARK VINA RESULT:      -8.1     10.125     13.082
REMARK  19 active torsions:
REMARK  status: ('A' for Active; 'I' for Inactive)
REMARK    1  A    between atoms: C_1  and  C_3 
REMARK    2  A    between atoms: C_1  and  O_13 
REMARK    3  A    between atoms: O_2  and  C_3 
REMARK    4  A    between atoms: C_3  and  C_11 
REMARK    5  A    between atoms: O_4  and  C_5 
REMARK    6  A    between atoms: O_6  and  C_7 
REMARK    7  A    between atoms: O_8  and  C_9 
REMARK    8  A    between atoms: C_12  and  O_40 
REMARK    9  A    between atoms: C_22  and  N_23 
REMARK   10  A    between atoms: C_24  and  O_25 
REMARK   11  A    between atoms: C_26  and  O_27 
REMARK   12  A    between atoms: C_28  and  C_31 
REMARK   13  A    between atoms: C_31  and  O_32 
REMARK   14  A    between atoms: O_32  and  P_33 
REMARK   15  A    between atoms: P_33  and  O_35 
REMARK   16  A    between atoms: P_33  and  O_36 
REMARK   17  A    between atoms: O_36  and  P_37 
REMARK   18  A    between atoms: P_37  and  O_40 
REMARK   19  A    between atoms: P_37  and  O_39 
ROOT
HETATM    1  P           1      39.206  -2.958   0.783  0.00  0.00     0.401 P 
HETATM    2  O           1      38.631  -3.262   2.120  0.00  0.00    -0.631 OA
ENDROOT
BRANCH   1   3
HETATM    3  O           1      39.260  -1.311   0.669  0.00  0.00    -0.294 OA
BRANCH   3   4
HETATM    4  C           1      39.887  -0.570   1.685  0.00  0.00     0.215 C 
BRANCH   4   5
HETATM    5  C           1      40.484   0.697   1.083  0.00  0.00     0.180 C 
HETATM    6  C           1      39.520   1.878   0.996  0.00  0.00     0.182 C 
HETATM    7  C           1      39.569   2.277  -0.468  0.00  0.00     0.198 C 
HETATM    8  C           1      40.866   1.645  -0.934  0.00  0.00     0.262 C 
HETATM    9  N           1      40.962   1.430  -2.384  0.00  0.00    -0.294 N 
HETATM   10  O           1      40.931   0.434  -0.218  0.00  0.00    -0.353 OA
HETATM   11  C           1      40.216   0.641  -3.031  0.00  0.00     0.214 A 
HETATM   12  C           1      41.809   1.995  -3.131  0.00  0.00     0.167 A 
HETATM   13  N           1      40.548   0.654  -4.252  0.00  0.00    -0.236 NA
HETATM   14  C           1      41.516   1.471  -4.335  0.00  0.00     0.149 A 
HETATM   15  C           1      42.236   1.847  -5.404  0.00  0.00     0.155 A 
HETATM   16  N           1      43.170   2.688  -5.223  0.00  0.00    -0.222 NA
HETATM   17  C           1      43.370   3.128  -4.049  0.00  0.00     0.237 A 
HETATM   18  N           1      42.745   2.830  -2.989  0.00  0.00    -0.222 NA
BRANCH   6  19
HETATM   19  O           1      39.993   2.954   1.771  0.00  0.00    -0.390 OA
HETATM   20  H           1      40.447   2.636   2.554  0.00  0.00     0.210 HD
ENDBRANCH   6  19
BRANCH   7  21
HETATM   21  O           1      39.580   3.677  -0.623  0.00  0.00    -0.388 OA
HETATM   22  H           1      39.681   3.890  -1.554  0.00  0.00     0.210 HD
ENDBRANCH   7  21
BRANCH  15  23
HETATM   23  N           1      41.954   1.353  -6.537  0.00  0.00    -0.382 N 
HETATM   24  H           1      42.476   0.514  -6.889  0.00  0.00     0.157 HD
HETATM   25  H           1      41.199   1.781  -7.128  0.00  0.00     0.157 HD
ENDBRANCH  15  23
ENDBRANCH   4   5
ENDBRANCH   3   4
ENDBRANCH   1   3
BRANCH   1  26
HETATM   26  O           1      40.823  -3.050   0.888  0.00  0.00    -0.307 OA
HETATM   27  H           1      41.201  -3.010   0.028  0.00  0.00     0.222 HD
ENDBRANCH   1  26
BRANCH   1  28
HETATM   28  O           1      38.456  -3.641  -0.440  0.00  0.00    -0.195 OA
BRANCH  28  29
HETATM   29  P           1      38.983  -3.318  -1.909  0.00  0.00     0.404 P 
HETATM   30  O           1      38.130  -2.335  -2.630  0.00  0.00    -0.631 OA
BRANCH  29  31
HETATM   31  O           1      39.527  -4.491  -2.908  0.00  0.00    -0.263 OA
BRANCH  31  32
HETATM   32  C           1      40.848  -4.982  -2.800  0.00  0.00     0.303 C 
HETATM   33  C           1      40.874  -6.442  -3.204  0.00  0.00     0.205 C 
HETATM   34  C           1      42.312  -6.926  -3.200  0.00  0.00     0.183 C 
HETATM   35  C           1      43.073  -6.038  -4.161  0.00  0.00     0.181 C 
HETATM   36  C           1      42.957  -4.579  -3.725  0.00  0.00     0.186 C 
HETATM   37  O           1      41.603  -4.208  -3.713  0.00  0.00    -0.347 OA
BRANCH  33  38
HETATM   38  O           1      40.143  -7.207  -2.278  0.00  0.00    -0.388 OA
HETATM   39  H           1      39.694  -6.607  -1.678  0.00  0.00     0.210 HD
ENDBRANCH  33  38
BRANCH  34  40
HETATM   40  O           1      42.377  -8.269  -3.613  0.00  0.00    -0.390 OA
HETATM   41  H           1      41.552  -8.714  -3.402  0.00  0.00     0.210 HD
ENDBRANCH  34  40
BRANCH  35  42
HETATM   42  O           1      44.414  -6.450  -4.211  0.00  0.00    -0.390 OA
HETATM   43  H           1      44.728  -6.541  -3.306  0.00  0.00     0.210 HD
ENDBRANCH  35  42
BRANCH  36  44
HETATM   44  C           1      43.765  -3.637  -4.619  0.00  0.00     0.173 C 
BRANCH  44  45
HETATM   45  C           1      43.069  -2.333  -4.962  0.00  0.00     0.198 C 
BRANCH  45  46
HETATM   46  O           1      42.619  -1.688  -3.789  0.00  0.00    -0.398 OA
HETATM   47  H           1      43.377  -1.425  -3.262  0.00  0.00     0.209 HD
ENDBRANCH  45  46
ENDBRANCH  44  45
BRANCH  44  48
HETATM   48  O           1      44.109  -4.281  -5.824  0.00  0.00    -0.391 OA
HETATM   49  H           1      43.328  -4.326  -6.382  0.00  0.00     0.210 HD
ENDBRANCH  44  48
ENDBRANCH  36  44
ENDBRANCH  31  32
ENDBRANCH  29  31
BRANCH  29  50
HETATM   50  O           1      40.458  -2.606  -1.848  0.00  0.00    -0.307 OA
HETATM   51  H           1      40.799  -2.526  -2.722  0.00  0.00     0.222 HD
ENDBRANCH  29  50
ENDBRANCH  28  29
ENDBRANCH   1  28
TORSDOF 19
ENDMDL
MODEL 7
REMARK VINA RESULT:      -8.0      7.041     11.142
REMARK  19 active torsions:
REMARK  status: ('A' for Active; 'I' for Inactive)
REMARK    1  A    between atoms: C_1  and  C_3 
REMARK    2  A    between atoms: C_1  and  O_13 
REMARK    3  A    between atoms: O_2  and  C_3 
REMARK    4  A    between atoms: C_3  and  C_11 
REMARK    5  A    between atoms: O_4  and  C_5 
REMARK    6  A    between atoms: O_6  and  C_7 
REMARK    7  A    between atoms: O_8  and  C_9 
REMARK    8  A    between atoms: C_12  and  O_40 
REMARK    9  A    between atoms: C_22  and  N_23 
REMARK   10  A    between atoms: C_24  and  O_25 
REMARK   11  A    between atoms: C_26  and  O_27 
REMARK   12  A    between atoms: C_28  and  C_31 
REMARK   13  A    between atoms: C_31  and  O_32 
REMARK   14  A    between atoms: O_32  and  P_33 
REMARK   15  A    between atoms: P_33  and  O_35 
REMARK   16  A    between atoms: P_33  and  O_36 
REMARK   17  A    between atoms: O_36  and  P_37 
REMARK   18  A    between atoms: P_37  and  O_40 
REMARK   19  A    between atoms: P_37  and  O_39 
ROOT
HETATM    1  P           1      39.857  -2.249  -0.096  0.00  0.00     0.401 P 
HETATM    2  O           1      38.571  -2.784   0.425  0.00  0.00    -0.631 OA
ENDROOT
BRANCH   1   3
HETATM    3  O           1      40.102  -0.808   0.675  0.00  0.00    -0.294 OA
BRANCH   3   4
HETATM    4  C           1      40.653   0.270  -0.039  0.00  0.00     0.215 C 
BRANCH   4   5
HETATM    5  C           1      40.611   1.519   0.833  0.00  0.00     0.180 C 
HETATM    6  C           1      39.242   2.188   0.924  0.00  0.00     0.182 C 
HETATM    7  C           1      39.511   3.622   0.506  0.00  0.00     0.198 C 
HETATM    8  C           1      41.010   3.741   0.699  0.00  0.00     0.262 C 
HETATM    9  N           1      41.647   4.821  -0.065  0.00  0.00    -0.294 N 
HETATM   10  O           1      41.503   2.475   0.328  0.00  0.00    -0.353 OA
HETATM   11  C           1      41.695   4.860  -1.328  0.00  0.00     0.214 A 
HETATM   12  C           1      42.228   5.814   0.457  0.00  0.00     0.167 A 
HETATM   13  N           1      42.321   5.896  -1.694  0.00  0.00    -0.236 NA
HETATM   14  C           1      42.655   6.492  -0.624  0.00  0.00     0.149 A 
HETATM   15  C           1      43.339   7.634  -0.451  0.00  0.00     0.155 A 
HETATM   16  N           1      43.552   8.022   0.738  0.00  0.00    -0.222 NA
HETATM   17  C           1      43.108   7.317   1.695  0.00  0.00     0.237 A 
HETATM   18  N           1      42.458   6.231   1.626  0.00  0.00    -0.222 NA
BRANCH   6  19
HETATM   19  O           1      38.785   2.187   2.256  0.00  0.00    -0.390 OA
HETATM   20  H           1      38.368   1.350   2.472  0.00  0.00     0.210 HD
ENDBRANCH   6  19
BRANCH   7  21
HETATM   21  O           1      38.802   4.537   1.308  0.00  0.00    -0.388 OA
HETATM   22  H           1      37.891   4.580   1.008  0.00  0.00     0.210 HD
ENDBRANCH   7  21
BRANCH  15  23
HETATM   23  N           1      43.736   8.271  -1.473  0.00  0.00    -0.382 N 
HETATM   24  H           1      43.104   8.966  -1.938  0.00  0.00     0.157 HD
HETATM   25  H           1      44.698   8.103  -1.859  0.00  0.00     0.157 HD
ENDBRANCH  15  23
ENDBRANCH   4   5
ENDBRANCH   3   4
ENDBRANCH   1   3
BRANCH   1  26
HETATM   26  O           1      41.071  -2.947   0.725  0.00  0.00    -0.307 OA
HETATM   27  H           1      41.761  -2.324   0.865  0.00  0.00     0.222 HD
ENDBRANCH   1  26
BRANCH   1  28
HETATM   28  O           1      39.943  -2.130  -1.678  0.00  0.00    -0.195 OA
BRANCH  28  29
HETATM   29  P           1      39.078  -3.148  -2.548  0.00  0.00     0.404 P 
HETATM   30  O           1      37.613  -2.926  -2.417  0.00  0.00    -0.631 OA
BRANCH  29  31
HETATM   31  O           1      39.443  -4.738  -2.631  0.00  0.00    -0.263 OA
BRANCH  31  32
HETATM   32  C           1      40.784  -5.181  -2.564  0.00  0.00     0.303 C 
HETATM   33  C           1      40.857  -6.628  -3.003  0.00  0.00     0.205 C 
HETATM   34  C           1      42.312  -7.057  -3.042  0.00  0.00     0.183 C 
HETATM   35  C           1      43.016  -6.117  -3.998  0.00  0.00     0.181 C 
HETATM   36  C           1      42.855  -4.674  -3.524  0.00  0.00     0.186 C 
HETATM   37  O           1      41.488  -4.357  -3.473  0.00  0.00    -0.347 OA
BRANCH  33  38
HETATM   38  O           1      40.176  -7.442  -2.081  0.00  0.00    -0.388 OA
HETATM   39  H           1      39.978  -6.916  -1.302  0.00  0.00     0.210 HD
ENDBRANCH  33  38
BRANCH  34  40
HETATM   40  O           1      42.418  -8.386  -3.489  0.00  0.00    -0.390 OA
HETATM   41  H           1      43.321  -8.564  -3.765  0.00  0.00     0.210 HD
ENDBRANCH  34  40
BRANCH  35  42
HETATM   42  O           1      44.371  -6.477  -4.086  0.00  0.00    -0.390 OA
HETATM   43  H           1      44.895  -5.688  -3.923  0.00  0.00     0.210 HD
ENDBRANCH  35  42
BRANCH  36  44
HETATM   44  C           1      43.606  -3.682  -4.412  0.00  0.00     0.173 C 
BRANCH  44  45
HETATM   45  C           1      42.829  -2.425  -4.759  0.00  0.00     0.198 C 
BRANCH  45  46
HETATM   46  O           1      42.344  -1.803  -3.588  0.00  0.00    -0.398 OA
HETATM   47  H           1      41.792  -1.056  -3.832  0.00  0.00     0.209 HD
ENDBRANCH  45  46
ENDBRANCH  44  45
BRANCH  44  48
HETATM   48  O           1      43.999  -4.301  -5.614  0.00  0.00    -0.391 OA
HETATM   49  H           1      44.824  -4.771  -5.464  0.00  0.00     0.210 HD
ENDBRANCH  44  48
ENDBRANCH  36  44
ENDBRANCH  31  32
ENDBRANCH  29  31
BRANCH  29  50
HETATM   50  O           1      39.377  -2.937  -4.146  0.00  0.00    -0.307 OA
HETATM   51  H           1      39.458  -3.780  -4.559  0.00  0.00     0.222 HD
ENDBRANCH  29  50
ENDBRANCH  28  29
ENDBRANCH   1  28
TORSDOF 19
ENDMDL
MODEL 8
REMARK VINA RESULT:      -8.0      2.726      4.759
REMARK  19 active torsions:
REMARK  status: ('A' for Active; 'I' for Inactive)
REMARK    1  A    between atoms: C_1  and  C_3 
REMARK    2  A    between atoms: C_1  and  O_13 
REMARK    3  A    between atoms: O_2  and  C_3 
REMARK    4  A    between atoms: C_3  and  C_11 
REMARK    5  A    between atoms: O_4  and  C_5 
REMARK    6  A    between atoms: O_6  and  C_7 
REMARK    7  A    between atoms: O_8  and  C_9 
REMARK    8  A    between atoms: C_12  and  O_40 
REMARK    9  A    between atoms: C_22  and  N_23 
REMARK   10  A    between atoms: C_24  and  O_25 
REMARK   11  A    between atoms: C_26  and  O_27 
REMARK   12  A    between atoms: C_28  and  C_31 
REMARK   13  A    between atoms: C_31  and  O_32 
REMARK   14  A    between atoms: O_32  and  P_33 
REMARK   15  A    between atoms: P_33  and  O_35 
REMARK   16  A    between atoms: P_33  and  O_36 
REMARK   17  A    between atoms: O_36  and  P_37 
REMARK   18  A    between atoms: P_37  and  O_40 
REMARK   19  A    between atoms: P_37  and  O_39 
ROOT
HETATM    1  P           1      45.851  10.435   0.462  0.00  0.00     0.401 P 
HETATM    2  O           1      46.480   9.321   1.220  0.00  0.00    -0.631 OA
ENDROOT
BRANCH   1   3
HETATM    3  O           1      46.466  11.830   1.100  0.00  0.00    -0.294 OA
BRANCH   3   4
HETATM    4  C           1      47.857  11.964   1.250  0.00  0.00     0.215 C 
BRANCH   4   5
HETATM    5  C           1      48.163  12.431   2.669  0.00  0.00     0.180 C 
HETATM    6  C           1      49.154  11.554   3.429  0.00  0.00     0.182 C 
HETATM    7  C           1      48.415  11.194   4.704  0.00  0.00     0.198 C 
HETATM    8  C           1      47.336  12.258   4.766  0.00  0.00     0.262 C 
HETATM    9  N           1      46.174  11.911   5.594  0.00  0.00    -0.294 N 
HETATM   10  O           1      46.980  12.460   3.419  0.00  0.00    -0.353 OA
HETATM   11  C           1      45.379  10.963   5.333  0.00  0.00     0.214 A 
HETATM   12  C           1      45.836  12.532   6.641  0.00  0.00     0.167 A 
HETATM   13  N           1      44.470  10.922   6.212  0.00  0.00    -0.236 NA
HETATM   14  C           1      44.729  11.868   7.017  0.00  0.00     0.149 A 
HETATM   15  C           1      44.073  12.263   8.121  0.00  0.00     0.155 A 
HETATM   16  N           1      44.538  13.256   8.761  0.00  0.00    -0.222 NA
HETATM   17  C           1      45.590  13.818   8.329  0.00  0.00     0.237 A 
HETATM   18  N           1      46.269  13.516   7.303  0.00  0.00    -0.222 NA
BRANCH   6  19
HETATM   19  O           1      50.302  12.295   3.769  0.00  0.00    -0.390 OA
HETATM   20  H           1      50.981  11.723   4.133  0.00  0.00     0.210 HD
ENDBRANCH   6  19
BRANCH   7  21
HETATM   21  O           1      49.265  11.240   5.826  0.00  0.00    -0.388 OA
HETATM   22  H           1      49.191  12.103   6.242  0.00  0.00     0.210 HD
ENDBRANCH   7  21
BRANCH  15  23
HETATM   23  N           1      43.032  11.632   8.474  0.00  0.00    -0.382 N 
HETATM   24  H           1      42.912  10.625   8.207  0.00  0.00     0.157 HD
HETATM   25  H           1      42.285  12.115   9.032  0.00  0.00     0.157 HD
ENDBRANCH  15  23
ENDBRANCH   4   5
ENDBRANCH   3   4
ENDBRANCH   1   3
BRANCH   1  26
HETATM   26  O           1      46.679  10.647  -0.918  0.00  0.00    -0.307 OA
HETATM   27  H           1      46.905  11.554  -1.019  0.00  0.00     0.222 HD
ENDBRANCH   1  26
BRANCH   1  28
HETATM   28  O           1      44.262  10.414   0.432  0.00  0.00    -0.195 OA
BRANCH  28  29
HETATM   29  P           1      43.499   9.969   1.759  0.00  0.00     0.404 P 
HETATM   30  O           1      43.603  10.971   2.853  0.00  0.00    -0.631 OA
BRANCH  29  31
HETATM   31  O           1      43.583   8.441   2.330  0.00  0.00    -0.263 OA
BRANCH  31  32
HETATM   32  C           1      43.300   7.336   1.496  0.00  0.00     0.303 C 
HETATM   33  C           1      44.286   6.223   1.786  0.00  0.00     0.205 C 
HETATM   34  C           1      43.900   5.002   0.972  0.00  0.00     0.183 C 
HETATM   35  C           1      42.483   4.646   1.367  0.00  0.00     0.181 C 
HETATM   36  C           1      41.555   5.830   1.100  0.00  0.00     0.186 C 
HETATM   37  O           1      41.990   6.934   1.851  0.00  0.00    -0.347 OA
BRANCH  33  38
HETATM   38  O           1      45.580   6.621   1.407  0.00  0.00    -0.388 OA
HETATM   39  H           1      45.947   5.946   0.829  0.00  0.00     0.210 HD
ENDBRANCH  33  38
BRANCH  34  40
HETATM   40  O           1      44.772   3.933   1.251  0.00  0.00    -0.390 OA
HETATM   41  H           1      44.465   3.459   2.028  0.00  0.00     0.210 HD
ENDBRANCH  34  40
BRANCH  35  42
HETATM   42  O           1      42.075   3.508   0.653  0.00  0.00    -0.390 OA
HETATM   43  H           1      42.666   3.404  -0.097  0.00  0.00     0.210 HD
ENDBRANCH  35  42
BRANCH  36  44
HETATM   44  C           1      40.094   5.508   1.413  0.00  0.00     0.173 C 
BRANCH  44  45
HETATM   45  C           1      39.883   4.653   2.649  0.00  0.00     0.198 C 
BRANCH  45  46
HETATM   46  O           1      39.359   3.390   2.295  0.00  0.00    -0.398 OA
HETATM   47  H           1      39.096   3.403   1.372  0.00  0.00     0.209 HD
ENDBRANCH  45  46
ENDBRANCH  44  45
BRANCH  44  48
HETATM   48  O           1      39.491   4.855   0.320  0.00  0.00    -0.391 OA
HETATM   49  H           1      39.628   3.908   0.414  0.00  0.00     0.210 HD
ENDBRANCH  44  48
ENDBRANCH  36  44
ENDBRANCH  31  32
ENDBRANCH  29  31
BRANCH  29  50
HETATM   50  O           1      41.890   9.838   1.481  0.00  0.00    -0.307 OA
HETATM   51  H           1      41.695   8.961   1.199  0.00  0.00     0.222 HD
ENDBRANCH  29  50
ENDBRANCH  28  29
ENDBRANCH   1  28
TORSDOF 19
ENDMDL
MODEL 9
REMARK VINA RESULT:      -8.0      5.245     11.844
REMARK  19 active torsions:
REMARK  status: ('A' for Active; 'I' for Inactive)
REMARK    1  A    between atoms: C_1  and  C_3 
REMARK    2  A    between atoms: C_1  and  O_13 
REMARK    3  A    between atoms: O_2  and  C_3 
REMARK    4  A    between atoms: C_3  and  C_11 
REMARK    5  A    between atoms: O_4  and  C_5 
REMARK    6  A    between atoms: O_6  and  C_7 
REMARK    7  A    between atoms: O_8  and  C_9 
REMARK    8  A    between atoms: C_12  and  O_40 
REMARK    9  A    between atoms: C_22  and  N_23 
REMARK   10  A    between atoms: C_24  and  O_25 
REMARK   11  A    between atoms: C_26  and  O_27 
REMARK   12  A    between atoms: C_28  and  C_31 
REMARK   13  A    between atoms: C_31  and  O_32 
REMARK   14  A    between atoms: O_32  and  P_33 
REMARK   15  A    between atoms: P_33  and  O_35 
REMARK   16  A    between atoms: P_33  and  O_36 
REMARK   17  A    between atoms: O_36  and  P_37 
REMARK   18  A    between atoms: P_37  and  O_40 
REMARK   19  A    between atoms: P_37  and  O_39 
ROOT
HETATM    1  P           1      44.759  10.579   2.658  0.00  0.00     0.401 P 
HETATM    2  O           1      44.212  11.213   1.430  0.00  0.00    -0.631 OA
ENDROOT
BRANCH   1   3
HETATM    3  O           1      44.237   9.011   2.638  0.00  0.00    -0.294 OA
BRANCH   3   4
HETATM    4  C           1      45.162   7.979   2.409  0.00  0.00     0.215 C 
BRANCH   4   5
HETATM    5  C           1      44.659   7.102   1.269  0.00  0.00     0.180 C 
HETATM    6  C           1      43.938   7.855   0.154  0.00  0.00     0.182 C 
HETATM    7  C           1      42.599   7.149   0.047  0.00  0.00     0.198 C 
HETATM    8  C           1      42.877   5.820   0.724  0.00  0.00     0.262 C 
HETATM    9  N           1      41.686   5.116   1.216  0.00  0.00    -0.294 N 
HETATM   10  O           1      43.761   6.150   1.770  0.00  0.00    -0.353 OA
HETATM   11  C           1      40.936   5.554   2.135  0.00  0.00     0.214 A 
HETATM   12  C           1      41.295   3.994   0.785  0.00  0.00     0.167 A 
HETATM   13  N           1      40.007   4.723   2.352  0.00  0.00    -0.236 NA
HETATM   14  C           1      40.207   3.766   1.541  0.00  0.00     0.149 A 
HETATM   15  C           1      39.513   2.630   1.363  0.00  0.00     0.155 A 
HETATM   16  N           1      39.926   1.818   0.479  0.00  0.00    -0.222 NA
HETATM   17  C           1      40.963   2.121  -0.187  0.00  0.00     0.237 A 
HETATM   18  N           1      41.675   3.164  -0.086  0.00  0.00    -0.222 NA
BRANCH   6  19
HETATM   19  O           1      44.625   7.701  -1.065  0.00  0.00    -0.390 OA
HETATM   20  H           1      44.696   6.774  -1.301  0.00  0.00     0.210 HD
ENDBRANCH   6  19
BRANCH   7  21
HETATM   21  O           1      42.206   6.983  -1.295  0.00  0.00    -0.388 OA
HETATM   22  H           1      41.502   7.605  -1.496  0.00  0.00     0.210 HD
ENDBRANCH   7  21
BRANCH  15  23
HETATM   23  N           1      38.486   2.421   2.076  0.00  0.00    -0.382 N 
HETATM   24  H           1      37.846   3.214   2.320  0.00  0.00     0.157 HD
HETATM   25  H           1      38.274   1.454   2.426  0.00  0.00     0.157 HD
ENDBRANCH  15  23
ENDBRANCH   4   5
ENDBRANCH   3   4
ENDBRANCH   1   3
BRANCH   1  26
HETATM   26  O           1      46.288  10.121   2.360  0.00  0.00    -0.307 OA
HETATM   27  H           1      46.883  10.790   2.647  0.00  0.00     0.222 HD
ENDBRANCH   1  26
BRANCH   1  28
HETATM   28  O           1      44.412  11.332   4.014  0.00  0.00    -0.195 OA
BRANCH  28  29
HETATM   29  P           1      45.408  11.143   5.245  0.00  0.00     0.404 P 
HETATM   30  O           1      44.780  11.462   6.555  0.00  0.00    -0.631 OA
BRANCH  29  31
HETATM   31  O           1      46.961  11.644   5.182  0.00  0.00    -0.263 OA
BRANCH  31  32
HETATM   32  C           1      47.983  10.931   5.850  0.00  0.00     0.303 C 
HETATM   33  C           1      49.086  10.597   4.867  0.00  0.00     0.205 C 
HETATM   34  C           1      50.229   9.939   5.617  0.00  0.00     0.183 C 
HETATM   35  C           1      50.670  10.919   6.684  0.00  0.00     0.181 C 
HETATM   36  C           1      49.497  11.253   7.602  0.00  0.00     0.186 C 
HETATM   37  O           1      48.463  11.820   6.841  0.00  0.00    -0.347 OA
BRANCH  33  38
HETATM   38  O           1      48.608   9.694   3.901  0.00  0.00    -0.388 OA
HETATM   39  H           1      49.303   9.058   3.712  0.00  0.00     0.210 HD
ENDBRANCH  33  38
BRANCH  34  40
HETATM   40  O           1      51.290   9.654   4.739  0.00  0.00    -0.390 OA
HETATM   41  H           1      51.940  10.361   4.776  0.00  0.00     0.210 HD
ENDBRANCH  34  40
BRANCH  35  42
HETATM   42  O           1      51.742  10.367   7.404  0.00  0.00    -0.390 OA
HETATM   43  H           1      52.244  11.093   7.785  0.00  0.00     0.210 HD
ENDBRANCH  35  42
BRANCH  36  44
HETATM   44  C           1      49.899  12.186   8.745  0.00  0.00     0.173 C 
BRANCH  44  45
HETATM   45  C           1      48.790  13.094   9.244  0.00  0.00     0.198 C 
BRANCH  45  46
HETATM   46  O           1      49.227  13.847  10.355  0.00  0.00    -0.398 OA
HETATM   47  H           1      49.622  14.666  10.047  0.00  0.00     0.209 HD
ENDBRANCH  45  46
ENDBRANCH  44  45
BRANCH  44  48
HETATM   48  O           1      50.986  12.994   8.358  0.00  0.00    -0.391 OA
HETATM   49  H           1      51.380  13.378   9.146  0.00  0.00     0.210 HD
ENDBRANCH  44  48
ENDBRANCH  36  44
ENDBRANCH  31  32
ENDBRANCH  29  31
BRANCH  29  50
HETATM   50  O           1      45.860   9.574   5.384  0.00  0.00    -0.307 OA
HETATM   51  H           1      46.223   9.283   4.565  0.00  0.00     0.222 HD
ENDBRANCH  29  50
ENDBRANCH  28  29
ENDBRANCH   1  28
TORSDOF 19
ENDMDL
