MODEL 1
REMARK VINA RESULT:      -5.4      0.000      0.000
REMARK  13 active torsions:
REMARK  status: ('A' for Active; 'I' for Inactive)
REMARK    1  A    between atoms: C_1  and  O_21 
REMARK    2  A    between atoms: C_2  and  O_9 
REMARK    3  A    between atoms: C_3  and  O_10 
REMARK    4  A    between atoms: C_4  and  O_11 
REMARK    5  A    between atoms: C_6  and  C_7 
REMARK    6  A    between atoms: C_7  and  O_8 
REMARK    7  A    between atoms: O_11  and  C_12 
REMARK    8  A    between atoms: C_12  and  C_13 
REMARK    9  A    between atoms: C_14  and  C_15 
REMARK   10  A    between atoms: C_15  and  C_16 
REMARK   11  A    between atoms: C_16  and  C_17 
REMARK   12  A    between atoms: C_17  and  C_18 
REMARK   13  A    between atoms: C_18  and  C_19 
ROOT
HETATM    1  C   LIG     1      43.283  -8.403  -3.831  1.00  0.00     0.180 C 
HETATM    2  C   LIG     1      43.845  -8.184  -2.418  1.00  0.00     0.183 C 
HETATM    3  C   LIG     1      42.713  -8.167  -1.398  1.00  0.00     0.204 C 
HETATM    4  C   LIG     1      41.716  -7.062  -1.791  1.00  0.00     0.291 C 
HETATM    5  O   LIG     1      41.161  -7.380  -3.074  1.00  0.00    -0.348 OA
HETATM    6  C   LIG     1      42.130  -7.420  -4.136  1.00  0.00     0.179 C 
ENDROOT
BRANCH   4   7
HETATM    7  O   LIG     1      42.311  -5.760  -1.839  1.00  0.00    -0.355 OA
BRANCH   7   8
HETATM    8  C   LIG     1      41.579  -4.812  -1.066  1.00  0.00     0.198 C 
BRANCH   8   9
HETATM    9  C   LIG     1      40.372  -4.385  -1.841  1.00  0.00    -0.005 C 
HETATM   10  C   LIG     1      39.122  -4.522  -1.363  1.00  0.00    -0.029 C 
BRANCH  10  11
HETATM   11  C   LIG     1      37.878  -4.153  -2.117  1.00  0.00     0.027 C 
BRANCH  11  12
HETATM   12  C   LIG     1      36.985  -5.382  -2.327  1.00  0.00     0.004 C 
BRANCH  12  13
HETATM   13  C   LIG     1      37.790  -6.682  -2.287  1.00  0.00     0.000 C 
BRANCH  13  14
HETATM   14  C   LIG     1      37.682  -7.434  -3.615  1.00  0.00    -0.000 C 
BRANCH  14  15
HETATM   15  C   LIG     1      36.642  -8.550  -3.538  1.00  0.00    -0.005 C 
HETATM   16  C   LIG     1      35.376  -8.185  -4.299  1.00  0.00     0.005 C 
ENDBRANCH  14  15
ENDBRANCH  13  14
ENDBRANCH  12  13
ENDBRANCH  11  12
ENDBRANCH  10  11
ENDBRANCH   8   9
ENDBRANCH   7   8
ENDBRANCH   4   7
BRANCH   3  17
HETATM   17  O   LIG     1      43.252  -8.019  -0.081  1.00  0.00    -0.388 OA
HETATM   18  H   LIG     1      43.279  -8.928   0.285  1.00  0.00     0.210 HD
ENDBRANCH   3  17
BRANCH   2  19
HETATM   19  O   LIG     1      44.764  -9.226  -2.038  1.00  0.00    -0.390 OA
HETATM   20  H   LIG     1      45.655  -8.831  -1.993  1.00  0.00     0.210 HD
ENDBRANCH   2  19
BRANCH   6  21
HETATM   21  C   LIG     1      41.359  -7.811  -5.413  1.00  0.00     0.198 C 
BRANCH  21  22
HETATM   22  O   LIG     1      41.717  -9.081  -5.938  1.00  0.00    -0.398 OA
HETATM   23  H   LIG     1      42.497  -8.965  -6.507  1.00  0.00     0.209 HD
ENDBRANCH  21  22
ENDBRANCH   6  21
BRANCH   1  24
HETATM   24  O   LIG     1      44.361  -8.306  -4.766  1.00  0.00    -0.390 OA
HETATM   25  H   LIG     1      44.566  -9.196  -5.102  1.00  0.00     0.210 HD
ENDBRANCH   1  24
TORSDOF 13
ENDMDL
MODEL 2
REMARK VINA RESULT:      -5.2      7.881     10.460
REMARK  13 active torsions:
REMARK  status: ('A' for Active; 'I' for Inactive)
REMARK    1  A    between atoms: C_1  and  O_21 
REMARK    2  A    between atoms: C_2  and  O_9 
REMARK    3  A    between atoms: C_3  and  O_10 
REMARK    4  A    between atoms: C_4  and  O_11 
REMARK    5  A    between atoms: C_6  and  C_7 
REMARK    6  A    between atoms: C_7  and  O_8 
REMARK    7  A    between atoms: O_11  and  C_12 
REMARK    8  A    between atoms: C_12  and  C_13 
REMARK    9  A    between atoms: C_14  and  C_15 
REMARK   10  A    between atoms: C_15  and  C_16 
REMARK   11  A    between atoms: C_16  and  C_17 
REMARK   12  A    between atoms: C_17  and  C_18 
REMARK   13  A    between atoms: C_18  and  C_19 
ROOT
HETATM    1  C   LIG     1      41.190   5.556   0.704  1.00  0.00     0.180 C 
HETATM    2  C   LIG     1      39.854   4.832   0.938  1.00  0.00     0.183 C 
HETATM    3  C   LIG     1      40.084   3.546   1.722  1.00  0.00     0.204 C 
HETATM    4  C   LIG     1      41.076   2.667   0.939  1.00  0.00     0.291 C 
HETATM    5  O   LIG     1      42.326   3.363   0.841  1.00  0.00    -0.348 OA
HETATM    6  C   LIG     1      42.251   4.600   0.112  1.00  0.00     0.179 C 
ENDROOT
BRANCH   4   7
HETATM    7  O   LIG     1      40.614   2.329  -0.374  1.00  0.00    -0.355 OA
BRANCH   7   8
HETATM    8  C   LIG     1      40.910   0.976  -0.710  1.00  0.00     0.198 C 
BRANCH   8   9
HETATM    9  C   LIG     1      39.938   0.080  -0.007  1.00  0.00    -0.005 C 
HETATM   10  C   LIG     1      39.855  -1.238  -0.266  1.00  0.00    -0.029 C 
BRANCH  10  11
HETATM   11  C   LIG     1      38.868  -2.169   0.376  1.00  0.00     0.027 C 
BRANCH  11  12
HETATM   12  C   LIG     1      39.117  -3.615  -0.069  1.00  0.00     0.004 C 
BRANCH  12  13
HETATM   13  C   LIG     1      38.838  -3.806  -1.560  1.00  0.00     0.000 C 
BRANCH  13  14
HETATM   14  C   LIG     1      37.821  -4.925  -1.789  1.00  0.00    -0.000 C 
BRANCH  14  15
HETATM   15  C   LIG     1      37.765  -5.878  -0.596  1.00  0.00    -0.005 C 
HETATM   16  C   LIG     1      37.427  -7.296  -1.031  1.00  0.00     0.005 C 
ENDBRANCH  14  15
ENDBRANCH  13  14
ENDBRANCH  12  13
ENDBRANCH  11  12
ENDBRANCH  10  11
ENDBRANCH   8   9
ENDBRANCH   7   8
ENDBRANCH   4   7
BRANCH   3  17
HETATM   17  O   LIG     1      38.829   2.910   1.983  1.00  0.00    -0.388 OA
HETATM   18  H   LIG     1      38.155   3.601   1.814  1.00  0.00     0.210 HD
ENDBRANCH   3  17
BRANCH   2  19
HETATM   19  O   LIG     1      38.929   5.643   1.686  1.00  0.00    -0.390 OA
HETATM   20  H   LIG     1      39.438   6.119   2.370  1.00  0.00     0.210 HD
ENDBRANCH   2  19
BRANCH   6  21
HETATM   21  C   LIG     1      43.665   5.212   0.148  1.00  0.00     0.198 C 
BRANCH  21  22
HETATM   22  O   LIG     1      44.616   4.428   0.852  1.00  0.00    -0.398 OA
HETATM   23  H   LIG     1      45.305   4.152   0.225  1.00  0.00     0.209 HD
ENDBRANCH  21  22
ENDBRANCH   6  21
BRANCH   1  24
HETATM   24  O   LIG     1      40.945   6.698  -0.123  1.00  0.00    -0.390 OA
HETATM   25  H   LIG     1      39.995   6.906  -0.097  1.00  0.00     0.210 HD
ENDBRANCH   1  24
TORSDOF 13
ENDMDL
MODEL 3
REMARK VINA RESULT:      -5.2      3.706      5.809
REMARK  13 active torsions:
REMARK  status: ('A' for Active; 'I' for Inactive)
REMARK    1  A    between atoms: C_1  and  O_21 
REMARK    2  A    between atoms: C_2  and  O_9 
REMARK    3  A    between atoms: C_3  and  O_10 
REMARK    4  A    between atoms: C_4  and  O_11 
REMARK    5  A    between atoms: C_6  and  C_7 
REMARK    6  A    between atoms: C_7  and  O_8 
REMARK    7  A    between atoms: O_11  and  C_12 
REMARK    8  A    between atoms: C_12  and  C_13 
REMARK    9  A    between atoms: C_14  and  C_15 
REMARK   10  A    between atoms: C_15  and  C_16 
REMARK   11  A    between atoms: C_16  and  C_17 
REMARK   12  A    between atoms: C_17  and  C_18 
REMARK   13  A    between atoms: C_18  and  C_19 
ROOT
HETATM    1  C   LIG     1      43.102  -6.100  -4.388  1.00  0.00     0.180 C 
HETATM    2  C   LIG     1      41.921  -6.938  -3.873  1.00  0.00     0.183 C 
HETATM    3  C   LIG     1      40.606  -6.227  -4.164  1.00  0.00     0.204 C 
HETATM    4  C   LIG     1      40.646  -4.835  -3.507  1.00  0.00     0.291 C 
HETATM    5  O   LIG     1      41.708  -4.077  -4.102  1.00  0.00    -0.348 OA
HETATM    6  C   LIG     1      43.015  -4.639  -3.892  1.00  0.00     0.179 C 
ENDROOT
BRANCH   4   7
HETATM    7  O   LIG     1      40.835  -4.889  -2.088  1.00  0.00    -0.355 OA
BRANCH   7   8
HETATM    8  C   LIG     1      39.629  -4.612  -1.379  1.00  0.00     0.198 C 
BRANCH   8   9
HETATM    9  C   LIG     1      39.807  -3.348  -0.597  1.00  0.00    -0.005 C 
HETATM   10  C   LIG     1      39.268  -3.172   0.622  1.00  0.00    -0.029 C 
BRANCH  10  11
HETATM   11  C   LIG     1      39.377  -1.909   1.427  1.00  0.00     0.027 C 
BRANCH  11  12
HETATM   12  C   LIG     1      39.712  -0.717   0.523  1.00  0.00     0.004 C 
BRANCH  12  13
HETATM   13  C   LIG     1      40.978   0.007   0.985  1.00  0.00     0.000 C 
BRANCH  13  14
HETATM   14  C   LIG     1      40.776   1.523   0.979  1.00  0.00    -0.000 C 
BRANCH  14  15
HETATM   15  C   LIG     1      39.438   1.903   0.346  1.00  0.00    -0.005 C 
HETATM   16  C   LIG     1      39.590   3.068  -0.620  1.00  0.00     0.005 C 
ENDBRANCH  14  15
ENDBRANCH  13  14
ENDBRANCH  12  13
ENDBRANCH  11  12
ENDBRANCH  10  11
ENDBRANCH   8   9
ENDBRANCH   7   8
ENDBRANCH   4   7
BRANCH   3  17
HETATM   17  O   LIG     1      39.511  -7.040  -3.731  1.00  0.00    -0.388 OA
HETATM   18  H   LIG     1      38.807  -6.891  -4.395  1.00  0.00     0.210 HD
ENDBRANCH   3  17
BRANCH   2  19
HETATM   19  O   LIG     1      41.869  -8.234  -4.498  1.00  0.00    -0.390 OA
HETATM   20  H   LIG     1      41.162  -8.744  -4.060  1.00  0.00     0.210 HD
ENDBRANCH   2  19
BRANCH   6  21
HETATM   21  C   LIG     1      44.007  -3.718  -4.629  1.00  0.00     0.198 C 
BRANCH  21  22
HETATM   22  O   LIG     1      45.354  -4.164  -4.583  1.00  0.00    -0.398 OA
HETATM   23  H   LIG     1      45.352  -5.115  -4.380  1.00  0.00     0.209 HD
ENDBRANCH  21  22
ENDBRANCH   6  21
BRANCH   1  24
HETATM   24  O   LIG     1      44.318  -6.749  -4.002  1.00  0.00    -0.390 OA
HETATM   25  H   LIG     1      44.290  -7.673  -4.305  1.00  0.00     0.210 HD
ENDBRANCH   1  24
TORSDOF 13
ENDMDL
MODEL 4
REMARK VINA RESULT:      -5.1     13.205     16.335
REMARK  13 active torsions:
REMARK  status: ('A' for Active; 'I' for Inactive)
REMARK    1  A    between atoms: C_1  and  O_21 
REMARK    2  A    between atoms: C_2  and  O_9 
REMARK    3  A    between atoms: C_3  and  O_10 
REMARK    4  A    between atoms: C_4  and  O_11 
REMARK    5  A    between atoms: C_6  and  C_7 
REMARK    6  A    between atoms: C_7  and  O_8 
REMARK    7  A    between atoms: O_11  and  C_12 
REMARK    8  A    between atoms: C_12  and  C_13 
REMARK    9  A    between atoms: C_14  and  C_15 
REMARK   10  A    between atoms: C_15  and  C_16 
REMARK   11  A    between atoms: C_16  and  C_17 
REMARK   12  A    between atoms: C_17  and  C_18 
REMARK   13  A    between atoms: C_18  and  C_19 
ROOT
HETATM    1  C   LIG     1      41.780   6.352   1.503  1.00  0.00     0.180 C 
HETATM    2  C   LIG     1      42.460   5.000   1.237  1.00  0.00     0.183 C 
HETATM    3  C   LIG     1      43.926   5.059   1.647  1.00  0.00     0.204 C 
HETATM    4  C   LIG     1      44.606   6.200   0.869  1.00  0.00     0.291 C 
HETATM    5  O   LIG     1      43.986   7.439   1.238  1.00  0.00    -0.348 OA
HETATM    6  C   LIG     1      42.591   7.519   0.896  1.00  0.00     0.179 C 
ENDROOT
BRANCH   4   7
HETATM    7  O   LIG     1      44.532   6.034  -0.552  1.00  0.00    -0.355 OA
BRANCH   7   8
HETATM    8  C   LIG     1      45.818   5.822  -1.130  1.00  0.00     0.198 C 
BRANCH   8   9
HETATM    9  C   LIG     1      46.483   7.148  -1.330  1.00  0.00    -0.005 C 
HETATM   10  C   LIG     1      47.763   7.260  -1.728  1.00  0.00    -0.029 C 
BRANCH  10  11
HETATM   11  C   LIG     1      48.489   8.563  -1.898  1.00  0.00     0.027 C 
BRANCH  11  12
HETATM   12  C   LIG     1      49.897   8.484  -1.296  1.00  0.00     0.004 C 
BRANCH  12  13
HETATM   13  C   LIG     1      50.973   8.403  -2.379  1.00  0.00     0.000 C 
BRANCH  13  14
HETATM   14  C   LIG     1      51.565   6.994  -2.460  1.00  0.00    -0.000 C 
BRANCH  14  15
HETATM   15  C   LIG     1      50.836   6.144  -3.499  1.00  0.00    -0.005 C 
HETATM   16  C   LIG     1      50.785   6.839  -4.851  1.00  0.00     0.005 C 
ENDBRANCH  14  15
ENDBRANCH  13  14
ENDBRANCH  12  13
ENDBRANCH  11  12
ENDBRANCH  10  11
ENDBRANCH   8   9
ENDBRANCH   7   8
ENDBRANCH   4   7
BRANCH   3  17
HETATM   17  O   LIG     1      44.534   3.779   1.447  1.00  0.00    -0.388 OA
HETATM   18  H   LIG     1      43.806   3.197   1.144  1.00  0.00     0.210 HD
ENDBRANCH   3  17
BRANCH   2  19
HETATM   19  O   LIG     1      41.839   3.932   1.977  1.00  0.00    -0.390 OA
HETATM   20  H   LIG     1      40.922   4.203   2.173  1.00  0.00     0.210 HD
ENDBRANCH   2  19
BRANCH   6  21
HETATM   21  C   LIG     1      42.099   8.890   1.400  1.00  0.00     0.198 C 
BRANCH  21  22
HETATM   22  O   LIG     1      40.815   8.856   2.006  1.00  0.00    -0.398 OA
HETATM   23  H   LIG     1      40.157   9.103   1.335  1.00  0.00     0.209 HD
ENDBRANCH  21  22
ENDBRANCH   6  21
BRANCH   1  24
HETATM   24  O   LIG     1      40.439   6.289   1.008  1.00  0.00    -0.390 OA
HETATM   25  H   LIG     1      40.270   5.390   0.676  1.00  0.00     0.210 HD
ENDBRANCH   1  24
TORSDOF 13
ENDMDL
MODEL 5
REMARK VINA RESULT:      -5.1     12.137     15.348
REMARK  13 active torsions:
REMARK  status: ('A' for Active; 'I' for Inactive)
REMARK    1  A    between atoms: C_1  and  O_21 
REMARK    2  A    between atoms: C_2  and  O_9 
REMARK    3  A    between atoms: C_3  and  O_10 
REMARK    4  A    between atoms: C_4  and  O_11 
REMARK    5  A    between atoms: C_6  and  C_7 
REMARK    6  A    between atoms: C_7  and  O_8 
REMARK    7  A    between atoms: O_11  and  C_12 
REMARK    8  A    between atoms: C_12  and  C_13 
REMARK    9  A    between atoms: C_14  and  C_15 
REMARK   10  A    between atoms: C_15  and  C_16 
REMARK   11  A    between atoms: C_16  and  C_17 
REMARK   12  A    between atoms: C_17  and  C_18 
REMARK   13  A    between atoms: C_18  and  C_19 
ROOT
HETATM    1  C   LIG     1      39.585   3.052   0.889  1.00  0.00     0.180 C 
HETATM    2  C   LIG     1      39.510   4.571   0.673  1.00  0.00     0.183 C 
HETATM    3  C   LIG     1      40.316   4.968  -0.558  1.00  0.00     0.204 C 
HETATM    4  C   LIG     1      41.768   4.491  -0.367  1.00  0.00     0.291 C 
HETATM    5  O   LIG     1      41.771   3.061  -0.267  1.00  0.00    -0.348 OA
HETATM    6  C   LIG     1      41.047   2.552   0.866  1.00  0.00     0.179 C 
ENDROOT
BRANCH   4   7
HETATM    7  O   LIG     1      42.395   5.051   0.793  1.00  0.00    -0.355 OA
BRANCH   7   8
HETATM    8  C   LIG     1      43.388   6.013   0.449  1.00  0.00     0.198 C 
BRANCH   8   9
HETATM    9  C   LIG     1      44.338   6.160   1.597  1.00  0.00    -0.005 C 
HETATM   10  C   LIG     1      45.087   7.263   1.777  1.00  0.00    -0.029 C 
BRANCH  10  11
HETATM   11  C   LIG     1      46.086   7.440   2.883  1.00  0.00     0.027 C 
BRANCH  11  12
HETATM   12  C   LIG     1      46.091   8.889   3.384  1.00  0.00     0.004 C 
BRANCH  12  13
HETATM   13  C   LIG     1      45.939   8.965   4.904  1.00  0.00     0.000 C 
BRANCH  13  14
HETATM   14  C   LIG     1      46.365  10.337   5.430  1.00  0.00    -0.000 C 
BRANCH  14  15
HETATM   15  C   LIG     1      45.154  11.176   5.835  1.00  0.00    -0.005 C 
HETATM   16  C   LIG     1      44.874  12.275   4.821  1.00  0.00     0.005 C 
ENDBRANCH  14  15
ENDBRANCH  13  14
ENDBRANCH  12  13
ENDBRANCH  11  12
ENDBRANCH  10  11
ENDBRANCH   8   9
ENDBRANCH   7   8
ENDBRANCH   4   7
BRANCH   3  17
HETATM   17  O   LIG     1      40.194   6.375  -0.783  1.00  0.00    -0.388 OA
HETATM   18  H   LIG     1      40.123   6.769   0.112  1.00  0.00     0.210 HD
ENDBRANCH   3  17
BRANCH   2  19
HETATM   19  O   LIG     1      38.156   5.020   0.474  1.00  0.00    -0.390 OA
HETATM   20  H   LIG     1      37.580   4.232   0.486  1.00  0.00     0.210 HD
ENDBRANCH   2  19
BRANCH   6  21
HETATM   21  C   LIG     1      41.131   1.015   0.780  1.00  0.00     0.198 C 
BRANCH  21  22
HETATM   22  O   LIG     1      40.926   0.355   2.020  1.00  0.00    -0.398 OA
HETATM   23  H   LIG     1      41.395  -0.496   1.992  1.00  0.00     0.209 HD
ENDBRANCH  21  22
ENDBRANCH   6  21
BRANCH   1  24
HETATM   24  O   LIG     1      38.907   2.736   2.110  1.00  0.00    -0.390 OA
HETATM   25  H   LIG     1      39.399   2.034   2.569  1.00  0.00     0.210 HD
ENDBRANCH   1  24
TORSDOF 13
ENDMDL
MODEL 6
REMARK VINA RESULT:      -5.1     10.811     14.052
REMARK  13 active torsions:
REMARK  status: ('A' for Active; 'I' for Inactive)
REMARK    1  A    between atoms: C_1  and  O_21 
REMARK    2  A    between atoms: C_2  and  O_9 
REMARK    3  A    between atoms: C_3  and  O_10 
REMARK    4  A    between atoms: C_4  and  O_11 
REMARK    5  A    between atoms: C_6  and  C_7 
REMARK    6  A    between atoms: C_7  and  O_8 
REMARK    7  A    between atoms: O_11  and  C_12 
REMARK    8  A    between atoms: C_12  and  C_13 
REMARK    9  A    between atoms: C_14  and  C_15 
REMARK   10  A    between atoms: C_15  and  C_16 
REMARK   11  A    between atoms: C_16  and  C_17 
REMARK   12  A    between atoms: C_17  and  C_18 
REMARK   13  A    between atoms: C_18  and  C_19 
ROOT
HETATM    1  C   LIG     1      39.757   3.099   1.101  1.00  0.00     0.180 C 
HETATM    2  C   LIG     1      39.812   4.632   1.189  1.00  0.00     0.183 C 
HETATM    3  C   LIG     1      40.708   5.190   0.090  1.00  0.00     0.204 C 
HETATM    4  C   LIG     1      42.106   4.562   0.233  1.00  0.00     0.291 C 
HETATM    5  O   LIG     1      41.993   3.145   0.046  1.00  0.00    -0.348 OA
HETATM    6  C   LIG     1      41.175   2.489   1.029  1.00  0.00     0.179 C 
ENDROOT
BRANCH   4   7
HETATM    7  O   LIG     1      42.715   4.829   1.502  1.00  0.00    -0.355 OA
BRANCH   7   8
HETATM    8  C   LIG     1      43.741   5.813   1.403  1.00  0.00     0.198 C 
BRANCH   8   9
HETATM    9  C   LIG     1      44.787   5.326   0.448  1.00  0.00    -0.005 C 
HETATM   10  C   LIG     1      45.769   6.122  -0.012  1.00  0.00    -0.029 C 
BRANCH  10  11
HETATM   11  C   LIG     1      46.812   5.696  -1.005  1.00  0.00     0.027 C 
BRANCH  11  12
HETATM   12  C   LIG     1      46.356   6.000  -2.437  1.00  0.00     0.004 C 
BRANCH  12  13
HETATM   13  C   LIG     1      47.542   6.264  -3.366  1.00  0.00     0.000 C 
BRANCH  13  14
HETATM   14  C   LIG     1      48.612   5.181  -3.210  1.00  0.00    -0.000 C 
BRANCH  14  15
HETATM   15  C   LIG     1      49.867   5.521  -4.012  1.00  0.00    -0.005 C 
HETATM   16  C   LIG     1      50.851   6.337  -3.186  1.00  0.00     0.005 C 
ENDBRANCH  14  15
ENDBRANCH  13  14
ENDBRANCH  12  13
ENDBRANCH  11  12
ENDBRANCH  10  11
ENDBRANCH   8   9
ENDBRANCH   7   8
ENDBRANCH   4   7
BRANCH   3  17
HETATM   17  O   LIG     1      40.707   6.620   0.145  1.00  0.00    -0.388 OA
HETATM   18  H   LIG     1      40.546   6.909  -0.778  1.00  0.00     0.210 HD
ENDBRANCH   3  17
BRANCH   2  19
HETATM   19  O   LIG     1      38.508   5.226   1.037  1.00  0.00    -0.390 OA
HETATM   20  H   LIG     1      38.065   4.778   0.291  1.00  0.00     0.210 HD
ENDBRANCH   2  19
BRANCH   6  21
HETATM   21  C   LIG     1      41.144   0.997   0.643  1.00  0.00     0.198 C 
BRANCH  21  22
HETATM   22  O   LIG     1      42.351   0.303   0.918  1.00  0.00    -0.398 OA
HETATM   23  H   LIG     1      42.208  -0.640   0.733  1.00  0.00     0.209 HD
ENDBRANCH  21  22
ENDBRANCH   6  21
BRANCH   1  24
HETATM   24  O   LIG     1      38.995   2.611   2.210  1.00  0.00    -0.390 OA
HETATM   25  H   LIG     1      39.230   1.680   2.366  1.00  0.00     0.210 HD
ENDBRANCH   1  24
TORSDOF 13
ENDMDL
MODEL 7
REMARK VINA RESULT:      -5.1      7.737     10.520
REMARK  13 active torsions:
REMARK  status: ('A' for Active; 'I' for Inactive)
REMARK    1  A    between atoms: C_1  and  O_21 
REMARK    2  A    between atoms: C_2  and  O_9 
REMARK    3  A    between atoms: C_3  and  O_10 
REMARK    4  A    between atoms: C_4  and  O_11 
REMARK    5  A    between atoms: C_6  and  C_7 
REMARK    6  A    between atoms: C_7  and  O_8 
REMARK    7  A    between atoms: O_11  and  C_12 
REMARK    8  A    between atoms: C_12  and  C_13 
REMARK    9  A    between atoms: C_14  and  C_15 
REMARK   10  A    between atoms: C_15  and  C_16 
REMARK   11  A    between atoms: C_16  and  C_17 
REMARK   12  A    between atoms: C_17  and  C_18 
REMARK   13  A    between atoms: C_18  and  C_19 
ROOT
HETATM    1  C   LIG     1      39.814   4.948   0.872  1.00  0.00     0.180 C 
HETATM    2  C   LIG     1      41.015   4.421   1.674  1.00  0.00     0.183 C 
HETATM    3  C   LIG     1      41.889   3.537   0.792  1.00  0.00     0.204 C 
HETATM    4  C   LIG     1      41.024   2.388   0.241  1.00  0.00     0.291 C 
HETATM    5  O   LIG     1      39.984   2.947  -0.573  1.00  0.00    -0.348 OA
HETATM    6  C   LIG     1      39.076   3.801   0.145  1.00  0.00     0.179 C 
ENDROOT
BRANCH   4   7
HETATM    7  O   LIG     1      40.443   1.579   1.270  1.00  0.00    -0.355 OA
BRANCH   7   8
HETATM    8  C   LIG     1      41.092   0.315   1.384  1.00  0.00     0.198 C 
BRANCH   8   9
HETATM    9  C   LIG     1      40.054  -0.746   1.579  1.00  0.00    -0.005 C 
HETATM   10  C   LIG     1      39.908  -1.778   0.729  1.00  0.00    -0.029 C 
BRANCH  10  11
HETATM   11  C   LIG     1      38.855  -2.841   0.855  1.00  0.00     0.027 C 
BRANCH  11  12
HETATM   12  C   LIG     1      38.805  -3.709  -0.408  1.00  0.00     0.004 C 
BRANCH  12  13
HETATM   13  C   LIG     1      39.493  -3.028  -1.592  1.00  0.00     0.000 C 
BRANCH  13  14
HETATM   14  C   LIG     1      38.466  -2.383  -2.525  1.00  0.00    -0.000 C 
BRANCH  14  15
HETATM   15  C   LIG     1      39.081  -1.230  -3.316  1.00  0.00    -0.005 C 
HETATM   16  C   LIG     1      39.300  -0.007  -2.438  1.00  0.00     0.005 C 
ENDBRANCH  14  15
ENDBRANCH  13  14
ENDBRANCH  12  13
ENDBRANCH  11  12
ENDBRANCH  10  11
ENDBRANCH   8   9
ENDBRANCH   7   8
ENDBRANCH   4   7
BRANCH   3  17
HETATM   17  O   LIG     1      43.032   3.098   1.532  1.00  0.00    -0.388 OA
HETATM   18  H   LIG     1      43.191   3.803   2.194  1.00  0.00     0.210 HD
ENDBRANCH   3  17
BRANCH   2  19
HETATM   19  O   LIG     1      41.837   5.491   2.176  1.00  0.00    -0.390 OA
HETATM   20  H   LIG     1      42.268   5.916   1.410  1.00  0.00     0.210 HD
ENDBRANCH   2  19
BRANCH   6  21
HETATM   21  C   LIG     1      38.066   4.329  -0.893  1.00  0.00     0.198 C 
BRANCH  21  22
HETATM   22  O   LIG     1      37.334   5.466  -0.459  1.00  0.00    -0.398 OA
HETATM   23  H   LIG     1      37.230   6.067  -1.216  1.00  0.00     0.209 HD
ENDBRANCH  21  22
ENDBRANCH   6  21
BRANCH   1  24
HETATM   24  O   LIG     1      38.966   5.682   1.760  1.00  0.00    -0.390 OA
HETATM   25  H   LIG     1      39.516   6.103   2.443  1.00  0.00     0.210 HD
ENDBRANCH   1  24
TORSDOF 13
ENDMDL
MODEL 8
REMARK VINA RESULT:      -5.1     15.580     18.738
REMARK  13 active torsions:
REMARK  status: ('A' for Active; 'I' for Inactive)
REMARK    1  A    between atoms: C_1  and  O_21 
REMARK    2  A    between atoms: C_2  and  O_9 
REMARK    3  A    between atoms: C_3  and  O_10 
REMARK    4  A    between atoms: C_4  and  O_11 
REMARK    5  A    between atoms: C_6  and  C_7 
REMARK    6  A    between atoms: C_7  and  O_8 
REMARK    7  A    between atoms: O_11  and  C_12 
REMARK    8  A    between atoms: C_12  and  C_13 
REMARK    9  A    between atoms: C_14  and  C_15 
REMARK   10  A    between atoms: C_15  and  C_16 
REMARK   11  A    between atoms: C_16  and  C_17 
REMARK   12  A    between atoms: C_17  and  C_18 
REMARK   13  A    between atoms: C_18  and  C_19 
ROOT
HETATM    1  C   LIG     1      42.407   6.753   1.073  1.00  0.00     0.180 C 
HETATM    2  C   LIG     1      42.056   8.080   1.763  1.00  0.00     0.183 C 
HETATM    3  C   LIG     1      43.117   9.130   1.457  1.00  0.00     0.204 C 
HETATM    4  C   LIG     1      44.484   8.593   1.920  1.00  0.00     0.291 C 
HETATM    5  O   LIG     1      44.790   7.410   1.168  1.00  0.00    -0.348 OA
HETATM    6  C   LIG     1      43.863   6.331   1.374  1.00  0.00     0.179 C 
ENDROOT
BRANCH   4   7
HETATM    7  O   LIG     1      44.525   8.292   3.320  1.00  0.00    -0.355 OA
BRANCH   7   8
HETATM    8  C   LIG     1      45.852   8.346   3.837  1.00  0.00     0.198 C 
BRANCH   8   9
HETATM    9  C   LIG     1      46.312   9.771   3.839  1.00  0.00    -0.005 C 
HETATM   10  C   LIG     1      47.588  10.117   3.591  1.00  0.00    -0.029 C 
BRANCH  10  11
HETATM   11  C   LIG     1      48.109  11.525   3.626  1.00  0.00     0.027 C 
BRANCH  11  12
HETATM   12  C   LIG     1      49.169  11.685   4.723  1.00  0.00     0.004 C 
BRANCH  12  13
HETATM   13  C   LIG     1      48.626  11.293   6.098  1.00  0.00     0.000 C 
BRANCH  13  14
HETATM   14  C   LIG     1      49.460  10.168   6.715  1.00  0.00    -0.000 C 
BRANCH  14  15
HETATM   15  C   LIG     1      50.009  10.570   8.083  1.00  0.00    -0.005 C 
HETATM   16  C   LIG     1      51.435  11.089   7.980  1.00  0.00     0.005 C 
ENDBRANCH  14  15
ENDBRANCH  13  14
ENDBRANCH  12  13
ENDBRANCH  11  12
ENDBRANCH  10  11
ENDBRANCH   8   9
ENDBRANCH   7   8
ENDBRANCH   4   7
BRANCH   3  17
HETATM   17  O   LIG     1      42.752  10.376   2.058  1.00  0.00    -0.388 OA
HETATM   18  H   LIG     1      43.313  11.045   1.613  1.00  0.00     0.210 HD
ENDBRANCH   3  17
BRANCH   2  19
HETATM   19  O   LIG     1      40.787   8.597   1.320  1.00  0.00    -0.390 OA
HETATM   20  H   LIG     1      40.307   7.867   0.885  1.00  0.00     0.210 HD
ENDBRANCH   2  19
BRANCH   6  21
HETATM   21  C   LIG     1      44.330   5.178   0.465  1.00  0.00     0.198 C 
BRANCH  21  22
HETATM   22  O   LIG     1      43.280   4.537  -0.244  1.00  0.00    -0.398 OA
HETATM   23  H   LIG     1      42.703   4.095   0.402  1.00  0.00     0.209 HD
ENDBRANCH  21  22
ENDBRANCH   6  21
BRANCH   1  24
HETATM   24  O   LIG     1      41.447   5.769   1.470  1.00  0.00    -0.390 OA
HETATM   25  H   LIG     1      40.560   6.075   1.212  1.00  0.00     0.210 HD
ENDBRANCH   1  24
TORSDOF 13
ENDMDL
MODEL 9
REMARK VINA RESULT:      -5.0     20.717     22.805
REMARK  13 active torsions:
REMARK  status: ('A' for Active; 'I' for Inactive)
REMARK    1  A    between atoms: C_1  and  O_21 
REMARK    2  A    between atoms: C_2  and  O_9 
REMARK    3  A    between atoms: C_3  and  O_10 
REMARK    4  A    between atoms: C_4  and  O_11 
REMARK    5  A    between atoms: C_6  and  C_7 
REMARK    6  A    between atoms: C_7  and  O_8 
REMARK    7  A    between atoms: O_11  and  C_12 
REMARK    8  A    between atoms: C_12  and  C_13 
REMARK    9  A    between atoms: C_14  and  C_15 
REMARK   10  A    between atoms: C_15  and  C_16 
REMARK   11  A    between atoms: C_16  and  C_17 
REMARK   12  A    between atoms: C_17  and  C_18 
REMARK   13  A    between atoms: C_18  and  C_19 
ROOT
HETATM    1  C   LIG     1      44.495  12.339   3.534  1.00  0.00     0.180 C 
HETATM    2  C   LIG     1      45.131  11.779   4.817  1.00  0.00     0.183 C 
HETATM    3  C   LIG     1      46.147  12.768   5.375  1.00  0.00     0.204 C 
HETATM    4  C   LIG     1      47.205  13.046   4.290  1.00  0.00     0.291 C 
HETATM    5  O   LIG     1      46.558  13.653   3.164  1.00  0.00    -0.348 OA
HETATM    6  C   LIG     1      45.573  12.816   2.535  1.00  0.00     0.179 C 
ENDROOT
BRANCH   4   7
HETATM    7  O   LIG     1      47.897  11.867   3.864  1.00  0.00    -0.355 OA
BRANCH   7   8
HETATM    8  C   LIG     1      49.253  12.140   3.522  1.00  0.00     0.198 C 
BRANCH   8   9
HETATM    9  C   LIG     1      50.114  11.890   4.721  1.00  0.00    -0.005 C 
HETATM   10  C   LIG     1      51.406  11.531   4.619  1.00  0.00    -0.029 C 
BRANCH  10  11
HETATM   11  C   LIG     1      52.298  11.224   5.787  1.00  0.00     0.027 C 
BRANCH  11  12
HETATM   12  C   LIG     1      51.564  10.359   6.820  1.00  0.00     0.004 C 
BRANCH  12  13
HETATM   13  C   LIG     1      51.350  11.107   8.136  1.00  0.00     0.000 C 
BRANCH  13  14
HETATM   14  C   LIG     1      49.859  11.311   8.414  1.00  0.00    -0.000 C 
BRANCH  14  15
HETATM   15  C   LIG     1      49.512  12.795   8.521  1.00  0.00    -0.005 C 
HETATM   16  C   LIG     1      49.019  13.153   9.915  1.00  0.00     0.005 C 
ENDBRANCH  14  15
ENDBRANCH  13  14
ENDBRANCH  12  13
ENDBRANCH  11  12
ENDBRANCH  10  11
ENDBRANCH   8   9
ENDBRANCH   7   8
ENDBRANCH   4   7
BRANCH   3  17
HETATM   17  O   LIG     1      46.691  12.263   6.597  1.00  0.00    -0.388 OA
HETATM   18  H   LIG     1      47.554  12.717   6.697  1.00  0.00     0.210 HD
ENDBRANCH   3  17
BRANCH   2  19
HETATM   19  O   LIG     1      44.148  11.535   5.841  1.00  0.00    -0.390 OA
HETATM   20  H   LIG     1      44.623  11.246   6.643  1.00  0.00     0.210 HD
ENDBRANCH   2  19
BRANCH   6  21
HETATM   21  C   LIG     1      44.968  13.645   1.385  1.00  0.00     0.198 C 
BRANCH  21  22
HETATM   22  O   LIG     1      43.741  14.280   1.713  1.00  0.00    -0.398 OA
HETATM   23  H   LIG     1      43.689  15.114   1.217  1.00  0.00     0.209 HD
ENDBRANCH  21  22
ENDBRANCH   6  21
BRANCH   1  24
HETATM   24  O   LIG     1      43.630  11.339   2.986  1.00  0.00    -0.390 OA
HETATM   25  H   LIG     1      43.448  10.672   3.671  1.00  0.00     0.210 HD
ENDBRANCH   1  24
TORSDOF 13
ENDMDL
