MODEL 1
REMARK VINA RESULT:      -5.7      0.000      0.000
REMARK  12 active torsions:
REMARK  status: ('A' for Active; 'I' for Inactive)
REMARK    1  A    between atoms: C_1  and  O_20 
REMARK    2  A    between atoms: C_2  and  O_9 
REMARK    3  A    between atoms: C_3  and  O_10 
REMARK    4  A    between atoms: C_4  and  O_11 
REMARK    5  A    between atoms: C_6  and  C_7 
REMARK    6  A    between atoms: C_7  and  O_8 
REMARK    7  A    between atoms: O_11  and  C_12 
REMARK    8  A    between atoms: C_12  and  C_13 
REMARK    9  A    between atoms: C_14  and  C_15 
REMARK   10  A    between atoms: C_15  and  C_16 
REMARK   11  A    between atoms: C_16  and  C_17 
REMARK   12  A    between atoms: C_17  and  C_18 
ROOT
HETATM    1  C   LIG     1      39.849   3.343   1.420  1.00  0.00     0.180 C 
HETATM    2  C   LIG     1      40.238   4.714   1.962  1.00  0.00     0.183 C 
HETATM    3  C   LIG     1      41.496   5.265   1.291  1.00  0.00     0.204 C 
HETATM    4  C   LIG     1      42.635   4.219   1.349  1.00  0.00     0.291 C 
HETATM    5  O   LIG     1      42.179   2.961   0.818  1.00  0.00    -0.348 OA
HETATM    6  C   LIG     1      41.063   2.406   1.511  1.00  0.00     0.179 C 
ENDROOT
BRANCH   4   7
HETATM    7  O   LIG     1      43.773   4.569   0.559  1.00  0.00    -0.355 OA
BRANCH   7   8
HETATM    8  C   LIG     1      44.874   5.179   1.221  1.00  0.00     0.198 C 
BRANCH   8   9
HETATM    9  C   LIG     1      45.582   6.180   0.355  1.00  0.00    -0.005 C 
HETATM   10  C   LIG     1      46.400   5.862  -0.661  1.00  0.00    -0.029 C 
BRANCH  10  11
HETATM   11  C   LIG     1      47.108   6.872  -1.519  1.00  0.00     0.027 C 
BRANCH  11  12
HETATM   12  C   LIG     1      47.908   6.204  -2.639  1.00  0.00     0.004 C 
BRANCH  12  13
HETATM   13  C   LIG     1      49.157   7.020  -2.983  1.00  0.00    -0.000 C 
BRANCH  13  14
HETATM   14  C   LIG     1      50.374   6.122  -3.204  1.00  0.00    -0.005 C 
HETATM   15  C   LIG     1      51.653   6.797  -2.734  1.00  0.00     0.005 C 
ENDBRANCH  13  14
ENDBRANCH  12  13
ENDBRANCH  11  12
ENDBRANCH  10  11
ENDBRANCH   8   9
ENDBRANCH   7   8
ENDBRANCH   4   7
BRANCH   3  16
HETATM   16  O   LIG     1      41.827   6.486   1.975  1.00  0.00    -0.388 OA
HETATM   17  H   LIG     1      40.962   6.870   2.231  1.00  0.00     0.210 HD
ENDBRANCH   3  16
BRANCH   2  18
HETATM   18  O   LIG     1      39.156   5.645   1.775  1.00  0.00    -0.390 OA
HETATM   19  H   LIG     1      38.365   5.082   1.653  1.00  0.00     0.210 HD
ENDBRANCH   2  18
BRANCH   6  20
HETATM   20  C   LIG     1      40.756   1.037   0.887  1.00  0.00     0.198 C 
BRANCH  20  21
HETATM   21  O   LIG     1      39.972   0.237   1.770  1.00  0.00    -0.398 OA
HETATM   22  H   LIG     1      39.435  -0.351   1.205  1.00  0.00     0.209 HD
ENDBRANCH  20  21
ENDBRANCH   6  20
BRANCH   1  23
HETATM   23  O   LIG     1      38.730   2.880   2.188  1.00  0.00    -0.390 OA
HETATM   24  H   LIG     1      38.883   1.923   2.351  1.00  0.00     0.210 HD
ENDBRANCH   1  23
TORSDOF 12
ENDMDL
MODEL 2
REMARK VINA RESULT:      -5.7      2.689      4.092
REMARK  12 active torsions:
REMARK  status: ('A' for Active; 'I' for Inactive)
REMARK    1  A    between atoms: C_1  and  O_20 
REMARK    2  A    between atoms: C_2  and  O_9 
REMARK    3  A    between atoms: C_3  and  O_10 
REMARK    4  A    between atoms: C_4  and  O_11 
REMARK    5  A    between atoms: C_6  and  C_7 
REMARK    6  A    between atoms: C_7  and  O_8 
REMARK    7  A    between atoms: O_11  and  C_12 
REMARK    8  A    between atoms: C_12  and  C_13 
REMARK    9  A    between atoms: C_14  and  C_15 
REMARK   10  A    between atoms: C_15  and  C_16 
REMARK   11  A    between atoms: C_16  and  C_17 
REMARK   12  A    between atoms: C_17  and  C_18 
ROOT
HETATM    1  C   LIG     1      40.245   3.402   1.144  1.00  0.00     0.180 C 
HETATM    2  C   LIG     1      40.613   4.766   1.719  1.00  0.00     0.183 C 
HETATM    3  C   LIG     1      42.064   5.144   1.427  1.00  0.00     0.204 C 
HETATM    4  C   LIG     1      43.013   4.001   1.861  1.00  0.00     0.291 C 
HETATM    5  O   LIG     1      42.591   2.758   1.271  1.00  0.00    -0.348 OA
HETATM    6  C   LIG     1      41.267   2.363   1.627  1.00  0.00     0.179 C 
ENDROOT
BRANCH   4   7
HETATM    7  O   LIG     1      44.363   4.182   1.428  1.00  0.00    -0.355 OA
BRANCH   7   8
HETATM    8  C   LIG     1      44.600   5.119   0.385  1.00  0.00     0.198 C 
BRANCH   8   9
HETATM    9  C   LIG     1      45.748   6.039   0.688  1.00  0.00    -0.005 C 
HETATM   10  C   LIG     1      45.930   6.665   1.861  1.00  0.00    -0.029 C 
BRANCH  10  11
HETATM   11  C   LIG     1      47.080   7.587   2.153  1.00  0.00     0.027 C 
BRANCH  11  12
HETATM   12  C   LIG     1      46.607   9.016   2.428  1.00  0.00     0.004 C 
BRANCH  12  13
HETATM   13  C   LIG     1      45.460   9.028   3.442  1.00  0.00    -0.000 C 
BRANCH  13  14
HETATM   14  C   LIG     1      45.979   9.036   4.880  1.00  0.00    -0.005 C 
HETATM   15  C   LIG     1      45.824  10.409   5.517  1.00  0.00     0.005 C 
ENDBRANCH  13  14
ENDBRANCH  12  13
ENDBRANCH  11  12
ENDBRANCH  10  11
ENDBRANCH   8   9
ENDBRANCH   7   8
ENDBRANCH   4   7
BRANCH   3  16
HETATM   16  O   LIG     1      42.319   6.374   2.128  1.00  0.00    -0.388 OA
HETATM   17  H   LIG     1      41.605   6.432   2.797  1.00  0.00     0.210 HD
ENDBRANCH   3  16
BRANCH   2  18
HETATM   18  O   LIG     1      39.743   5.780   1.183  1.00  0.00    -0.390 OA
HETATM   19  H   LIG     1      39.149   5.298   0.572  1.00  0.00     0.210 HD
ENDBRANCH   2  18
BRANCH   6  20
HETATM   20  C   LIG     1      41.002   0.988   0.996  1.00  0.00     0.198 C 
BRANCH  20  21
HETATM   21  O   LIG     1      42.197   0.210   0.946  1.00  0.00    -0.398 OA
HETATM   22  H   LIG     1      42.205  -0.333   1.757  1.00  0.00     0.209 HD
ENDBRANCH  20  21
ENDBRANCH   6  20
BRANCH   1  23
HETATM   23  O   LIG     1      38.908   3.105   1.565  1.00  0.00    -0.390 OA
HETATM   24  H   LIG     1      38.977   2.358   2.199  1.00  0.00     0.210 HD
ENDBRANCH   1  23
TORSDOF 12
ENDMDL
MODEL 3
REMARK VINA RESULT:      -5.6      4.127      6.491
REMARK  12 active torsions:
REMARK  status: ('A' for Active; 'I' for Inactive)
REMARK    1  A    between atoms: C_1  and  O_20 
REMARK    2  A    between atoms: C_2  and  O_9 
REMARK    3  A    between atoms: C_3  and  O_10 
REMARK    4  A    between atoms: C_4  and  O_11 
REMARK    5  A    between atoms: C_6  and  C_7 
REMARK    6  A    between atoms: C_7  and  O_8 
REMARK    7  A    between atoms: O_11  and  C_12 
REMARK    8  A    between atoms: C_12  and  C_13 
REMARK    9  A    between atoms: C_14  and  C_15 
REMARK   10  A    between atoms: C_15  and  C_16 
REMARK   11  A    between atoms: C_16  and  C_17 
REMARK   12  A    between atoms: C_17  and  C_18 
ROOT
HETATM    1  C   LIG     1      41.365   6.064   1.407  1.00  0.00     0.180 C 
HETATM    2  C   LIG     1      42.280   4.902   1.036  1.00  0.00     0.183 C 
HETATM    3  C   LIG     1      43.638   4.991   1.731  1.00  0.00     0.204 C 
HETATM    4  C   LIG     1      44.267   6.386   1.500  1.00  0.00     0.291 C 
HETATM    5  O   LIG     1      43.336   7.416   1.878  1.00  0.00    -0.348 OA
HETATM    6  C   LIG     1      42.107   7.385   1.155  1.00  0.00     0.179 C 
ENDROOT
BRANCH   4   7
HETATM    7  O   LIG     1      45.433   6.626   2.291  1.00  0.00    -0.355 OA
BRANCH   7   8
HETATM    8  C   LIG     1      46.211   7.777   1.988  1.00  0.00     0.198 C 
BRANCH   8   9
HETATM    9  C   LIG     1      46.621   8.534   3.217  1.00  0.00    -0.005 C 
HETATM   10  C   LIG     1      45.899   8.598   4.346  1.00  0.00    -0.029 C 
BRANCH  10  11
HETATM   11  C   LIG     1      46.317   9.363   5.571  1.00  0.00     0.027 C 
BRANCH  11  12
HETATM   12  C   LIG     1      46.459  10.859   5.283  1.00  0.00     0.004 C 
BRANCH  12  13
HETATM   13  C   LIG     1      45.183  11.615   5.665  1.00  0.00    -0.000 C 
BRANCH  13  14
HETATM   14  C   LIG     1      44.817  12.668   4.619  1.00  0.00    -0.005 C 
HETATM   15  C   LIG     1      44.215  12.030   3.377  1.00  0.00     0.005 C 
ENDBRANCH  13  14
ENDBRANCH  12  13
ENDBRANCH  11  12
ENDBRANCH  10  11
ENDBRANCH   8   9
ENDBRANCH   7   8
ENDBRANCH   4   7
BRANCH   3  16
HETATM   16  O   LIG     1      44.443   3.923   1.201  1.00  0.00    -0.388 OA
HETATM   17  H   LIG     1      43.938   3.590   0.431  1.00  0.00     0.210 HD
ENDBRANCH   3  16
BRANCH   2  18
HETATM   18  O   LIG     1      41.655   3.651   1.378  1.00  0.00    -0.390 OA
HETATM   19  H   LIG     1      42.313   3.192   1.940  1.00  0.00     0.210 HD
ENDBRANCH   2  18
BRANCH   6  20
HETATM   20  C   LIG     1      41.266   8.588   1.606  1.00  0.00     0.198 C 
BRANCH  20  21
HETATM   21  O   LIG     1      42.096   9.712   1.892  1.00  0.00    -0.398 OA
HETATM   22  H   LIG     1      41.526  10.501   1.818  1.00  0.00     0.209 HD
ENDBRANCH  20  21
ENDBRANCH   6  20
BRANCH   1  23
HETATM   23  O   LIG     1      40.172   5.937   0.623  1.00  0.00    -0.390 OA
HETATM   24  H   LIG     1      40.464   5.780  -0.303  1.00  0.00     0.210 HD
ENDBRANCH   1  23
TORSDOF 12
ENDMDL
MODEL 4
REMARK VINA RESULT:      -5.5      3.796      8.311
REMARK  12 active torsions:
REMARK  status: ('A' for Active; 'I' for Inactive)
REMARK    1  A    between atoms: C_1  and  O_20 
REMARK    2  A    between atoms: C_2  and  O_9 
REMARK    3  A    between atoms: C_3  and  O_10 
REMARK    4  A    between atoms: C_4  and  O_11 
REMARK    5  A    between atoms: C_6  and  C_7 
REMARK    6  A    between atoms: C_7  and  O_8 
REMARK    7  A    between atoms: O_11  and  C_12 
REMARK    8  A    between atoms: C_12  and  C_13 
REMARK    9  A    between atoms: C_14  and  C_15 
REMARK   10  A    between atoms: C_15  and  C_16 
REMARK   11  A    between atoms: C_16  and  C_17 
REMARK   12  A    between atoms: C_17  and  C_18 
ROOT
HETATM    1  C   LIG     1      41.357   5.484   1.553  1.00  0.00     0.180 C 
HETATM    2  C   LIG     1      40.021   5.088   0.934  1.00  0.00     0.183 C 
HETATM    3  C   LIG     1      39.888   3.575   0.765  1.00  0.00     0.204 C 
HETATM    4  C   LIG     1      41.120   3.010   0.017  1.00  0.00     0.291 C 
HETATM    5  O   LIG     1      42.331   3.432   0.671  1.00  0.00    -0.348 OA
HETATM    6  C   LIG     1      42.493   4.848   0.739  1.00  0.00     0.179 C 
ENDROOT
BRANCH   4   7
HETATM    7  O   LIG     1      41.177   1.582   0.007  1.00  0.00    -0.355 OA
BRANCH   7   8
HETATM    8  C   LIG     1      41.552   0.929   1.214  1.00  0.00     0.198 C 
BRANCH   8   9
HETATM    9  C   LIG     1      40.575  -0.137   1.618  1.00  0.00    -0.005 C 
HETATM   10  C   LIG     1      40.174  -1.141   0.822  1.00  0.00    -0.029 C 
BRANCH  10  11
HETATM   11  C   LIG     1      39.191  -2.201   1.236  1.00  0.00     0.027 C 
BRANCH  11  12
HETATM   12  C   LIG     1      38.916  -3.192   0.103  1.00  0.00     0.004 C 
BRANCH  12  13
HETATM   13  C   LIG     1      39.984  -3.088  -0.989  1.00  0.00    -0.000 C 
BRANCH  13  14
HETATM   14  C   LIG     1      40.315  -4.456  -1.586  1.00  0.00    -0.005 C 
HETATM   15  C   LIG     1      39.095  -5.364  -1.599  1.00  0.00     0.005 C 
ENDBRANCH  13  14
ENDBRANCH  12  13
ENDBRANCH  11  12
ENDBRANCH  10  11
ENDBRANCH   8   9
ENDBRANCH   7   8
ENDBRANCH   4   7
BRANCH   3  16
HETATM   16  O   LIG     1      38.655   3.347   0.059  1.00  0.00    -0.388 OA
HETATM   17  H   LIG     1      38.161   2.714   0.620  1.00  0.00     0.210 HD
ENDBRANCH   3  16
BRANCH   2  18
HETATM   18  O   LIG     1      38.937   5.570   1.749  1.00  0.00    -0.390 OA
HETATM   19  H   LIG     1      38.132   5.384   1.224  1.00  0.00     0.210 HD
ENDBRANCH   2  18
BRANCH   6  20
HETATM   20  C   LIG     1      43.861   5.132   1.377  1.00  0.00     0.198 C 
BRANCH  20  21
HETATM   21  O   LIG     1      44.613   3.930   1.532  1.00  0.00    -0.398 OA
HETATM   22  H   LIG     1      45.553   4.190   1.517  1.00  0.00     0.209 HD
ENDBRANCH  20  21
ENDBRANCH   6  20
BRANCH   1  23
HETATM   23  O   LIG     1      41.417   6.916   1.566  1.00  0.00    -0.390 OA
HETATM   24  H   LIG     1      42.305   7.153   1.915  1.00  0.00     0.210 HD
ENDBRANCH   1  23
TORSDOF 12
ENDMDL
MODEL 5
REMARK VINA RESULT:      -5.5      6.322      8.195
REMARK  12 active torsions:
REMARK  status: ('A' for Active; 'I' for Inactive)
REMARK    1  A    between atoms: C_1  and  O_20 
REMARK    2  A    between atoms: C_2  and  O_9 
REMARK    3  A    between atoms: C_3  and  O_10 
REMARK    4  A    between atoms: C_4  and  O_11 
REMARK    5  A    between atoms: C_6  and  C_7 
REMARK    6  A    between atoms: C_7  and  O_8 
REMARK    7  A    between atoms: O_11  and  C_12 
REMARK    8  A    between atoms: C_12  and  C_13 
REMARK    9  A    between atoms: C_14  and  C_15 
REMARK   10  A    between atoms: C_15  and  C_16 
REMARK   11  A    between atoms: C_16  and  C_17 
REMARK   12  A    between atoms: C_17  and  C_18 
ROOT
HETATM    1  C   LIG     1      43.731   6.457   1.094  1.00  0.00     0.180 C 
HETATM    2  C   LIG     1      45.245   6.634   1.073  1.00  0.00     0.183 C 
HETATM    3  C   LIG     1      45.773   7.251   2.367  1.00  0.00     0.204 C 
HETATM    4  C   LIG     1      44.992   8.545   2.700  1.00  0.00     0.291 C 
HETATM    5  O   LIG     1      43.577   8.282   2.699  1.00  0.00    -0.348 OA
HETATM    6  C   LIG     1      43.075   7.797   1.455  1.00  0.00     0.179 C 
ENDROOT
BRANCH   4   7
HETATM    7  O   LIG     1      45.276   9.065   4.001  1.00  0.00    -0.355 OA
BRANCH   7   8
HETATM    8  C   LIG     1      45.575  10.452   4.106  1.00  0.00     0.198 C 
BRANCH   8   9
HETATM    9  C   LIG     1      46.355  10.779   5.346  1.00  0.00    -0.005 C 
HETATM   10  C   LIG     1      47.274  11.754   5.430  1.00  0.00    -0.029 C 
BRANCH  10  11
HETATM   11  C   LIG     1      48.053  12.071   6.676  1.00  0.00     0.027 C 
BRANCH  11  12
HETATM   12  C   LIG     1      49.092  10.991   6.985  1.00  0.00     0.004 C 
BRANCH  12  13
HETATM   13  C   LIG     1      50.049  11.451   8.088  1.00  0.00    -0.000 C 
BRANCH  13  14
HETATM   14  C   LIG     1      49.332  12.299   9.139  1.00  0.00    -0.005 C 
HETATM   15  C   LIG     1      50.315  13.152   9.927  1.00  0.00     0.005 C 
ENDBRANCH  13  14
ENDBRANCH  12  13
ENDBRANCH  11  12
ENDBRANCH  10  11
ENDBRANCH   8   9
ENDBRANCH   7   8
ENDBRANCH   4   7
BRANCH   3  16
HETATM   16  O   LIG     1      47.179   7.485   2.169  1.00  0.00    -0.388 OA
HETATM   17  H   LIG     1      47.337   8.376   2.543  1.00  0.00     0.210 HD
ENDBRANCH   3  16
BRANCH   2  18
HETATM   18  O   LIG     1      45.889   5.365   0.857  1.00  0.00    -0.390 OA
HETATM   19  H   LIG     1      46.703   5.406   1.400  1.00  0.00     0.210 HD
ENDBRANCH   2  18
BRANCH   6  20
HETATM   20  C   LIG     1      41.552   7.652   1.588  1.00  0.00     0.198 C 
BRANCH  20  21
HETATM   21  O   LIG     1      40.952   8.891   1.964  1.00  0.00    -0.398 OA
HETATM   22  H   LIG     1      40.385   8.699   2.735  1.00  0.00     0.209 HD
ENDBRANCH  20  21
ENDBRANCH   6  20
BRANCH   1  23
HETATM   23  O   LIG     1      43.337   5.975  -0.198  1.00  0.00    -0.390 OA
HETATM   24  H   LIG     1      43.956   5.244  -0.421  1.00  0.00     0.210 HD
ENDBRANCH   1  23
TORSDOF 12
ENDMDL
MODEL 6
REMARK VINA RESULT:      -5.4      5.566      6.844
REMARK  12 active torsions:
REMARK  status: ('A' for Active; 'I' for Inactive)
REMARK    1  A    between atoms: C_1  and  O_20 
REMARK    2  A    between atoms: C_2  and  O_9 
REMARK    3  A    between atoms: C_3  and  O_10 
REMARK    4  A    between atoms: C_4  and  O_11 
REMARK    5  A    between atoms: C_6  and  C_7 
REMARK    6  A    between atoms: C_7  and  O_8 
REMARK    7  A    between atoms: O_11  and  C_12 
REMARK    8  A    between atoms: C_12  and  C_13 
REMARK    9  A    between atoms: C_14  and  C_15 
REMARK   10  A    between atoms: C_15  and  C_16 
REMARK   11  A    between atoms: C_16  and  C_17 
REMARK   12  A    between atoms: C_17  and  C_18 
ROOT
HETATM    1  C   LIG     1      42.877   6.569   0.871  1.00  0.00     0.180 C 
HETATM    2  C   LIG     1      42.148   7.778   1.446  1.00  0.00     0.183 C 
HETATM    3  C   LIG     1      43.015   9.037   1.430  1.00  0.00     0.204 C 
HETATM    4  C   LIG     1      44.384   8.752   2.094  1.00  0.00     0.291 C 
HETATM    5  O   LIG     1      44.996   7.599   1.488  1.00  0.00    -0.348 OA
HETATM    6  C   LIG     1      44.222   6.405   1.592  1.00  0.00     0.179 C 
ENDROOT
BRANCH   4   7
HETATM    7  O   LIG     1      45.330   9.810   1.928  1.00  0.00    -0.355 OA
BRANCH   7   8
HETATM    8  C   LIG     1      45.635  10.606   3.067  1.00  0.00     0.198 C 
BRANCH   8   9
HETATM    9  C   LIG     1      46.730  10.014   3.906  1.00  0.00    -0.005 C 
HETATM   10  C   LIG     1      47.120  10.497   5.096  1.00  0.00    -0.029 C 
BRANCH  10  11
HETATM   11  C   LIG     1      48.220   9.899   5.927  1.00  0.00     0.027 C 
BRANCH  11  12
HETATM   12  C   LIG     1      49.053  10.976   6.625  1.00  0.00     0.004 C 
BRANCH  12  13
HETATM   13  C   LIG     1      49.881  10.377   7.765  1.00  0.00    -0.000 C 
BRANCH  13  14
HETATM   14  C   LIG     1      51.321  10.890   7.746  1.00  0.00    -0.005 C 
HETATM   15  C   LIG     1      52.053  10.440   6.492  1.00  0.00     0.005 C 
ENDBRANCH  13  14
ENDBRANCH  12  13
ENDBRANCH  11  12
ENDBRANCH  10  11
ENDBRANCH   8   9
ENDBRANCH   7   8
ENDBRANCH   4   7
BRANCH   3  16
HETATM   16  O   LIG     1      42.268  10.060   2.111  1.00  0.00    -0.388 OA
HETATM   17  H   LIG     1      42.542  10.896   1.681  1.00  0.00     0.210 HD
ENDBRANCH   3  16
BRANCH   2  18
HETATM   18  O   LIG     1      40.940   8.027   0.704  1.00  0.00    -0.390 OA
HETATM   19  H   LIG     1      41.078   7.570  -0.152  1.00  0.00     0.210 HD
ENDBRANCH   2  18
BRANCH   6  20
HETATM   20  C   LIG     1      45.043   5.259   0.984  1.00  0.00     0.198 C 
BRANCH  20  21
HETATM   21  O   LIG     1      44.522   3.991   1.379  1.00  0.00    -0.398 OA
HETATM   22  H   LIG     1      44.269   4.078   2.318  1.00  0.00     0.209 HD
ENDBRANCH  20  21
ENDBRANCH   6  20
BRANCH   1  23
HETATM   23  O   LIG     1      42.017   5.433   1.032  1.00  0.00    -0.390 OA
HETATM   24  H   LIG     1      42.237   5.042   1.907  1.00  0.00     0.210 HD
ENDBRANCH   1  23
TORSDOF 12
ENDMDL
MODEL 7
REMARK VINA RESULT:      -5.4      7.413     11.305
REMARK  12 active torsions:
REMARK  status: ('A' for Active; 'I' for Inactive)
REMARK    1  A    between atoms: C_1  and  O_20 
REMARK    2  A    between atoms: C_2  and  O_9 
REMARK    3  A    between atoms: C_3  and  O_10 
REMARK    4  A    between atoms: C_4  and  O_11 
REMARK    5  A    between atoms: C_6  and  C_7 
REMARK    6  A    between atoms: C_7  and  O_8 
REMARK    7  A    between atoms: O_11  and  C_12 
REMARK    8  A    between atoms: C_12  and  C_13 
REMARK    9  A    between atoms: C_14  and  C_15 
REMARK   10  A    between atoms: C_15  and  C_16 
REMARK   11  A    between atoms: C_16  and  C_17 
REMARK   12  A    between atoms: C_17  and  C_18 
ROOT
HETATM    1  C   LIG     1      43.008  -6.157  -3.944  1.00  0.00     0.180 C 
HETATM    2  C   LIG     1      42.275  -7.193  -3.099  1.00  0.00     0.183 C 
HETATM    3  C   LIG     1      40.817  -6.808  -2.848  1.00  0.00     0.204 C 
HETATM    4  C   LIG     1      40.733  -5.366  -2.290  1.00  0.00     0.291 C 
HETATM    5  O   LIG     1      41.449  -4.461  -3.150  1.00  0.00    -0.348 OA
HETATM    6  C   LIG     1      42.833  -4.773  -3.302  1.00  0.00     0.179 C 
ENDROOT
BRANCH   4   7
HETATM    7  O   LIG     1      39.401  -4.853  -2.232  1.00  0.00    -0.355 OA
BRANCH   7   8
HETATM    8  C   LIG     1      38.968  -4.281  -1.004  1.00  0.00     0.198 C 
BRANCH   8   9
HETATM    9  C   LIG     1      38.972  -2.780  -1.035  1.00  0.00    -0.005 C 
HETATM   10  C   LIG     1      39.796  -2.008  -0.311  1.00  0.00    -0.029 C 
BRANCH  10  11
HETATM   11  C   LIG     1      39.789  -0.505  -0.346  1.00  0.00     0.027 C 
BRANCH  11  12
HETATM   12  C   LIG     1      40.076   0.097   1.031  1.00  0.00     0.004 C 
BRANCH  12  13
HETATM   13  C   LIG     1      39.673   1.573   1.080  1.00  0.00    -0.000 C 
BRANCH  13  14
HETATM   14  C   LIG     1      40.725   2.466   0.421  1.00  0.00    -0.005 C 
HETATM   15  C   LIG     1      41.515   3.248   1.459  1.00  0.00     0.005 C 
ENDBRANCH  13  14
ENDBRANCH  12  13
ENDBRANCH  11  12
ENDBRANCH  10  11
ENDBRANCH   8   9
ENDBRANCH   7   8
ENDBRANCH   4   7
BRANCH   3  16
HETATM   16  O   LIG     1      40.283  -7.788  -1.941  1.00  0.00    -0.388 OA
HETATM   17  H   LIG     1      40.610  -7.515  -1.059  1.00  0.00     0.210 HD
ENDBRANCH   3  16
BRANCH   2  18
HETATM   18  O   LIG     1      42.320  -8.479  -3.744  1.00  0.00    -0.390 OA
HETATM   19  H   LIG     1      41.404  -8.820  -3.678  1.00  0.00     0.210 HD
ENDBRANCH   2  18
BRANCH   6  20
HETATM   20  C   LIG     1      43.469  -3.675  -4.167  1.00  0.00     0.198 C 
BRANCH  20  21
HETATM   21  O   LIG     1      44.875  -3.597  -3.941  1.00  0.00    -0.398 OA
HETATM   22  H   LIG     1      45.156  -4.484  -3.647  1.00  0.00     0.209 HD
ENDBRANCH  20  21
ENDBRANCH   6  20
BRANCH   1  23
HETATM   23  O   LIG     1      44.380  -6.563  -4.025  1.00  0.00    -0.390 OA
HETATM   24  H   LIG     1      44.469  -7.357  -3.452  1.00  0.00     0.210 HD
ENDBRANCH   1  23
TORSDOF 12
ENDMDL
MODEL 8
REMARK VINA RESULT:      -5.4     24.087     26.809
REMARK  12 active torsions:
REMARK  status: ('A' for Active; 'I' for Inactive)
REMARK    1  A    between atoms: C_1  and  O_20 
REMARK    2  A    between atoms: C_2  and  O_9 
REMARK    3  A    between atoms: C_3  and  O_10 
REMARK    4  A    between atoms: C_4  and  O_11 
REMARK    5  A    between atoms: C_6  and  C_7 
REMARK    6  A    between atoms: C_7  and  O_8 
REMARK    7  A    between atoms: O_11  and  C_12 
REMARK    8  A    between atoms: C_12  and  C_13 
REMARK    9  A    between atoms: C_14  and  C_15 
REMARK   10  A    between atoms: C_15  and  C_16 
REMARK   11  A    between atoms: C_16  and  C_17 
REMARK   12  A    between atoms: C_17  and  C_18 
ROOT
HETATM    1  C   LIG     1      35.275   1.841  23.235  1.00  0.00     0.180 C 
HETATM    2  C   LIG     1      35.971   0.879  24.191  1.00  0.00     0.183 C 
HETATM    3  C   LIG     1      36.071   1.444  25.608  1.00  0.00     0.204 C 
HETATM    4  C   LIG     1      36.694   2.861  25.576  1.00  0.00     0.291 C 
HETATM    5  O   LIG     1      35.974   3.696  24.651  1.00  0.00    -0.348 OA
HETATM    6  C   LIG     1      35.967   3.210  23.310  1.00  0.00     0.179 C 
ENDROOT
BRANCH   4   7
HETATM    7  O   LIG     1      36.625   3.544  26.829  1.00  0.00    -0.355 OA
BRANCH   7   8
HETATM    8  C   LIG     1      35.618   4.535  26.986  1.00  0.00     0.198 C 
BRANCH   8   9
HETATM    9  C   LIG     1      36.188   5.898  27.251  1.00  0.00    -0.005 C 
HETATM   10  C   LIG     1      36.386   6.835  26.310  1.00  0.00    -0.029 C 
BRANCH  10  11
HETATM   11  C   LIG     1      36.963   8.195  26.586  1.00  0.00     0.027 C 
BRANCH  11  12
HETATM   12  C   LIG     1      38.100   8.133  27.608  1.00  0.00     0.004 C 
BRANCH  12  13
HETATM   13  C   LIG     1      39.166   9.190  27.308  1.00  0.00    -0.000 C 
BRANCH  13  14
HETATM   14  C   LIG     1      39.493  10.027  28.544  1.00  0.00    -0.005 C 
HETATM   15  C   LIG     1      38.276  10.800  29.028  1.00  0.00     0.005 C 
ENDBRANCH  13  14
ENDBRANCH  12  13
ENDBRANCH  11  12
ENDBRANCH  10  11
ENDBRANCH   8   9
ENDBRANCH   7   8
ENDBRANCH   4   7
BRANCH   3  16
HETATM   16  O   LIG     1      36.855   0.509  26.370  1.00  0.00    -0.388 OA
HETATM   17  H   LIG     1      37.717   0.955  26.499  1.00  0.00     0.210 HD
ENDBRANCH   3  16
BRANCH   2  18
HETATM   18  O   LIG     1      35.266  -0.375  24.231  1.00  0.00    -0.390 OA
HETATM   19  H   LIG     1      35.563  -0.799  25.063  1.00  0.00     0.210 HD
ENDBRANCH   2  18
BRANCH   6  20
HETATM   20  C   LIG     1      35.243   4.247  22.438  1.00  0.00     0.198 C 
BRANCH  20  21
HETATM   21  O   LIG     1      34.058   3.695  21.867  1.00  0.00    -0.398 OA
HETATM   22  H   LIG     1      33.667   3.118  22.549  1.00  0.00     0.209 HD
ENDBRANCH  20  21
ENDBRANCH   6  20
BRANCH   1  23
HETATM   23  O   LIG     1      35.331   1.260  21.925  1.00  0.00    -0.390 OA
HETATM   24  H   LIG     1      34.540   1.588  21.442  1.00  0.00     0.210 HD
ENDBRANCH   1  23
TORSDOF 12
ENDMDL
MODEL 9
REMARK VINA RESULT:      -5.4      4.392      6.048
REMARK  12 active torsions:
REMARK  status: ('A' for Active; 'I' for Inactive)
REMARK    1  A    between atoms: C_1  and  O_20 
REMARK    2  A    between atoms: C_2  and  O_9 
REMARK    3  A    between atoms: C_3  and  O_10 
REMARK    4  A    between atoms: C_4  and  O_11 
REMARK    5  A    between atoms: C_6  and  C_7 
REMARK    6  A    between atoms: C_7  and  O_8 
REMARK    7  A    between atoms: O_11  and  C_12 
REMARK    8  A    between atoms: C_12  and  C_13 
REMARK    9  A    between atoms: C_14  and  C_15 
REMARK   10  A    between atoms: C_15  and  C_16 
REMARK   11  A    between atoms: C_16  and  C_17 
REMARK   12  A    between atoms: C_17  and  C_18 
ROOT
HETATM    1  C   LIG     1      42.391   4.668   1.618  1.00  0.00     0.180 C 
HETATM    2  C   LIG     1      43.761   5.090   1.099  1.00  0.00     0.183 C 
HETATM    3  C   LIG     1      44.190   6.453   1.642  1.00  0.00     0.204 C 
HETATM    4  C   LIG     1      43.075   7.500   1.401  1.00  0.00     0.291 C 
HETATM    5  O   LIG     1      41.824   7.018   1.922  1.00  0.00    -0.348 OA
HETATM    6  C   LIG     1      41.383   5.793   1.340  1.00  0.00     0.179 C 
ENDROOT
BRANCH   4   7
HETATM    7  O   LIG     1      43.305   8.743   2.067  1.00  0.00    -0.355 OA
BRANCH   7   8
HETATM    8  C   LIG     1      43.439   9.908   1.261  1.00  0.00     0.198 C 
BRANCH   8   9
HETATM    9  C   LIG     1      44.145  11.023   1.976  1.00  0.00    -0.005 C 
HETATM   10  C   LIG     1      43.883  11.405   3.236  1.00  0.00    -0.029 C 
BRANCH  10  11
HETATM   11  C   LIG     1      44.593  12.526   3.941  1.00  0.00     0.027 C 
BRANCH  11  12
HETATM   12  C   LIG     1      45.889  12.914   3.227  1.00  0.00     0.004 C 
BRANCH  12  13
HETATM   13  C   LIG     1      47.105  12.669   4.124  1.00  0.00    -0.000 C 
BRANCH  13  14
HETATM   14  C   LIG     1      47.355  11.176   4.339  1.00  0.00    -0.005 C 
HETATM   15  C   LIG     1      47.670  10.871   5.795  1.00  0.00     0.005 C 
ENDBRANCH  13  14
ENDBRANCH  12  13
ENDBRANCH  11  12
ENDBRANCH  10  11
ENDBRANCH   8   9
ENDBRANCH   7   8
ENDBRANCH   4   7
BRANCH   3  16
HETATM   16  O   LIG     1      45.423   6.790   0.981  1.00  0.00    -0.388 OA
HETATM   17  H   LIG     1      45.682   7.654   1.365  1.00  0.00     0.210 HD
ENDBRANCH   3  16
BRANCH   2  18
HETATM   18  O   LIG     1      44.749   4.107   1.456  1.00  0.00    -0.390 OA
HETATM   19  H   LIG     1      45.594   4.602   1.475  1.00  0.00     0.210 HD
ENDBRANCH   2  18
BRANCH   6  20
HETATM   20  C   LIG     1      40.004   5.462   1.931  1.00  0.00     0.198 C 
BRANCH  20  21
HETATM   21  O   LIG     1      40.110   4.463   2.944  1.00  0.00    -0.398 OA
HETATM   22  H   LIG     1      40.743   4.806   3.604  1.00  0.00     0.209 HD
ENDBRANCH  20  21
ENDBRANCH   6  20
BRANCH   1  23
HETATM   23  O   LIG     1      42.046   3.438   0.967  1.00  0.00    -0.390 OA
HETATM   24  H   LIG     1      41.619   2.874   1.649  1.00  0.00     0.210 HD
ENDBRANCH   1  23
TORSDOF 12
ENDMDL
