MODEL 1
REMARK VINA RESULT:      -5.2      0.000      0.000
REMARK  6 active torsions:
REMARK  status: ('A' for Active; 'I' for Inactive)
REMARK    1  A    between atoms: C_1  and  O_13 
REMARK    2  A    between atoms: C_2  and  O_9 
REMARK    3  A    between atoms: C_3  and  O_11 
REMARK    4  A    between atoms: C_4  and  O_10 
REMARK    5  A    between atoms: C_6  and  C_7 
REMARK    6  A    between atoms: C_7  and  O_8 
ROOT
HETATM    1  C   LIG     1      50.432  12.411   8.567  1.00  0.00     0.180 C 
HETATM    2  C   LIG     1      49.746  11.619   7.452  1.00  0.00     0.183 C 
HETATM    3  C   LIG     1      48.543  12.374   6.893  1.00  0.00     0.204 C 
HETATM    4  C   LIG     1      47.627  12.820   8.052  1.00  0.00     0.290 C 
HETATM    5  O   LIG     1      48.343  13.590   9.016  1.00  0.00    -0.349 OA
HETATM    6  C   LIG     1      49.398  12.833   9.626  1.00  0.00     0.179 C 
ENDROOT
BRANCH   6   7
HETATM    7  C   LIG     1      50.053  13.676  10.729  1.00  0.00     0.198 C 
BRANCH   7   8
HETATM    8  O   LIG     1      51.142  14.449  10.235  1.00  0.00    -0.398 OA
HETATM    9  H   LIG     1      51.333  14.128   9.327  1.00  0.00     0.209 HD
ENDBRANCH   7   8
ENDBRANCH   6   7
BRANCH   1  10
HETATM   10  O   LIG     1      51.469  11.611   9.149  1.00  0.00    -0.390 OA
HETATM   11  H   LIG     1      51.811  12.144   9.899  1.00  0.00     0.210 HD
ENDBRANCH   1  10
BRANCH   2  12
HETATM   12  O   LIG     1      50.703  11.363   6.411  1.00  0.00    -0.390 OA
HETATM   13  H   LIG     1      50.257  11.629   5.580  1.00  0.00     0.210 HD
ENDBRANCH   2  12
BRANCH   4  14
HETATM   14  O   LIG     1      46.469  13.512   7.573  1.00  0.00    -0.363 OA
HETATM   15  C   LIG     1      45.398  13.596   8.503  1.00  0.00     0.204 C 
ENDBRANCH   4  14
BRANCH   3  16
HETATM   16  O   LIG     1      47.859  11.509   5.970  1.00  0.00    -0.388 OA
HETATM   17  H   LIG     1      48.096  11.811   5.075  1.00  0.00     0.210 HD
ENDBRANCH   3  16
TORSDOF 6
ENDMDL
MODEL 2
REMARK VINA RESULT:      -5.1     12.216     14.419
REMARK  6 active torsions:
REMARK  status: ('A' for Active; 'I' for Inactive)
REMARK    1  A    between atoms: C_1  and  O_13 
REMARK    2  A    between atoms: C_2  and  O_9 
REMARK    3  A    between atoms: C_3  and  O_11 
REMARK    4  A    between atoms: C_4  and  O_10 
REMARK    5  A    between atoms: C_6  and  C_7 
REMARK    6  A    between atoms: C_7  and  O_8 
ROOT
HETATM    1  C   LIG     1      40.004   3.445   1.404  1.00  0.00     0.180 C 
HETATM    2  C   LIG     1      40.482   4.763   2.017  1.00  0.00     0.183 C 
HETATM    3  C   LIG     1      41.698   5.313   1.276  1.00  0.00     0.204 C 
HETATM    4  C   LIG     1      42.770   4.209   1.153  1.00  0.00     0.290 C 
HETATM    5  O   LIG     1      42.246   3.039   0.529  1.00  0.00    -0.349 OA
HETATM    6  C   LIG     1      41.180   2.459   1.294  1.00  0.00     0.179 C 
ENDROOT
BRANCH   6   7
HETATM    7  C   LIG     1      40.738   1.147   0.632  1.00  0.00     0.198 C 
BRANCH   7   8
HETATM    8  O   LIG     1      41.831   0.450   0.044  1.00  0.00    -0.398 OA
HETATM    9  H   LIG     1      41.662   0.417  -0.923  1.00  0.00     0.209 HD
ENDBRANCH   7   8
ENDBRANCH   6   7
BRANCH   1  10
HETATM   10  O   LIG     1      38.949   2.902   2.207  1.00  0.00    -0.390 OA
HETATM   11  H   LIG     1      38.754   2.025   1.812  1.00  0.00     0.210 HD
ENDBRANCH   1  10
BRANCH   2  12
HETATM   12  O   LIG     1      39.402   5.711   1.975  1.00  0.00    -0.390 OA
HETATM   13  H   LIG     1      39.203   5.916   2.912  1.00  0.00     0.210 HD
ENDBRANCH   2  12
BRANCH   4  14
HETATM   14  O   LIG     1      43.944   4.687   0.486  1.00  0.00    -0.363 OA
HETATM   15  C   LIG     1      43.726   5.168  -0.833  1.00  0.00     0.204 C 
ENDBRANCH   4  14
BRANCH   3  16
HETATM   16  O   LIG     1      42.185   6.456   1.999  1.00  0.00    -0.388 OA
HETATM   17  H   LIG     1      42.544   7.074   1.336  1.00  0.00     0.210 HD
ENDBRANCH   3  16
TORSDOF 6
ENDMDL
MODEL 3
REMARK VINA RESULT:      -5.0     10.870     13.049
REMARK  6 active torsions:
REMARK  status: ('A' for Active; 'I' for Inactive)
REMARK    1  A    between atoms: C_1  and  O_13 
REMARK    2  A    between atoms: C_2  and  O_9 
REMARK    3  A    between atoms: C_3  and  O_11 
REMARK    4  A    between atoms: C_4  and  O_10 
REMARK    5  A    between atoms: C_6  and  C_7 
REMARK    6  A    between atoms: C_7  and  O_8 
ROOT
HETATM    1  C   LIG     1      40.317   5.393   1.959  1.00  0.00     0.180 C 
HETATM    2  C   LIG     1      40.513   3.938   1.528  1.00  0.00     0.183 C 
HETATM    3  C   LIG     1      41.947   3.475   1.770  1.00  0.00     0.204 C 
HETATM    4  C   LIG     1      42.931   4.490   1.151  1.00  0.00     0.290 C 
HETATM    5  O   LIG     1      42.701   5.807   1.647  1.00  0.00    -0.349 OA
HETATM    6  C   LIG     1      41.390   6.283   1.310  1.00  0.00     0.179 C 
ENDROOT
BRANCH   6   7
HETATM    7  C   LIG     1      41.248   7.741   1.770  1.00  0.00     0.198 C 
BRANCH   7   8
HETATM    8  O   LIG     1      42.484   8.281   2.224  1.00  0.00    -0.398 OA
HETATM    9  H   LIG     1      43.036   7.525   2.521  1.00  0.00     0.209 HD
ENDBRANCH   7   8
ENDBRANCH   6   7
BRANCH   1  10
HETATM   10  O   LIG     1      39.000   5.823   1.594  1.00  0.00    -0.390 OA
HETATM   11  H   LIG     1      38.787   6.550   2.218  1.00  0.00     0.210 HD
ENDBRANCH   1  10
BRANCH   2  12
HETATM   12  O   LIG     1      39.591   3.111   2.258  1.00  0.00    -0.390 OA
HETATM   13  H   LIG     1      39.366   3.624   3.061  1.00  0.00     0.210 HD
ENDBRANCH   2  12
BRANCH   4  14
HETATM   14  O   LIG     1      44.292   4.083   1.330  1.00  0.00    -0.363 OA
HETATM   15  C   LIG     1      45.254   5.099   1.086  1.00  0.00     0.204 C 
ENDBRANCH   4  14
BRANCH   3  16
HETATM   16  O   LIG     1      42.098   2.164   1.199  1.00  0.00    -0.388 OA
HETATM   17  H   LIG     1      42.699   2.258   0.438  1.00  0.00     0.210 HD
ENDBRANCH   3  16
TORSDOF 6
ENDMDL
MODEL 4
REMARK VINA RESULT:      -4.9     11.160     13.474
REMARK  6 active torsions:
REMARK  status: ('A' for Active; 'I' for Inactive)
REMARK    1  A    between atoms: C_1  and  O_13 
REMARK    2  A    between atoms: C_2  and  O_9 
REMARK    3  A    between atoms: C_3  and  O_11 
REMARK    4  A    between atoms: C_4  and  O_10 
REMARK    5  A    between atoms: C_6  and  C_7 
REMARK    6  A    between atoms: C_7  and  O_8 
ROOT
HETATM    1  C   LIG     1      40.324   5.329   1.254  1.00  0.00     0.180 C 
HETATM    2  C   LIG     1      41.304   6.403   1.733  1.00  0.00     0.183 C 
HETATM    3  C   LIG     1      42.734   6.078   1.310  1.00  0.00     0.204 C 
HETATM    4  C   LIG     1      43.080   4.631   1.722  1.00  0.00     0.290 C 
HETATM    5  O   LIG     1      42.139   3.699   1.192  1.00  0.00    -0.349 OA
HETATM    6  C   LIG     1      40.815   3.937   1.689  1.00  0.00     0.179 C 
ENDROOT
BRANCH   6   7
HETATM    7  C   LIG     1      39.876   2.837   1.174  1.00  0.00     0.198 C 
BRANCH   7   8
HETATM    8  O   LIG     1      38.767   2.631   2.043  1.00  0.00    -0.398 OA
HETATM    9  H   LIG     1      38.240   3.459   2.037  1.00  0.00     0.209 HD
ENDBRANCH   7   8
ENDBRANCH   6   7
BRANCH   1  10
HETATM   10  O   LIG     1      39.021   5.605   1.783  1.00  0.00    -0.390 OA
HETATM   11  H   LIG     1      38.786   4.809   2.307  1.00  0.00     0.210 HD
ENDBRANCH   1  10
BRANCH   2  12
HETATM   12  O   LIG     1      40.900   7.671   1.192  1.00  0.00    -0.390 OA
HETATM   13  H   LIG     1      40.201   7.462   0.538  1.00  0.00     0.210 HD
ENDBRANCH   2  12
BRANCH   4  14
HETATM   14  O   LIG     1      44.425   4.289   1.370  1.00  0.00    -0.363 OA
HETATM   15  C   LIG     1      44.967   5.040   0.292  1.00  0.00     0.204 C 
ENDBRANCH   4  14
BRANCH   3  16
HETATM   16  O   LIG     1      43.612   7.035   1.926  1.00  0.00    -0.388 OA
HETATM   17  H   LIG     1      44.483   6.605   2.008  1.00  0.00     0.210 HD
ENDBRANCH   3  16
TORSDOF 6
ENDMDL
MODEL 5
REMARK VINA RESULT:      -4.8     22.169     24.013
REMARK  6 active torsions:
REMARK  status: ('A' for Active; 'I' for Inactive)
REMARK    1  A    between atoms: C_1  and  O_13 
REMARK    2  A    between atoms: C_2  and  O_9 
REMARK    3  A    between atoms: C_3  and  O_11 
REMARK    4  A    between atoms: C_4  and  O_10 
REMARK    5  A    between atoms: C_6  and  C_7 
REMARK    6  A    between atoms: C_7  and  O_8 
ROOT
HETATM    1  C   LIG     1      42.999  -6.577  -3.582  1.00  0.00     0.180 C 
HETATM    2  C   LIG     1      42.471  -5.321  -2.884  1.00  0.00     0.183 C 
HETATM    3  C   LIG     1      41.057  -5.534  -2.350  1.00  0.00     0.204 C 
HETATM    4  C   LIG     1      40.160  -6.098  -3.472  1.00  0.00     0.290 C 
HETATM    5  O   LIG     1      40.708  -7.291  -4.029  1.00  0.00    -0.349 OA
HETATM    6  C   LIG     1      41.987  -7.057  -4.637  1.00  0.00     0.179 C 
ENDROOT
BRANCH   6   7
HETATM    7  C   LIG     1      42.468  -8.347  -5.314  1.00  0.00     0.198 C 
BRANCH   7   8
HETATM    8  O   LIG     1      41.424  -8.996  -6.031  1.00  0.00    -0.398 OA
HETATM    9  H   LIG     1      41.848  -9.509  -6.754  1.00  0.00     0.209 HD
ENDBRANCH   7   8
ENDBRANCH   6   7
BRANCH   1  10
HETATM   10  O   LIG     1      44.269  -6.291  -4.179  1.00  0.00    -0.390 OA
HETATM   11  H   LIG     1      44.089  -6.226  -5.142  1.00  0.00     0.210 HD
ENDBRANCH   1  10
BRANCH   2  12
HETATM   12  O   LIG     1      43.364  -4.979  -1.811  1.00  0.00    -0.390 OA
HETATM   13  H   LIG     1      42.812  -4.996  -1.001  1.00  0.00     0.210 HD
ENDBRANCH   2  12
BRANCH   4  14
HETATM   14  O   LIG     1      38.813  -6.289  -3.024  1.00  0.00    -0.363 OA
HETATM   15  C   LIG     1      38.673  -7.172  -1.920  1.00  0.00     0.204 C 
ENDBRANCH   4  14
BRANCH   3  16
HETATM   16  O   LIG     1      40.570  -4.275  -1.855  1.00  0.00    -0.388 OA
HETATM   17  H   LIG     1      41.305  -3.865  -1.363  1.00  0.00     0.210 HD
ENDBRANCH   3  16
TORSDOF 6
ENDMDL
MODEL 6
REMARK VINA RESULT:      -4.8     20.861     22.660
REMARK  6 active torsions:
REMARK  status: ('A' for Active; 'I' for Inactive)
REMARK    1  A    between atoms: C_1  and  O_13 
REMARK    2  A    between atoms: C_2  and  O_9 
REMARK    3  A    between atoms: C_3  and  O_11 
REMARK    4  A    between atoms: C_4  and  O_10 
REMARK    5  A    between atoms: C_6  and  C_7 
REMARK    6  A    between atoms: C_7  and  O_8 
ROOT
HETATM    1  C   LIG     1      42.138  -4.084  -3.651  1.00  0.00     0.180 C 
HETATM    2  C   LIG     1      43.375  -4.905  -4.023  1.00  0.00     0.183 C 
HETATM    3  C   LIG     1      43.079  -6.402  -3.992  1.00  0.00     0.204 C 
HETATM    4  C   LIG     1      42.416  -6.771  -2.648  1.00  0.00     0.290 C 
HETATM    5  O   LIG     1      41.248  -5.988  -2.410  1.00  0.00    -0.349 OA
HETATM    6  C   LIG     1      41.552  -4.589  -2.320  1.00  0.00     0.179 C 
ENDROOT
BRANCH   6   7
HETATM    7  C   LIG     1      40.278  -3.817  -1.951  1.00  0.00     0.198 C 
BRANCH   7   8
HETATM    8  O   LIG     1      40.569  -2.542  -1.388  1.00  0.00    -0.398 OA
HETATM    9  H   LIG     1      41.380  -2.210  -1.834  1.00  0.00     0.209 HD
ENDBRANCH   7   8
ENDBRANCH   6   7
BRANCH   1  10
HETATM   10  O   LIG     1      42.494  -2.699  -3.565  1.00  0.00    -0.390 OA
HETATM   11  H   LIG     1      43.165  -2.565  -4.268  1.00  0.00     0.210 HD
ENDBRANCH   1  10
BRANCH   2  12
HETATM   12  O   LIG     1      43.814  -4.510  -5.333  1.00  0.00    -0.390 OA
HETATM   13  H   LIG     1      44.616  -3.968  -5.183  1.00  0.00     0.210 HD
ENDBRANCH   2  12
BRANCH   4  14
HETATM   14  O   LIG     1      42.145  -8.174  -2.561  1.00  0.00    -0.363 OA
HETATM   15  C   LIG     1      42.484  -8.771  -1.317  1.00  0.00     0.204 C 
ENDBRANCH   4  14
BRANCH   3  16
HETATM   16  O   LIG     1      44.315  -7.108  -4.192  1.00  0.00    -0.388 OA
HETATM   17  H   LIG     1      44.521  -7.557  -3.353  1.00  0.00     0.210 HD
ENDBRANCH   3  16
TORSDOF 6
ENDMDL
MODEL 7
REMARK VINA RESULT:      -4.8     11.065     12.844
REMARK  6 active torsions:
REMARK  status: ('A' for Active; 'I' for Inactive)
REMARK    1  A    between atoms: C_1  and  O_13 
REMARK    2  A    between atoms: C_2  and  O_9 
REMARK    3  A    between atoms: C_3  and  O_11 
REMARK    4  A    between atoms: C_4  and  O_10 
REMARK    5  A    between atoms: C_6  and  C_7 
REMARK    6  A    between atoms: C_7  and  O_8 
ROOT
HETATM    1  C   LIG     1      43.054   5.845   1.312  1.00  0.00     0.180 C 
HETATM    2  C   LIG     1      43.072   4.397   1.808  1.00  0.00     0.183 C 
HETATM    3  C   LIG     1      41.908   3.597   1.228  1.00  0.00     0.204 C 
HETATM    4  C   LIG     1      40.588   4.363   1.458  1.00  0.00     0.290 C 
HETATM    5  O   LIG     1      40.650   5.683   0.922  1.00  0.00    -0.349 OA
HETATM    6  C   LIG     1      41.669   6.469   1.557  1.00  0.00     0.179 C 
ENDROOT
BRANCH   6   7
HETATM    7  C   LIG     1      41.610   7.905   1.019  1.00  0.00     0.198 C 
BRANCH   7   8
HETATM    8  O   LIG     1      40.718   8.721   1.771  1.00  0.00    -0.398 OA
HETATM    9  H   LIG     1      41.269   9.356   2.278  1.00  0.00     0.209 HD
ENDBRANCH   7   8
ENDBRANCH   6   7
BRANCH   1  10
HETATM   10  O   LIG     1      44.080   6.589   1.980  1.00  0.00    -0.390 OA
HETATM   11  H   LIG     1      43.628   7.383   2.337  1.00  0.00     0.210 HD
ENDBRANCH   1  10
BRANCH   2  12
HETATM   12  O   LIG     1      44.324   3.797   1.437  1.00  0.00    -0.390 OA
HETATM   13  H   LIG     1      44.200   3.492   0.514  1.00  0.00     0.210 HD
ENDBRANCH   2  12
BRANCH   4  14
HETATM   14  O   LIG     1      39.462   3.636   0.954  1.00  0.00    -0.363 OA
HETATM   15  C   LIG     1      38.620   4.375   0.079  1.00  0.00     0.204 C 
ENDBRANCH   4  14
BRANCH   3  16
HETATM   16  O   LIG     1      41.895   2.305   1.857  1.00  0.00    -0.388 OA
HETATM   17  H   LIG     1      42.113   2.448   2.796  1.00  0.00     0.210 HD
ENDBRANCH   3  16
TORSDOF 6
ENDMDL
MODEL 8
REMARK VINA RESULT:      -4.8      9.659     11.448
REMARK  6 active torsions:
REMARK  status: ('A' for Active; 'I' for Inactive)
REMARK    1  A    between atoms: C_1  and  O_13 
REMARK    2  A    between atoms: C_2  and  O_9 
REMARK    3  A    between atoms: C_3  and  O_11 
REMARK    4  A    between atoms: C_4  and  O_10 
REMARK    5  A    between atoms: C_6  and  C_7 
REMARK    6  A    between atoms: C_7  and  O_8 
ROOT
HETATM    1  C   LIG     1      42.174   6.875   1.631  1.00  0.00     0.180 C 
HETATM    2  C   LIG     1      42.572   5.406   1.474  1.00  0.00     0.183 C 
HETATM    3  C   LIG     1      44.069   5.209   1.701  1.00  0.00     0.204 C 
HETATM    4  C   LIG     1      44.860   6.209   0.831  1.00  0.00     0.290 C 
HETATM    5  O   LIG     1      44.453   7.553   1.080  1.00  0.00    -0.349 OA
HETATM    6  C   LIG     1      43.072   7.761   0.750  1.00  0.00     0.179 C 
ENDROOT
BRANCH   6   7
HETATM    7  C   LIG     1      42.727   9.246   0.930  1.00  0.00     0.198 C 
BRANCH   7   8
HETATM    8  O   LIG     1      41.775   9.451   1.969  1.00  0.00    -0.398 OA
HETATM    9  H   LIG     1      42.225   9.966   2.673  1.00  0.00     0.209 HD
ENDBRANCH   7   8
ENDBRANCH   6   7
BRANCH   1  10
HETATM   10  O   LIG     1      40.793   7.033   1.282  1.00  0.00    -0.390 OA
HETATM   11  H   LIG     1      40.296   6.586   2.001  1.00  0.00     0.210 HD
ENDBRANCH   1  10
BRANCH   2  12
HETATM   12  O   LIG     1      41.818   4.620   2.411  1.00  0.00    -0.390 OA
HETATM   13  H   LIG     1      42.486   4.115   2.921  1.00  0.00     0.210 HD
ENDBRANCH   2  12
BRANCH   4  14
HETATM   14  O   LIG     1      46.274   6.043   0.990  1.00  0.00    -0.363 OA
HETATM   15  C   LIG     1      46.933   7.131   1.624  1.00  0.00     0.204 C 
ENDBRANCH   4  14
BRANCH   3  16
HETATM   16  O   LIG     1      44.396   3.846   1.382  1.00  0.00    -0.388 OA
HETATM   17  H   LIG     1      43.653   3.495   0.858  1.00  0.00     0.210 HD
ENDBRANCH   3  16
TORSDOF 6
ENDMDL
MODEL 9
REMARK VINA RESULT:      -4.8     21.073     22.770
REMARK  6 active torsions:
REMARK  status: ('A' for Active; 'I' for Inactive)
REMARK    1  A    between atoms: C_1  and  O_13 
REMARK    2  A    between atoms: C_2  and  O_9 
REMARK    3  A    between atoms: C_3  and  O_11 
REMARK    4  A    between atoms: C_4  and  O_10 
REMARK    5  A    between atoms: C_6  and  C_7 
REMARK    6  A    between atoms: C_7  and  O_8 
ROOT
HETATM    1  C   LIG     1      43.015  -6.146  -3.946  1.00  0.00     0.180 C 
HETATM    2  C   LIG     1      42.355  -7.225  -3.086  1.00  0.00     0.183 C 
HETATM    3  C   LIG     1      40.942  -6.819  -2.672  1.00  0.00     0.204 C 
HETATM    4  C   LIG     1      40.970  -5.404  -2.057  1.00  0.00     0.290 C 
HETATM    5  O   LIG     1      41.560  -4.460  -2.948  1.00  0.00    -0.349 OA
HETATM    6  C   LIG     1      42.927  -4.782  -3.238  1.00  0.00     0.179 C 
ENDROOT
BRANCH   6   7
HETATM    7  C   LIG     1      43.536  -3.671  -4.105  1.00  0.00     0.198 C 
BRANCH   7   8
HETATM    8  O   LIG     1      44.944  -3.562  -3.923  1.00  0.00    -0.398 OA
HETATM    9  H   LIG     1      45.363  -3.805  -4.778  1.00  0.00     0.209 HD
ENDBRANCH   7   8
ENDBRANCH   6   7
BRANCH   1  10
HETATM   10  O   LIG     1      44.378  -6.508  -4.200  1.00  0.00    -0.390 OA
HETATM   11  H   LIG     1      44.789  -5.702  -4.581  1.00  0.00     0.210 HD
ENDBRANCH   1  10
BRANCH   2  12
HETATM   12  O   LIG     1      42.323  -8.454  -3.830  1.00  0.00    -0.390 OA
HETATM   13  H   LIG     1      42.569  -9.151  -3.187  1.00  0.00     0.210 HD
ENDBRANCH   2  12
BRANCH   4  14
HETATM   14  O   LIG     1      39.668  -4.990  -1.628  1.00  0.00    -0.363 OA
HETATM   15  C   LIG     1      39.632  -3.736  -0.960  1.00  0.00     0.204 C 
ENDBRANCH   4  14
BRANCH   3  16
HETATM   16  O   LIG     1      40.448  -7.799  -1.742  1.00  0.00    -0.388 OA
HETATM   17  H   LIG     1      40.771  -8.665  -2.050  1.00  0.00     0.210 HD
ENDBRANCH   3  16
TORSDOF 6
ENDMDL
