MODEL 1
REMARK VINA RESULT:      -5.1      0.000      0.000
REMARK  6 active torsions:
REMARK  status: ('A' for Active; 'I' for Inactive)
REMARK    1  A    between atoms: C_1  and  O_7 
REMARK    2  A    between atoms: C_2  and  O_10 
REMARK    3  A    between atoms: C_3  and  O_12 
REMARK    4  A    between atoms: C_4  and  O_11 
REMARK    5  A    between atoms: C_6  and  C_8 
REMARK    6  A    between atoms: C_8  and  O_9 
ROOT
HETATM    1  C   LIG     1      39.098   2.312   0.917  1.00  0.00     0.180 C 
HETATM    2  C   LIG     1      40.060   1.140   0.722  1.00  0.00     0.183 C 
HETATM    3  C   LIG     1      41.409   1.403   1.398  1.00  0.00     0.204 C 
HETATM    4  C   LIG     1      41.950   2.798   1.017  1.00  0.00     0.290 C 
HETATM    5  O   LIG     1      40.963   3.823   1.201  1.00  0.00    -0.349 OA
HETATM    6  C   LIG     1      39.779   3.598   0.423  1.00  0.00     0.179 C 
ENDROOT
BRANCH   6   7
HETATM    7  C   LIG     1      38.861   4.818   0.551  1.00  0.00     0.198 C 
BRANCH   7   8
HETATM    8  O   LIG     1      39.062   5.472   1.799  1.00  0.00    -0.398 OA
HETATM    9  H   LIG     1      38.899   4.819   2.505  1.00  0.00     0.209 HD
ENDBRANCH   7   8
ENDBRANCH   6   7
BRANCH   1  10
HETATM   10  O   LIG     1      38.780   2.382   2.320  1.00  0.00    -0.390 OA
HETATM   11  H   LIG     1      39.095   3.247   2.651  1.00  0.00     0.210 HD
ENDBRANCH   1  10
BRANCH   2  12
HETATM   12  O   LIG     1      39.500  -0.063   1.274  1.00  0.00    -0.390 OA
HETATM   13  H   LIG     1      39.806  -0.787   0.689  1.00  0.00     0.210 HD
ENDBRANCH   2  12
BRANCH   4  14
HETATM   14  O   LIG     1      43.058   3.086   1.874  1.00  0.00    -0.363 OA
HETATM   15  C   LIG     1      43.539   4.409   1.703  1.00  0.00     0.204 C 
ENDBRANCH   4  14
BRANCH   3  16
HETATM   16  O   LIG     1      42.322   0.368   0.992  1.00  0.00    -0.388 OA
HETATM   17  H   LIG     1      42.232   0.311   0.021  1.00  0.00     0.210 HD
ENDBRANCH   3  16
TORSDOF 6
ENDMDL
MODEL 2
REMARK VINA RESULT:      -4.9      9.328     11.708
REMARK  6 active torsions:
REMARK  status: ('A' for Active; 'I' for Inactive)
REMARK    1  A    between atoms: C_1  and  O_7 
REMARK    2  A    between atoms: C_2  and  O_10 
REMARK    3  A    between atoms: C_3  and  O_12 
REMARK    4  A    between atoms: C_4  and  O_11 
REMARK    5  A    between atoms: C_6  and  C_8 
REMARK    6  A    between atoms: C_8  and  O_9 
ROOT
HETATM    1  C   LIG     1      43.249  -6.177  -4.604  1.00  0.00     0.180 C 
HETATM    2  C   LIG     1      42.396  -5.316  -3.672  1.00  0.00     0.183 C 
HETATM    3  C   LIG     1      42.031  -6.070  -2.389  1.00  0.00     0.204 C 
HETATM    4  C   LIG     1      41.479  -7.474  -2.717  1.00  0.00     0.290 C 
HETATM    5  O   LIG     1      42.330  -8.186  -3.625  1.00  0.00    -0.349 OA
HETATM    6  C   LIG     1      42.511  -7.498  -4.871  1.00  0.00     0.179 C 
ENDROOT
BRANCH   6   7
HETATM    7  C   LIG     1      43.289  -8.405  -5.830  1.00  0.00     0.198 C 
BRANCH   7   8
HETATM    8  O   LIG     1      44.561  -8.740  -5.289  1.00  0.00    -0.398 OA
HETATM    9  H   LIG     1      44.412  -9.319  -4.518  1.00  0.00     0.209 HD
ENDBRANCH   7   8
ENDBRANCH   6   7
BRANCH   1  10
HETATM   10  O   LIG     1      44.515  -6.395  -3.953  1.00  0.00    -0.390 OA
HETATM   11  H   LIG     1      44.534  -7.323  -3.648  1.00  0.00     0.210 HD
ENDBRANCH   1  10
BRANCH   2  12
HETATM   12  O   LIG     1      43.103  -4.117  -3.313  1.00  0.00    -0.390 OA
HETATM   13  H   LIG     1      43.872  -4.415  -2.783  1.00  0.00     0.210 HD
ENDBRANCH   2  12
BRANCH   4  14
HETATM   14  O   LIG     1      41.410  -8.213  -1.495  1.00  0.00    -0.363 OA
HETATM   15  C   LIG     1      42.692  -8.609  -1.035  1.00  0.00     0.204 C 
ENDBRANCH   4  14
BRANCH   3  16
HETATM   16  O   LIG     1      41.061  -5.288  -1.671  1.00  0.00    -0.388 OA
HETATM   17  H   LIG     1      40.323  -5.900  -1.486  1.00  0.00     0.210 HD
ENDBRANCH   3  16
TORSDOF 6
ENDMDL
MODEL 3
REMARK VINA RESULT:      -4.8     12.817     15.091
REMARK  6 active torsions:
REMARK  status: ('A' for Active; 'I' for Inactive)
REMARK    1  A    between atoms: C_1  and  O_7 
REMARK    2  A    between atoms: C_2  and  O_10 
REMARK    3  A    between atoms: C_3  and  O_12 
REMARK    4  A    between atoms: C_4  and  O_11 
REMARK    5  A    between atoms: C_6  and  C_8 
REMARK    6  A    between atoms: C_8  and  O_9 
ROOT
HETATM    1  C   LIG     1      50.827  11.832   8.579  1.00  0.00     0.180 C 
HETATM    2  C   LIG     1      50.110  10.853   7.649  1.00  0.00     0.183 C 
HETATM    3  C   LIG     1      49.049  11.560   6.800  1.00  0.00     0.204 C 
HETATM    4  C   LIG     1      48.145  12.449   7.682  1.00  0.00     0.290 C 
HETATM    5  O   LIG     1      48.911  13.305   8.542  1.00  0.00    -0.349 OA
HETATM    6  C   LIG     1      49.777  12.574   9.421  1.00  0.00     0.179 C 
ENDROOT
BRANCH   6   7
HETATM    7  C   LIG     1      50.421  13.553  10.409  1.00  0.00     0.198 C 
BRANCH   7   8
HETATM    8  O   LIG     1      51.177  14.541   9.720  1.00  0.00    -0.398 OA
HETATM    9  H   LIG     1      52.024  14.649  10.192  1.00  0.00     0.209 HD
ENDBRANCH   7   8
ENDBRANCH   6   7
BRANCH   1  10
HETATM   10  O   LIG     1      51.584  12.738   7.753  1.00  0.00    -0.390 OA
HETATM   11  H   LIG     1      51.913  13.456   8.328  1.00  0.00     0.210 HD
ENDBRANCH   1  10
BRANCH   2  12
HETATM   12  O   LIG     1      51.052  10.220   6.769  1.00  0.00    -0.390 OA
HETATM   13  H   LIG     1      50.541   9.539   6.283  1.00  0.00     0.210 HD
ENDBRANCH   2  12
BRANCH   4  14
HETATM   14  O   LIG     1      47.362  13.273   6.813  1.00  0.00    -0.363 OA
HETATM   15  C   LIG     1      45.987  13.264   7.161  1.00  0.00     0.204 C 
ENDBRANCH   4  14
BRANCH   3  16
HETATM   16  O   LIG     1      48.277  10.555   6.120  1.00  0.00    -0.388 OA
HETATM   17  H   LIG     1      47.437  10.497   6.614  1.00  0.00     0.210 HD
ENDBRANCH   3  16
TORSDOF 6
ENDMDL
MODEL 4
REMARK VINA RESULT:      -4.8      1.730      3.960
REMARK  6 active torsions:
REMARK  status: ('A' for Active; 'I' for Inactive)
REMARK    1  A    between atoms: C_1  and  O_7 
REMARK    2  A    between atoms: C_2  and  O_10 
REMARK    3  A    between atoms: C_3  and  O_12 
REMARK    4  A    between atoms: C_4  and  O_11 
REMARK    5  A    between atoms: C_6  and  C_8 
REMARK    6  A    between atoms: C_8  and  O_9 
ROOT
HETATM    1  C   LIG     1      41.376   5.505   0.778  1.00  0.00     0.180 C 
HETATM    2  C   LIG     1      40.021   4.864   1.077  1.00  0.00     0.183 C 
HETATM    3  C   LIG     1      40.184   3.482   1.718  1.00  0.00     0.204 C 
HETATM    4  C   LIG     1      41.183   2.621   0.917  1.00  0.00     0.290 C 
HETATM    5  O   LIG     1      42.406   3.322   0.657  1.00  0.00    -0.349 OA
HETATM    6  C   LIG     1      42.203   4.536  -0.081  1.00  0.00     0.179 C 
ENDROOT
BRANCH   6   7
HETATM    7  C   LIG     1      43.568   5.123  -0.456  1.00  0.00     0.198 C 
BRANCH   7   8
HETATM    8  O   LIG     1      44.575   4.671   0.440  1.00  0.00    -0.398 OA
HETATM    9  H   LIG     1      44.947   5.454   0.889  1.00  0.00     0.209 HD
ENDBRANCH   7   8
ENDBRANCH   6   7
BRANCH   1  10
HETATM   10  O   LIG     1      42.015   5.777   2.040  1.00  0.00    -0.390 OA
HETATM   11  H   LIG     1      42.961   5.548   1.947  1.00  0.00     0.210 HD
ENDBRANCH   1  10
BRANCH   2  12
HETATM   12  O   LIG     1      39.262   5.696   1.970  1.00  0.00    -0.390 OA
HETATM   13  H   LIG     1      38.871   6.397   1.407  1.00  0.00     0.210 HD
ENDBRANCH   2  12
BRANCH   4  14
HETATM   14  O   LIG     1      41.488   1.464   1.701  1.00  0.00    -0.363 OA
HETATM   15  C   LIG     1      41.337   0.262   0.963  1.00  0.00     0.204 C 
ENDBRANCH   4  14
BRANCH   3  16
HETATM   16  O   LIG     1      38.889   2.858   1.770  1.00  0.00    -0.388 OA
HETATM   17  H   LIG     1      38.976   2.138   2.424  1.00  0.00     0.210 HD
ENDBRANCH   3  16
TORSDOF 6
ENDMDL
MODEL 5
REMARK VINA RESULT:      -4.8      3.413      6.428
REMARK  6 active torsions:
REMARK  status: ('A' for Active; 'I' for Inactive)
REMARK    1  A    between atoms: C_1  and  O_7 
REMARK    2  A    between atoms: C_2  and  O_10 
REMARK    3  A    between atoms: C_3  and  O_12 
REMARK    4  A    between atoms: C_4  and  O_11 
REMARK    5  A    between atoms: C_6  and  C_8 
REMARK    6  A    between atoms: C_8  and  O_9 
ROOT
HETATM    1  C   LIG     1      44.173   7.469   1.137  1.00  0.00     0.180 C 
HETATM    2  C   LIG     1      43.083   8.538   1.203  1.00  0.00     0.183 C 
HETATM    3  C   LIG     1      41.770   7.969   1.751  1.00  0.00     0.204 C 
HETATM    4  C   LIG     1      41.397   6.658   1.027  1.00  0.00     0.290 C 
HETATM    5  O   LIG     1      42.495   5.736   0.987  1.00  0.00    -0.349 OA
HETATM    6  C   LIG     1      43.647   6.276   0.324  1.00  0.00     0.179 C 
ENDROOT
BRANCH   6   7
HETATM    7  C   LIG     1      44.700   5.171   0.181  1.00  0.00     0.198 C 
BRANCH   7   8
HETATM    8  O   LIG     1      44.620   4.254   1.265  1.00  0.00    -0.398 OA
HETATM    9  H   LIG     1      45.531   4.033   1.534  1.00  0.00     0.209 HD
ENDBRANCH   7   8
ENDBRANCH   6   7
BRANCH   1  10
HETATM   10  O   LIG     1      44.492   7.093   2.490  1.00  0.00    -0.390 OA
HETATM   11  H   LIG     1      45.458   7.192   2.603  1.00  0.00     0.210 HD
ENDBRANCH   1  10
BRANCH   2  12
HETATM   12  O   LIG     1      43.498   9.624   2.047  1.00  0.00    -0.390 OA
HETATM   13  H   LIG     1      44.032  10.213   1.474  1.00  0.00     0.210 HD
ENDBRANCH   2  12
BRANCH   4  14
HETATM   14  O   LIG     1      40.326   6.047   1.752  1.00  0.00    -0.363 OA
HETATM   15  C   LIG     1      40.690   4.783   2.283  1.00  0.00     0.204 C 
ENDBRANCH   4  14
BRANCH   3  16
HETATM   16  O   LIG     1      40.745   8.963   1.581  1.00  0.00    -0.388 OA
HETATM   17  H   LIG     1      39.901   8.488   1.712  1.00  0.00     0.210 HD
ENDBRANCH   3  16
TORSDOF 6
ENDMDL
MODEL 6
REMARK VINA RESULT:      -4.7      2.890      4.612
REMARK  6 active torsions:
REMARK  status: ('A' for Active; 'I' for Inactive)
REMARK    1  A    between atoms: C_1  and  O_7 
REMARK    2  A    between atoms: C_2  and  O_10 
REMARK    3  A    between atoms: C_3  and  O_12 
REMARK    4  A    between atoms: C_4  and  O_11 
REMARK    5  A    between atoms: C_6  and  C_8 
REMARK    6  A    between atoms: C_8  and  O_9 
ROOT
HETATM    1  C   LIG     1      42.253   4.506   1.116  1.00  0.00     0.180 C 
HETATM    2  C   LIG     1      43.686   5.008   0.940  1.00  0.00     0.183 C 
HETATM    3  C   LIG     1      43.906   6.342   1.661  1.00  0.00     0.204 C 
HETATM    4  C   LIG     1      42.785   7.345   1.312  1.00  0.00     0.290 C 
HETATM    5  O   LIG     1      41.482   6.769   1.475  1.00  0.00    -0.349 OA
HETATM    6  C   LIG     1      41.284   5.607   0.658  1.00  0.00     0.179 C 
ENDROOT
BRANCH   6   7
HETATM    7  C   LIG     1      39.820   5.165   0.770  1.00  0.00     0.198 C 
BRANCH   7   8
HETATM    8  O   LIG     1      39.267   5.563   2.018  1.00  0.00    -0.398 OA
HETATM    9  H   LIG     1      39.022   6.505   1.946  1.00  0.00     0.209 HD
ENDBRANCH   7   8
ENDBRANCH   6   7
BRANCH   1  10
HETATM   10  O   LIG     1      42.075   4.186   2.510  1.00  0.00    -0.390 OA
HETATM   11  H   LIG     1      42.834   4.562   2.998  1.00  0.00     0.210 HD
ENDBRANCH   1  10
BRANCH   2  12
HETATM   12  O   LIG     1      44.620   4.048   1.461  1.00  0.00    -0.390 OA
HETATM   13  H   LIG     1      44.443   3.218   0.971  1.00  0.00     0.210 HD
ENDBRANCH   2  12
BRANCH   4  14
HETATM   14  O   LIG     1      42.899   8.455   2.207  1.00  0.00    -0.363 OA
HETATM   15  C   LIG     1      42.988   9.692   1.518  1.00  0.00     0.204 C 
ENDBRANCH   4  14
BRANCH   3  16
HETATM   16  O   LIG     1      45.194   6.853   1.274  1.00  0.00    -0.388 OA
HETATM   17  H   LIG     1      45.770   6.068   1.197  1.00  0.00     0.210 HD
ENDBRANCH   3  16
TORSDOF 6
ENDMDL
MODEL 7
REMARK VINA RESULT:      -4.7      8.704     10.869
REMARK  6 active torsions:
REMARK  status: ('A' for Active; 'I' for Inactive)
REMARK    1  A    between atoms: C_1  and  O_7 
REMARK    2  A    between atoms: C_2  and  O_10 
REMARK    3  A    between atoms: C_3  and  O_12 
REMARK    4  A    between atoms: C_4  and  O_11 
REMARK    5  A    between atoms: C_6  and  C_8 
REMARK    6  A    between atoms: C_8  and  O_9 
ROOT
HETATM    1  C   LIG     1      43.111  -8.103  -2.493  1.00  0.00     0.180 C 
HETATM    2  C   LIG     1      43.541  -7.201  -1.336  1.00  0.00     0.183 C 
HETATM    3  C   LIG     1      42.720  -5.908  -1.297  1.00  0.00     0.204 C 
HETATM    4  C   LIG     1      42.669  -5.249  -2.692  1.00  0.00     0.290 C 
HETATM    5  O   LIG     1      42.292  -6.184  -3.713  1.00  0.00    -0.349 OA
HETATM    6  C   LIG     1      43.189  -7.300  -3.801  1.00  0.00     0.179 C 
ENDROOT
BRANCH   6   7
HETATM    7  C   LIG     1      42.806  -8.148  -5.018  1.00  0.00     0.198 C 
BRANCH   7   8
HETATM    8  O   LIG     1      41.401  -8.118  -5.234  1.00  0.00    -0.398 OA
HETATM    9  H   LIG     1      41.247  -7.785  -6.138  1.00  0.00     0.209 HD
ENDBRANCH   7   8
ENDBRANCH   6   7
BRANCH   1  10
HETATM   10  O   LIG     1      41.769  -8.548  -2.220  1.00  0.00    -0.390 OA
HETATM   11  H   LIG     1      41.479  -8.118  -1.391  1.00  0.00     0.210 HD
ENDBRANCH   1  10
BRANCH   2  12
HETATM   12  O   LIG     1      43.376  -7.885  -0.082  1.00  0.00    -0.390 OA
HETATM   13  H   LIG     1      44.146  -7.619   0.464  1.00  0.00     0.210 HD
ENDBRANCH   2  12
BRANCH   4  14
HETATM   14  O   LIG     1      41.686  -4.211  -2.650  1.00  0.00    -0.363 OA
HETATM   15  C   LIG     1      40.401  -4.704  -2.307  1.00  0.00     0.204 C 
ENDBRANCH   4  14
BRANCH   3  16
HETATM   16  O   LIG     1      43.318  -5.027  -0.331  1.00  0.00    -0.388 OA
HETATM   17  H   LIG     1      44.127  -4.685  -0.760  1.00  0.00     0.210 HD
ENDBRANCH   3  16
TORSDOF 6
ENDMDL
MODEL 8
REMARK VINA RESULT:      -4.7      1.755      3.854
REMARK  6 active torsions:
REMARK  status: ('A' for Active; 'I' for Inactive)
REMARK    1  A    between atoms: C_1  and  O_7 
REMARK    2  A    between atoms: C_2  and  O_10 
REMARK    3  A    between atoms: C_3  and  O_12 
REMARK    4  A    between atoms: C_4  and  O_11 
REMARK    5  A    between atoms: C_6  and  C_8 
REMARK    6  A    between atoms: C_8  and  O_9 
ROOT
HETATM    1  C   LIG     1      40.092   3.389   1.409  1.00  0.00     0.180 C 
HETATM    2  C   LIG     1      40.396   4.777   1.972  1.00  0.00     0.183 C 
HETATM    3  C   LIG     1      41.509   5.472   1.181  1.00  0.00     0.204 C 
HETATM    4  C   LIG     1      42.719   4.532   0.996  1.00  0.00     0.290 C 
HETATM    5  O   LIG     1      42.326   3.245   0.499  1.00  0.00    -0.349 OA
HETATM    6  C   LIG     1      41.396   2.578   1.363  1.00  0.00     0.179 C 
ENDROOT
BRANCH   6   7
HETATM    7  C   LIG     1      41.168   1.155   0.842  1.00  0.00     0.198 C 
BRANCH   7   8
HETATM    8  O   LIG     1      42.385   0.418   0.836  1.00  0.00    -0.398 OA
HETATM    9  H   LIG     1      42.721   0.392   1.751  1.00  0.00     0.209 HD
ENDBRANCH   7   8
ENDBRANCH   6   7
BRANCH   1  10
HETATM   10  O   LIG     1      39.529   3.568   0.095  1.00  0.00    -0.390 OA
HETATM   11  H   LIG     1      40.235   3.386  -0.555  1.00  0.00     0.210 HD
ENDBRANCH   1  10
BRANCH   2  12
HETATM   12  O   LIG     1      39.220   5.603   1.928  1.00  0.00    -0.390 OA
HETATM   13  H   LIG     1      38.555   5.141   2.481  1.00  0.00     0.210 HD
ENDBRANCH   2  12
BRANCH   4  14
HETATM   14  O   LIG     1      43.597   5.133   0.040  1.00  0.00    -0.363 OA
HETATM   15  C   LIG     1      44.897   5.344   0.564  1.00  0.00     0.204 C 
ENDBRANCH   4  14
BRANCH   3  16
HETATM   16  O   LIG     1      41.885   6.665   1.891  1.00  0.00    -0.388 OA
HETATM   17  H   LIG     1      42.066   7.331   1.200  1.00  0.00     0.210 HD
ENDBRANCH   3  16
TORSDOF 6
ENDMDL
MODEL 9
REMARK VINA RESULT:      -4.7     17.401     18.236
REMARK  6 active torsions:
REMARK  status: ('A' for Active; 'I' for Inactive)
REMARK    1  A    between atoms: C_1  and  O_7 
REMARK    2  A    between atoms: C_2  and  O_10 
REMARK    3  A    between atoms: C_3  and  O_12 
REMARK    4  A    between atoms: C_4  and  O_11 
REMARK    5  A    between atoms: C_6  and  C_8 
REMARK    6  A    between atoms: C_8  and  O_9 
ROOT
HETATM    1  C   LIG     1      29.796  16.895   2.736  1.00  0.00     0.180 C 
HETATM    2  C   LIG     1      28.491  16.502   2.045  1.00  0.00     0.183 C 
HETATM    3  C   LIG     1      28.689  16.314   0.537  1.00  0.00     0.204 C 
HETATM    4  C   LIG     1      29.447  17.514  -0.070  1.00  0.00     0.290 C 
HETATM    5  O   LIG     1      30.636  17.825   0.669  1.00  0.00    -0.349 OA
HETATM    6  C   LIG     1      30.367  18.142   2.042  1.00  0.00     0.179 C 
ENDROOT
BRANCH   6   7
HETATM    7  C   LIG     1      31.664  18.622   2.703  1.00  0.00     0.198 C 
BRANCH   7   8
HETATM    8  O   LIG     1      31.868  17.968   3.949  1.00  0.00    -0.398 OA
HETATM    9  H   LIG     1      32.073  17.032   3.762  1.00  0.00     0.209 HD
ENDBRANCH   7   8
ENDBRANCH   6   7
BRANCH   1  10
HETATM   10  O   LIG     1      30.693  15.772   2.637  1.00  0.00    -0.390 OA
HETATM   11  H   LIG     1      30.178  14.965   2.836  1.00  0.00     0.210 HD
ENDBRANCH   1  10
BRANCH   2  12
HETATM   12  O   LIG     1      27.983  15.276   2.596  1.00  0.00    -0.390 OA
HETATM   13  H   LIG     1      27.907  15.433   3.560  1.00  0.00     0.210 HD
ENDBRANCH   2  12
BRANCH   4  14
HETATM   14  O   LIG     1      29.828  17.160  -1.403  1.00  0.00    -0.363 OA
HETATM   15  C   LIG     1      30.954  17.897  -1.851  1.00  0.00     0.204 C 
ENDBRANCH   4  14
BRANCH   3  16
HETATM   16  O   LIG     1      27.393  16.162  -0.069  1.00  0.00    -0.388 OA
HETATM   17  H   LIG     1      26.757  16.193   0.672  1.00  0.00     0.210 HD
ENDBRANCH   3  16
TORSDOF 6
ENDMDL
