MODEL 1
REMARK VINA RESULT:      -5.6      0.000      0.000
REMARK  14 active torsions:
REMARK  status: ('A' for Active; 'I' for Inactive)
REMARK    1  A    between atoms: C_1  and  O_21 
REMARK    2  A    between atoms: C_2  and  O_9 
REMARK    3  A    between atoms: C_3  and  O_10 
REMARK    4  A    between atoms: C_4  and  O_11 
REMARK    5  A    between atoms: C_6  and  C_7 
REMARK    6  A    between atoms: C_7  and  O_8 
REMARK    7  A    between atoms: O_11  and  C_12 
REMARK    8  A    between atoms: C_12  and  C_13 
REMARK    9  A    between atoms: C_13  and  C_14 
REMARK   10  A    between atoms: C_14  and  C_15 
REMARK   11  A    between atoms: C_15  and  C_16 
REMARK   12  A    between atoms: C_16  and  C_17 
REMARK   13  A    between atoms: C_17  and  C_18 
REMARK   14  A    between atoms: C_18  and  C_19 
ROOT
HETATM    1  C   LIG     1      40.052   3.570   1.485  1.00  0.00     0.180 C 
HETATM    2  C   LIG     1      40.173   5.028   1.921  1.00  0.00     0.183 C 
HETATM    3  C   LIG     1      41.326   5.737   1.202  1.00  0.00     0.204 C 
HETATM    4  C   LIG     1      42.604   4.905   1.426  1.00  0.00     0.291 C 
HETATM    5  O   LIG     1      42.430   3.600   0.873  1.00  0.00    -0.348 OA
HETATM    6  C   LIG     1      41.410   2.851   1.539  1.00  0.00     0.179 C 
ENDROOT
BRANCH   4   7
HETATM    7  O   LIG     1      43.725   5.529   0.796  1.00  0.00    -0.359 OA
BRANCH   7   8
HETATM    8  C   LIG     1      44.850   5.538   1.672  1.00  0.00     0.171 C 
BRANCH   8   9
HETATM    9  C   LIG     1      45.713   6.775   1.452  1.00  0.00     0.026 C 
BRANCH   9  10
HETATM   10  C   LIG     1      46.207   7.294   2.803  1.00  0.00     0.002 C 
BRANCH  10  11
HETATM   11  C   LIG     1      45.552   8.609   3.222  1.00  0.00     0.000 C 
BRANCH  11  12
HETATM   12  C   LIG     1      45.698   8.805   4.734  1.00  0.00     0.000 C 
BRANCH  12  13
HETATM   13  C   LIG     1      46.289  10.169   5.087  1.00  0.00     0.000 C 
BRANCH  13  14
HETATM   14  C   LIG     1      45.251  11.042   5.796  1.00  0.00    -0.000 C 
BRANCH  14  15
HETATM   15  C   LIG     1      45.057  12.378   5.083  1.00  0.00    -0.005 C 
HETATM   16  C   LIG     1      44.299  12.203   3.776  1.00  0.00     0.005 C 
ENDBRANCH  14  15
ENDBRANCH  13  14
ENDBRANCH  12  13
ENDBRANCH  11  12
ENDBRANCH  10  11
ENDBRANCH   9  10
ENDBRANCH   8   9
ENDBRANCH   7   8
ENDBRANCH   4   7
BRANCH   3  17
HETATM   17  O   LIG     1      41.401   7.077   1.716  1.00  0.00    -0.388 OA
HETATM   18  H   LIG     1      40.900   7.122   2.546  1.00  0.00     0.210 HD
ENDBRANCH   3  17
BRANCH   2  19
HETATM   19  O   LIG     1      38.920   5.680   1.661  1.00  0.00    -0.390 OA
HETATM   20  H   LIG     1      38.344   5.490   2.429  1.00  0.00     0.210 HD
ENDBRANCH   2  19
BRANCH   6  21
HETATM   21  C   LIG     1      41.293   1.468   0.876  1.00  0.00     0.198 C 
BRANCH  21  22
HETATM   22  O   LIG     1      40.794   0.488   1.781  1.00  0.00    -0.398 OA
HETATM   23  H   LIG     1      41.280   0.597   2.625  1.00  0.00     0.209 HD
ENDBRANCH  21  22
ENDBRANCH   6  21
BRANCH   1  24
HETATM   24  O   LIG     1      39.103   2.900   2.329  1.00  0.00    -0.390 OA
HETATM   25  H   LIG     1      38.363   2.648   1.736  1.00  0.00     0.210 HD
ENDBRANCH   1  24
TORSDOF 14
ENDMDL
MODEL 2
REMARK VINA RESULT:      -5.4      3.089      9.051
REMARK  14 active torsions:
REMARK  status: ('A' for Active; 'I' for Inactive)
REMARK    1  A    between atoms: C_1  and  O_21 
REMARK    2  A    between atoms: C_2  and  O_9 
REMARK    3  A    between atoms: C_3  and  O_10 
REMARK    4  A    between atoms: C_4  and  O_11 
REMARK    5  A    between atoms: C_6  and  C_7 
REMARK    6  A    between atoms: C_7  and  O_8 
REMARK    7  A    between atoms: O_11  and  C_12 
REMARK    8  A    between atoms: C_12  and  C_13 
REMARK    9  A    between atoms: C_13  and  C_14 
REMARK   10  A    between atoms: C_14  and  C_15 
REMARK   11  A    between atoms: C_15  and  C_16 
REMARK   12  A    between atoms: C_16  and  C_17 
REMARK   13  A    between atoms: C_17  and  C_18 
REMARK   14  A    between atoms: C_18  and  C_19 
ROOT
HETATM    1  C   LIG     1      43.957   7.535   1.379  1.00  0.00     0.180 C 
HETATM    2  C   LIG     1      44.561   6.157   1.640  1.00  0.00     0.183 C 
HETATM    3  C   LIG     1      43.719   5.044   1.009  1.00  0.00     0.204 C 
HETATM    4  C   LIG     1      42.272   5.202   1.516  1.00  0.00     0.291 C 
HETATM    5  O   LIG     1      41.759   6.473   1.114  1.00  0.00    -0.348 OA
HETATM    6  C   LIG     1      42.457   7.565   1.717  1.00  0.00     0.179 C 
ENDROOT
BRANCH   4   7
HETATM    7  O   LIG     1      41.437   4.174   0.979  1.00  0.00    -0.359 OA
BRANCH   7   8
HETATM    8  C   LIG     1      40.062   4.473   1.213  1.00  0.00     0.171 C 
BRANCH   8   9
HETATM    9  C   LIG     1      39.172   3.282   0.876  1.00  0.00     0.026 C 
BRANCH   9  10
HETATM   10  C   LIG     1      39.785   2.508  -0.292  1.00  0.00     0.002 C 
BRANCH  10  11
HETATM   11  C   LIG     1      39.728   0.992  -0.108  1.00  0.00     0.000 C 
BRANCH  11  12
HETATM   12  C   LIG     1      39.831   0.643   1.379  1.00  0.00     0.000 C 
BRANCH  12  13
HETATM   13  C   LIG     1      39.835  -0.866   1.621  1.00  0.00     0.000 C 
BRANCH  13  14
HETATM   14  C   LIG     1      39.270  -1.611   0.410  1.00  0.00    -0.000 C 
BRANCH  14  15
HETATM   15  C   LIG     1      39.229  -3.120   0.647  1.00  0.00    -0.005 C 
HETATM   16  C   LIG     1      38.508  -3.457   1.943  1.00  0.00     0.005 C 
ENDBRANCH  14  15
ENDBRANCH  13  14
ENDBRANCH  12  13
ENDBRANCH  11  12
ENDBRANCH  10  11
ENDBRANCH   9  10
ENDBRANCH   8   9
ENDBRANCH   7   8
ENDBRANCH   4   7
BRANCH   3  17
HETATM   17  O   LIG     1      44.328   3.788   1.356  1.00  0.00    -0.388 OA
HETATM   18  H   LIG     1      45.072   3.626   0.755  1.00  0.00     0.210 HD
ENDBRANCH   3  17
BRANCH   2  19
HETATM   19  O   LIG     1      45.901   6.150   1.124  1.00  0.00    -0.390 OA
HETATM   20  H   LIG     1      46.498   6.138   1.901  1.00  0.00     0.210 HD
ENDBRANCH   2  19
BRANCH   6  21
HETATM   21  C   LIG     1      41.839   8.885   1.223  1.00  0.00     0.198 C 
BRANCH  21  22
HETATM   22  O   LIG     1      42.097   9.959   2.122  1.00  0.00    -0.398 OA
HETATM   23  H   LIG     1      41.585   9.782   2.940  1.00  0.00     0.209 HD
ENDBRANCH  21  22
ENDBRANCH   6  21
BRANCH   1  24
HETATM   24  O   LIG     1      44.658   8.517   2.156  1.00  0.00    -0.390 OA
HETATM   25  H   LIG     1      45.075   9.116   1.500  1.00  0.00     0.210 HD
ENDBRANCH   1  24
TORSDOF 14
ENDMDL
MODEL 3
REMARK VINA RESULT:      -5.4      7.202     11.331
REMARK  14 active torsions:
REMARK  status: ('A' for Active; 'I' for Inactive)
REMARK    1  A    between atoms: C_1  and  O_21 
REMARK    2  A    between atoms: C_2  and  O_9 
REMARK    3  A    between atoms: C_3  and  O_10 
REMARK    4  A    between atoms: C_4  and  O_11 
REMARK    5  A    between atoms: C_6  and  C_7 
REMARK    6  A    between atoms: C_7  and  O_8 
REMARK    7  A    between atoms: O_11  and  C_12 
REMARK    8  A    between atoms: C_12  and  C_13 
REMARK    9  A    between atoms: C_13  and  C_14 
REMARK   10  A    between atoms: C_14  and  C_15 
REMARK   11  A    between atoms: C_15  and  C_16 
REMARK   12  A    between atoms: C_16  and  C_17 
REMARK   13  A    between atoms: C_17  and  C_18 
REMARK   14  A    between atoms: C_18  and  C_19 
ROOT
HETATM    1  C   LIG     1      50.775  12.323   8.356  1.00  0.00     0.180 C 
HETATM    2  C   LIG     1      50.450  11.659   7.020  1.00  0.00     0.183 C 
HETATM    3  C   LIG     1      49.357  12.421   6.264  1.00  0.00     0.204 C 
HETATM    4  C   LIG     1      48.145  12.565   7.206  1.00  0.00     0.291 C 
HETATM    5  O   LIG     1      48.524  13.306   8.366  1.00  0.00    -0.348 OA
HETATM    6  C   LIG     1      49.499  12.625   9.160  1.00  0.00     0.179 C 
ENDROOT
BRANCH   4   7
HETATM    7  O   LIG     1      47.077  13.250   6.548  1.00  0.00    -0.359 OA
BRANCH   7   8
HETATM    8  C   LIG     1      45.822  12.884   7.117  1.00  0.00     0.171 C 
BRANCH   8   9
HETATM    9  C   LIG     1      44.927  12.201   6.090  1.00  0.00     0.026 C 
BRANCH   9  10
HETATM   10  C   LIG     1      45.307  12.681   4.689  1.00  0.00     0.002 C 
BRANCH  10  11
HETATM   11  C   LIG     1      44.358  12.183   3.601  1.00  0.00     0.000 C 
BRANCH  11  12
HETATM   12  C   LIG     1      44.813  10.809   3.101  1.00  0.00     0.000 C 
BRANCH  12  13
HETATM   13  C   LIG     1      46.325  10.739   2.893  1.00  0.00     0.000 C 
BRANCH  13  14
HETATM   14  C   LIG     1      46.894   9.445   3.480  1.00  0.00    -0.000 C 
BRANCH  14  15
HETATM   15  C   LIG     1      45.811   8.382   3.654  1.00  0.00    -0.005 C 
HETATM   16  C   LIG     1      46.006   7.229   2.683  1.00  0.00     0.005 C 
ENDBRANCH  14  15
ENDBRANCH  13  14
ENDBRANCH  12  13
ENDBRANCH  11  12
ENDBRANCH  10  11
ENDBRANCH   9  10
ENDBRANCH   8   9
ENDBRANCH   7   8
ENDBRANCH   4   7
BRANCH   3  17
HETATM   17  O   LIG     1      49.077  11.695   5.055  1.00  0.00    -0.388 OA
HETATM   18  H   LIG     1      48.794  12.323   4.372  1.00  0.00     0.210 HD
ENDBRANCH   3  17
BRANCH   2  19
HETATM   19  O   LIG     1      51.660  11.587   6.249  1.00  0.00    -0.390 OA
HETATM   20  H   LIG     1      51.581  10.792   5.682  1.00  0.00     0.210 HD
ENDBRANCH   2  19
BRANCH   6  21
HETATM   21  C   LIG     1      49.847  13.496  10.379  1.00  0.00     0.198 C 
BRANCH  21  22
HETATM   22  O   LIG     1      51.048  14.234  10.177  1.00  0.00    -0.398 OA
HETATM   23  H   LIG     1      51.116  14.421   9.217  1.00  0.00     0.209 HD
ENDBRANCH  21  22
ENDBRANCH   6  21
BRANCH   1  24
HETATM   24  O   LIG     1      51.645  11.468   9.112  1.00  0.00    -0.390 OA
HETATM   25  H   LIG     1      51.961  12.018   9.861  1.00  0.00     0.210 HD
ENDBRANCH   1  24
TORSDOF 14
ENDMDL
MODEL 4
REMARK VINA RESULT:      -5.3      2.547      4.537
REMARK  14 active torsions:
REMARK  status: ('A' for Active; 'I' for Inactive)
REMARK    1  A    between atoms: C_1  and  O_21 
REMARK    2  A    between atoms: C_2  and  O_9 
REMARK    3  A    between atoms: C_3  and  O_10 
REMARK    4  A    between atoms: C_4  and  O_11 
REMARK    5  A    between atoms: C_6  and  C_7 
REMARK    6  A    between atoms: C_7  and  O_8 
REMARK    7  A    between atoms: O_11  and  C_12 
REMARK    8  A    between atoms: C_12  and  C_13 
REMARK    9  A    between atoms: C_13  and  C_14 
REMARK   10  A    between atoms: C_14  and  C_15 
REMARK   11  A    between atoms: C_15  and  C_16 
REMARK   12  A    between atoms: C_16  and  C_17 
REMARK   13  A    between atoms: C_17  and  C_18 
REMARK   14  A    between atoms: C_18  and  C_19 
ROOT
HETATM    1  C   LIG     1      41.846   6.618   0.948  1.00  0.00     0.180 C 
HETATM    2  C   LIG     1      42.645   5.336   0.722  1.00  0.00     0.183 C 
HETATM    3  C   LIG     1      43.823   5.228   1.696  1.00  0.00     0.204 C 
HETATM    4  C   LIG     1      44.658   6.519   1.572  1.00  0.00     0.291 C 
HETATM    5  O   LIG     1      43.853   7.645   1.922  1.00  0.00    -0.348 OA
HETATM    6  C   LIG     1      42.766   7.849   1.017  1.00  0.00     0.179 C 
ENDROOT
BRANCH   4   7
HETATM    7  O   LIG     1      45.790   6.469   2.442  1.00  0.00    -0.359 OA
BRANCH   7   8
HETATM    8  C   LIG     1      45.926   7.695   3.157  1.00  0.00     0.171 C 
BRANCH   8   9
HETATM    9  C   LIG     1      47.138   8.485   2.676  1.00  0.00     0.026 C 
BRANCH   9  10
HETATM   10  C   LIG     1      47.200   9.819   3.422  1.00  0.00     0.002 C 
BRANCH  10  11
HETATM   11  C   LIG     1      46.947   9.685   4.923  1.00  0.00     0.000 C 
BRANCH  11  12
HETATM   12  C   LIG     1      48.187  10.132   5.702  1.00  0.00     0.000 C 
BRANCH  12  13
HETATM   13  C   LIG     1      48.030  11.535   6.287  1.00  0.00     0.000 C 
BRANCH  13  14
HETATM   14  C   LIG     1      49.354  12.028   6.875  1.00  0.00    -0.000 C 
BRANCH  14  15
HETATM   15  C   LIG     1      49.755  11.225   8.111  1.00  0.00    -0.005 C 
HETATM   16  C   LIG     1      51.226  10.842   8.069  1.00  0.00     0.005 C 
ENDBRANCH  14  15
ENDBRANCH  13  14
ENDBRANCH  12  13
ENDBRANCH  11  12
ENDBRANCH  10  11
ENDBRANCH   9  10
ENDBRANCH   8   9
ENDBRANCH   7   8
ENDBRANCH   4   7
BRANCH   3  17
HETATM   17  O   LIG     1      44.547   4.029   1.371  1.00  0.00    -0.388 OA
HETATM   18  H   LIG     1      45.078   3.767   2.140  1.00  0.00     0.210 HD
ENDBRANCH   3  17
BRANCH   2  19
HETATM   19  O   LIG     1      41.751   4.221   0.863  1.00  0.00    -0.390 OA
HETATM   20  H   LIG     1      42.298   3.413   0.765  1.00  0.00     0.210 HD
ENDBRANCH   2  19
BRANCH   6  21
HETATM   21  C   LIG     1      41.958   9.076   1.476  1.00  0.00     0.198 C 
BRANCH  21  22
HETATM   22  O   LIG     1      40.697   8.705   2.022  1.00  0.00    -0.398 OA
HETATM   23  H   LIG     1      40.716   7.735   2.167  1.00  0.00     0.209 HD
ENDBRANCH  21  22
ENDBRANCH   6  21
BRANCH   1  24
HETATM   24  O   LIG     1      40.890   6.774  -0.110  1.00  0.00    -0.390 OA
HETATM   25  H   LIG     1      41.388   7.182  -0.851  1.00  0.00     0.210 HD
ENDBRANCH   1  24
TORSDOF 14
ENDMDL
MODEL 5
REMARK VINA RESULT:      -5.3      2.426      3.341
REMARK  14 active torsions:
REMARK  status: ('A' for Active; 'I' for Inactive)
REMARK    1  A    between atoms: C_1  and  O_21 
REMARK    2  A    between atoms: C_2  and  O_9 
REMARK    3  A    between atoms: C_3  and  O_10 
REMARK    4  A    between atoms: C_4  and  O_11 
REMARK    5  A    between atoms: C_6  and  C_7 
REMARK    6  A    between atoms: C_7  and  O_8 
REMARK    7  A    between atoms: O_11  and  C_12 
REMARK    8  A    between atoms: C_12  and  C_13 
REMARK    9  A    between atoms: C_13  and  C_14 
REMARK   10  A    between atoms: C_14  and  C_15 
REMARK   11  A    between atoms: C_15  and  C_16 
REMARK   12  A    between atoms: C_16  and  C_17 
REMARK   13  A    between atoms: C_17  and  C_18 
REMARK   14  A    between atoms: C_18  and  C_19 
ROOT
HETATM    1  C   LIG     1      39.966   3.442   1.349  1.00  0.00     0.180 C 
HETATM    2  C   LIG     1      40.373   4.777   1.968  1.00  0.00     0.183 C 
HETATM    3  C   LIG     1      41.616   5.358   1.286  1.00  0.00     0.204 C 
HETATM    4  C   LIG     1      42.721   4.284   1.325  1.00  0.00     0.291 C 
HETATM    5  O   LIG     1      42.288   3.124   0.615  1.00  0.00    -0.348 OA
HETATM    6  C   LIG     1      41.165   2.487   1.231  1.00  0.00     0.179 C 
ENDROOT
BRANCH   4   7
HETATM    7  O   LIG     1      43.921   4.775   0.723  1.00  0.00    -0.359 OA
BRANCH   7   8
HETATM    8  C   LIG     1      43.688   5.125  -0.641  1.00  0.00     0.171 C 
BRANCH   8   9
HETATM    9  C   LIG     1      44.641   6.223  -1.099  1.00  0.00     0.026 C 
BRANCH   9  10
HETATM   10  C   LIG     1      46.083   5.766  -0.877  1.00  0.00     0.002 C 
BRANCH  10  11
HETATM   11  C   LIG     1      47.104   6.573  -1.677  1.00  0.00     0.000 C 
BRANCH  11  12
HETATM   12  C   LIG     1      47.022   8.051  -1.285  1.00  0.00     0.000 C 
BRANCH  12  13
HETATM   13  C   LIG     1      47.966   8.399  -0.135  1.00  0.00     0.000 C 
BRANCH  13  14
HETATM   14  C   LIG     1      47.175   8.775   1.120  1.00  0.00    -0.000 C 
BRANCH  14  15
HETATM   15  C   LIG     1      47.181   7.646   2.149  1.00  0.00    -0.005 C 
HETATM   16  C   LIG     1      45.766   7.239   2.532  1.00  0.00     0.005 C 
ENDBRANCH  14  15
ENDBRANCH  13  14
ENDBRANCH  12  13
ENDBRANCH  11  12
ENDBRANCH  10  11
ENDBRANCH   9  10
ENDBRANCH   8   9
ENDBRANCH   7   8
ENDBRANCH   4   7
BRANCH   3  17
HETATM   17  O   LIG     1      41.959   6.576   1.970  1.00  0.00    -0.388 OA
HETATM   18  H   LIG     1      42.925   6.636   2.035  1.00  0.00     0.210 HD
ENDBRANCH   3  17
BRANCH   2  19
HETATM   19  O   LIG     1      39.258   5.677   1.867  1.00  0.00    -0.390 OA
HETATM   20  H   LIG     1      38.577   5.216   1.335  1.00  0.00     0.210 HD
ENDBRANCH   2  19
BRANCH   6  21
HETATM   21  C   LIG     1      40.770   1.256   0.397  1.00  0.00     0.198 C 
BRANCH  21  22
HETATM   22  O   LIG     1      41.846   0.331   0.275  1.00  0.00    -0.398 OA
HETATM   23  H   LIG     1      41.603  -0.467   0.790  1.00  0.00     0.209 HD
ENDBRANCH  21  22
ENDBRANCH   6  21
BRANCH   1  24
HETATM   24  O   LIG     1      38.934   2.844   2.147  1.00  0.00    -0.390 OA
HETATM   25  H   LIG     1      39.399   2.214   2.739  1.00  0.00     0.210 HD
ENDBRANCH   1  24
TORSDOF 14
ENDMDL
MODEL 6
REMARK VINA RESULT:      -5.3      7.670     11.058
REMARK  14 active torsions:
REMARK  status: ('A' for Active; 'I' for Inactive)
REMARK    1  A    between atoms: C_1  and  O_21 
REMARK    2  A    between atoms: C_2  and  O_9 
REMARK    3  A    between atoms: C_3  and  O_10 
REMARK    4  A    between atoms: C_4  and  O_11 
REMARK    5  A    between atoms: C_6  and  C_7 
REMARK    6  A    between atoms: C_7  and  O_8 
REMARK    7  A    between atoms: O_11  and  C_12 
REMARK    8  A    between atoms: C_12  and  C_13 
REMARK    9  A    between atoms: C_13  and  C_14 
REMARK   10  A    between atoms: C_14  and  C_15 
REMARK   11  A    between atoms: C_15  and  C_16 
REMARK   12  A    between atoms: C_16  and  C_17 
REMARK   13  A    between atoms: C_17  and  C_18 
REMARK   14  A    between atoms: C_18  and  C_19 
ROOT
HETATM    1  C   LIG     1      50.978  11.280   8.036  1.00  0.00     0.180 C 
HETATM    2  C   LIG     1      50.709  12.456   8.972  1.00  0.00     0.183 C 
HETATM    3  C   LIG     1      49.207  12.706   9.144  1.00  0.00     0.204 C 
HETATM    4  C   LIG     1      48.591  12.866   7.741  1.00  0.00     0.291 C 
HETATM    5  O   LIG     1      48.790  11.667   6.991  1.00  0.00    -0.348 OA
HETATM    6  C   LIG     1      50.171  11.401   6.733  1.00  0.00     0.179 C 
ENDROOT
BRANCH   4   7
HETATM    7  O   LIG     1      47.189  13.126   7.835  1.00  0.00    -0.359 OA
BRANCH   7   8
HETATM    8  C   LIG     1      46.551  12.895   6.580  1.00  0.00     0.171 C 
BRANCH   8   9
HETATM    9  C   LIG     1      45.088  12.512   6.766  1.00  0.00     0.026 C 
BRANCH   9  10
HETATM   10  C   LIG     1      44.845  11.132   6.154  1.00  0.00     0.002 C 
BRANCH  10  11
HETATM   11  C   LIG     1      45.847  10.771   5.058  1.00  0.00     0.000 C 
BRANCH  11  12
HETATM   12  C   LIG     1      45.236  11.049   3.682  1.00  0.00     0.000 C 
BRANCH  12  13
HETATM   13  C   LIG     1      45.094   9.779   2.843  1.00  0.00     0.000 C 
BRANCH  13  14
HETATM   14  C   LIG     1      45.779   8.596   3.531  1.00  0.00    -0.000 C 
BRANCH  14  15
HETATM   15  C   LIG     1      46.707   7.850   2.574  1.00  0.00    -0.005 C 
HETATM   16  C   LIG     1      48.004   8.613   2.354  1.00  0.00     0.005 C 
ENDBRANCH  14  15
ENDBRANCH  13  14
ENDBRANCH  12  13
ENDBRANCH  11  12
ENDBRANCH  10  11
ENDBRANCH   9  10
ENDBRANCH   8   9
ENDBRANCH   7   8
ENDBRANCH   4   7
BRANCH   3  17
HETATM   17  O   LIG     1      49.053  13.861   9.987  1.00  0.00    -0.388 OA
HETATM   18  H   LIG     1      49.929  14.241  10.160  1.00  0.00     0.210 HD
ENDBRANCH   3  17
BRANCH   2  19
HETATM   19  O   LIG     1      51.338  12.179  10.233  1.00  0.00    -0.390 OA
HETATM   20  H   LIG     1      52.261  12.498  10.159  1.00  0.00     0.210 HD
ENDBRANCH   2  19
BRANCH   6  21
HETATM   21  C   LIG     1      50.285  10.095   5.927  1.00  0.00     0.198 C 
BRANCH  21  22
HETATM   22  O   LIG     1      51.626   9.840   5.520  1.00  0.00    -0.398 OA
HETATM   23  H   LIG     1      51.691   8.883   5.317  1.00  0.00     0.209 HD
ENDBRANCH  21  22
ENDBRANCH   6  21
BRANCH   1  24
HETATM   24  O   LIG     1      52.382  11.216   7.744  1.00  0.00    -0.390 OA
HETATM   25  H   LIG     1      52.446  10.745   6.886  1.00  0.00     0.210 HD
ENDBRANCH   1  24
TORSDOF 14
ENDMDL
MODEL 7
REMARK VINA RESULT:      -5.2      3.426      7.810
REMARK  14 active torsions:
REMARK  status: ('A' for Active; 'I' for Inactive)
REMARK    1  A    between atoms: C_1  and  O_21 
REMARK    2  A    between atoms: C_2  and  O_9 
REMARK    3  A    between atoms: C_3  and  O_10 
REMARK    4  A    between atoms: C_4  and  O_11 
REMARK    5  A    between atoms: C_6  and  C_7 
REMARK    6  A    between atoms: C_7  and  O_8 
REMARK    7  A    between atoms: O_11  and  C_12 
REMARK    8  A    between atoms: C_12  and  C_13 
REMARK    9  A    between atoms: C_13  and  C_14 
REMARK   10  A    between atoms: C_14  and  C_15 
REMARK   11  A    between atoms: C_15  and  C_16 
REMARK   12  A    between atoms: C_16  and  C_17 
REMARK   13  A    between atoms: C_17  and  C_18 
REMARK   14  A    between atoms: C_18  and  C_19 
ROOT
HETATM    1  C   LIG     1      43.360   6.576   1.131  1.00  0.00     0.180 C 
HETATM    2  C   LIG     1      43.677   5.150   1.573  1.00  0.00     0.183 C 
HETATM    3  C   LIG     1      42.482   4.215   1.359  1.00  0.00     0.204 C 
HETATM    4  C   LIG     1      41.263   4.837   2.068  1.00  0.00     0.291 C 
HETATM    5  O   LIG     1      40.976   6.114   1.498  1.00  0.00    -0.348 OA
HETATM    6  C   LIG     1      42.023   7.063   1.715  1.00  0.00     0.179 C 
ENDROOT
BRANCH   4   7
HETATM    7  O   LIG     1      40.116   3.997   1.924  1.00  0.00    -0.359 OA
BRANCH   7   8
HETATM    8  C   LIG     1      39.310   4.433   0.831  1.00  0.00     0.171 C 
BRANCH   8   9
HETATM    9  C   LIG     1      38.657   3.253   0.120  1.00  0.00     0.026 C 
BRANCH   9  10
HETATM   10  C   LIG     1      38.699   3.488  -1.390  1.00  0.00     0.002 C 
BRANCH  10  11
HETATM   11  C   LIG     1      37.323   3.418  -2.051  1.00  0.00     0.000 C 
BRANCH  11  12
HETATM   12  C   LIG     1      37.048   4.713  -2.820  1.00  0.00     0.000 C 
BRANCH  12  13
HETATM   13  C   LIG     1      37.278   5.957  -1.963  1.00  0.00     0.000 C 
BRANCH  13  14
HETATM   14  C   LIG     1      37.792   7.117  -2.817  1.00  0.00    -0.000 C 
BRANCH  14  15
HETATM   15  C   LIG     1      39.233   6.889  -3.268  1.00  0.00    -0.005 C 
HETATM   16  C   LIG     1      40.197   6.951  -2.094  1.00  0.00     0.005 C 
ENDBRANCH  14  15
ENDBRANCH  13  14
ENDBRANCH  12  13
ENDBRANCH  11  12
ENDBRANCH  10  11
ENDBRANCH   9  10
ENDBRANCH   8   9
ENDBRANCH   7   8
ENDBRANCH   4   7
BRANCH   3  17
HETATM   17  O   LIG     1      42.850   2.917   1.856  1.00  0.00    -0.388 OA
HETATM   18  H   LIG     1      42.397   2.240   1.328  1.00  0.00     0.210 HD
ENDBRANCH   3  17
BRANCH   2  19
HETATM   19  O   LIG     1      44.827   4.698   0.841  1.00  0.00    -0.390 OA
HETATM   20  H   LIG     1      44.718   3.732   0.722  1.00  0.00     0.210 HD
ENDBRANCH   2  19
BRANCH   6  21
HETATM   21  C   LIG     1      41.627   8.400   1.065  1.00  0.00     0.198 C 
BRANCH  21  22
HETATM   22  O   LIG     1      41.874   9.503   1.931  1.00  0.00    -0.398 OA
HETATM   23  H   LIG     1      41.002   9.881   2.176  1.00  0.00     0.209 HD
ENDBRANCH  21  22
ENDBRANCH   6  21
BRANCH   1  24
HETATM   24  O   LIG     1      44.424   7.448   1.539  1.00  0.00    -0.390 OA
HETATM   25  H   LIG     1      45.245   7.027   1.204  1.00  0.00     0.210 HD
ENDBRANCH   1  24
TORSDOF 14
ENDMDL
MODEL 8
REMARK VINA RESULT:      -5.2      2.186      3.902
REMARK  14 active torsions:
REMARK  status: ('A' for Active; 'I' for Inactive)
REMARK    1  A    between atoms: C_1  and  O_21 
REMARK    2  A    between atoms: C_2  and  O_9 
REMARK    3  A    between atoms: C_3  and  O_10 
REMARK    4  A    between atoms: C_4  and  O_11 
REMARK    5  A    between atoms: C_6  and  C_7 
REMARK    6  A    between atoms: C_7  and  O_8 
REMARK    7  A    between atoms: O_11  and  C_12 
REMARK    8  A    between atoms: C_12  and  C_13 
REMARK    9  A    between atoms: C_13  and  C_14 
REMARK   10  A    between atoms: C_14  and  C_15 
REMARK   11  A    between atoms: C_15  and  C_16 
REMARK   12  A    between atoms: C_16  and  C_17 
REMARK   13  A    between atoms: C_17  and  C_18 
REMARK   14  A    between atoms: C_18  and  C_19 
ROOT
HETATM    1  C   LIG     1      41.832   6.598   0.874  1.00  0.00     0.180 C 
HETATM    2  C   LIG     1      42.577   5.290   0.618  1.00  0.00     0.183 C 
HETATM    3  C   LIG     1      43.725   5.092   1.613  1.00  0.00     0.204 C 
HETATM    4  C   LIG     1      44.619   6.346   1.558  1.00  0.00     0.291 C 
HETATM    5  O   LIG     1      43.858   7.495   1.933  1.00  0.00    -0.348 OA
HETATM    6  C   LIG     1      42.803   7.782   1.011  1.00  0.00     0.179 C 
ENDROOT
BRANCH   4   7
HETATM    7  O   LIG     1      45.727   6.212   2.451  1.00  0.00    -0.359 OA
BRANCH   7   8
HETATM    8  C   LIG     1      46.190   7.495   2.869  1.00  0.00     0.171 C 
BRANCH   8   9
HETATM    9  C   LIG     1      47.393   7.942   2.046  1.00  0.00     0.026 C 
BRANCH   9  10
HETATM   10  C   LIG     1      47.529   9.463   2.136  1.00  0.00     0.002 C 
BRANCH  10  11
HETATM   11  C   LIG     1      46.187  10.186   2.232  1.00  0.00     0.000 C 
BRANCH  11  12
HETATM   12  C   LIG     1      46.101  10.952   3.555  1.00  0.00     0.000 C 
BRANCH  12  13
HETATM   13  C   LIG     1      44.736  11.609   3.757  1.00  0.00     0.000 C 
BRANCH  13  14
HETATM   14  C   LIG     1      44.822  12.728   4.797  1.00  0.00    -0.000 C 
BRANCH  14  15
HETATM   15  C   LIG     1      45.219  12.191   6.171  1.00  0.00    -0.005 C 
HETATM   16  C   LIG     1      46.332  13.021   6.790  1.00  0.00     0.005 C 
ENDBRANCH  14  15
ENDBRANCH  13  14
ENDBRANCH  12  13
ENDBRANCH  11  12
ENDBRANCH  10  11
ENDBRANCH   9  10
ENDBRANCH   8   9
ENDBRANCH   7   8
ENDBRANCH   4   7
BRANCH   3  17
HETATM   17  O   LIG     1      44.402   3.873   1.260  1.00  0.00    -0.388 OA
HETATM   18  H   LIG     1      44.901   3.558   2.030  1.00  0.00     0.210 HD
ENDBRANCH   3  17
BRANCH   2  19
HETATM   19  O   LIG     1      41.631   4.212   0.695  1.00  0.00    -0.390 OA
HETATM   20  H   LIG     1      42.084   3.419   0.341  1.00  0.00     0.210 HD
ENDBRANCH   2  19
BRANCH   6  21
HETATM   21  C   LIG     1      42.041   9.027   1.497  1.00  0.00     0.198 C 
BRANCH  21  22
HETATM   22  O   LIG     1      40.697   8.718   1.852  1.00  0.00    -0.398 OA
HETATM   23  H   LIG     1      40.625   7.742   1.896  1.00  0.00     0.209 HD
ENDBRANCH  21  22
ENDBRANCH   6  21
BRANCH   1  24
HETATM   24  O   LIG     1      40.910   6.837  -0.200  1.00  0.00    -0.390 OA
HETATM   25  H   LIG     1      40.608   7.763  -0.079  1.00  0.00     0.210 HD
ENDBRANCH   1  24
TORSDOF 14
ENDMDL
MODEL 9
REMARK VINA RESULT:      -5.1     13.326     16.563
REMARK  14 active torsions:
REMARK  status: ('A' for Active; 'I' for Inactive)
REMARK    1  A    between atoms: C_1  and  O_21 
REMARK    2  A    between atoms: C_2  and  O_9 
REMARK    3  A    between atoms: C_3  and  O_10 
REMARK    4  A    between atoms: C_4  and  O_11 
REMARK    5  A    between atoms: C_6  and  C_7 
REMARK    6  A    between atoms: C_7  and  O_8 
REMARK    7  A    between atoms: O_11  and  C_12 
REMARK    8  A    between atoms: C_12  and  C_13 
REMARK    9  A    between atoms: C_13  and  C_14 
REMARK   10  A    between atoms: C_14  and  C_15 
REMARK   11  A    between atoms: C_15  and  C_16 
REMARK   12  A    between atoms: C_16  and  C_17 
REMARK   13  A    between atoms: C_17  and  C_18 
REMARK   14  A    between atoms: C_18  and  C_19 
ROOT
HETATM    1  C   LIG     1      43.252  -6.374  -3.731  1.00  0.00     0.180 C 
HETATM    2  C   LIG     1      42.419  -5.380  -2.924  1.00  0.00     0.183 C 
HETATM    3  C   LIG     1      41.123  -6.016  -2.413  1.00  0.00     0.204 C 
HETATM    4  C   LIG     1      40.383  -6.619  -3.624  1.00  0.00     0.291 C 
HETATM    5  O   LIG     1      41.197  -7.622  -4.233  1.00  0.00    -0.348 OA
HETATM    6  C   LIG     1      42.401  -7.090  -4.793  1.00  0.00     0.179 C 
ENDROOT
BRANCH   4   7
HETATM    7  O   LIG     1      39.148  -7.210  -3.215  1.00  0.00    -0.359 OA
BRANCH   7   8
HETATM    8  C   LIG     1      38.080  -6.765  -4.049  1.00  0.00     0.171 C 
BRANCH   8   9
HETATM    9  C   LIG     1      37.979  -7.609  -5.314  1.00  0.00     0.026 C 
BRANCH   9  10
HETATM   10  C   LIG     1      36.576  -8.212  -5.409  1.00  0.00     0.002 C 
BRANCH  10  11
HETATM   11  C   LIG     1      35.902  -8.393  -4.050  1.00  0.00     0.000 C 
BRANCH  11  12
HETATM   12  C   LIG     1      34.419  -8.029  -4.152  1.00  0.00     0.000 C 
BRANCH  12  13
HETATM   13  C   LIG     1      34.057  -7.444  -5.516  1.00  0.00     0.000 C 
BRANCH  13  14
HETATM   14  C   LIG     1      33.501  -6.026  -5.367  1.00  0.00    -0.000 C 
BRANCH  14  15
HETATM   15  C   LIG     1      34.550  -5.066  -4.809  1.00  0.00    -0.005 C 
HETATM   16  C   LIG     1      35.534  -4.634  -5.885  1.00  0.00     0.005 C 
ENDBRANCH  14  15
ENDBRANCH  13  14
ENDBRANCH  12  13
ENDBRANCH  11  12
ENDBRANCH  10  11
ENDBRANCH   9  10
ENDBRANCH   8   9
ENDBRANCH   7   8
ENDBRANCH   4   7
BRANCH   3  17
HETATM   17  O   LIG     1      40.381  -4.997  -1.721  1.00  0.00    -0.388 OA
HETATM   18  H   LIG     1      41.006  -4.356  -1.346  1.00  0.00     0.210 HD
ENDBRANCH   3  17
BRANCH   2  19
HETATM   19  O   LIG     1      43.225  -4.899  -1.837  1.00  0.00    -0.390 OA
HETATM   20  H   LIG     1      43.693  -5.678  -1.472  1.00  0.00     0.210 HD
ENDBRANCH   2  19
BRANCH   6  21
HETATM   21  C   LIG     1      43.209  -8.240  -5.419  1.00  0.00     0.198 C 
BRANCH  21  22
HETATM   22  O   LIG     1      44.443  -8.451  -4.739  1.00  0.00    -0.398 OA
HETATM   23  H   LIG     1      45.086  -7.802  -5.095  1.00  0.00     0.209 HD
ENDBRANCH  21  22
ENDBRANCH   6  21
BRANCH   1  24
HETATM   24  O   LIG     1      44.343  -5.682  -4.357  1.00  0.00    -0.390 OA
HETATM   25  H   LIG     1      45.067  -5.691  -3.695  1.00  0.00     0.210 HD
ENDBRANCH   1  24
TORSDOF 14
ENDMDL
