MODEL 1
REMARK VINA RESULT:      -5.7      0.000      0.000
REMARK  15 active torsions:
REMARK  status: ('A' for Active; 'I' for Inactive)
REMARK    1  A    between atoms: C_1  and  O_7 
REMARK    2  A    between atoms: C_2  and  O_10 
REMARK    3  A    between atoms: C_3  and  O_11 
REMARK    4  A    between atoms: C_4  and  O_12 
REMARK    5  A    between atoms: C_6  and  C_8 
REMARK    6  A    between atoms: C_8  and  O_9 
REMARK    7  A    between atoms: O_12  and  C_13 
REMARK    8  A    between atoms: C_13  and  C_14 
REMARK    9  A    between atoms: C_15  and  C_16 
REMARK   10  A    between atoms: C_16  and  C_17 
REMARK   11  A    between atoms: C_17  and  C_18 
REMARK   12  A    between atoms: C_18  and  C_19 
REMARK   13  A    between atoms: C_19  and  C_20 
REMARK   14  A    between atoms: C_20  and  C_21 
REMARK   15  A    between atoms: C_21  and  C_22 
ROOT
HETATM    1  C   LIG     1      43.124  -6.199  -4.564  1.00  0.00     0.180 C 
HETATM    2  C   LIG     1      42.789  -5.082  -3.567  1.00  0.00     0.183 C 
HETATM    3  C   LIG     1      42.489  -5.687  -2.192  1.00  0.00     0.204 C 
HETATM    4  C   LIG     1      41.334  -6.701  -2.341  1.00  0.00     0.291 C 
HETATM    5  O   LIG     1      41.746  -7.742  -3.251  1.00  0.00    -0.348 OA
HETATM    6  C   LIG     1      41.998  -7.252  -4.582  1.00  0.00     0.179 C 
ENDROOT
BRANCH   4   7
HETATM    7  O   LIG     1      40.119  -6.105  -2.817  1.00  0.00    -0.355 OA
BRANCH   7   8
HETATM    8  C   LIG     1      39.073  -6.177  -1.853  1.00  0.00     0.198 C 
BRANCH   8   9
HETATM    9  C   LIG     1      38.564  -4.796  -1.579  1.00  0.00    -0.005 C 
HETATM   10  C   LIG     1      39.053  -4.043  -0.577  1.00  0.00    -0.029 C 
BRANCH  10  11
HETATM   11  C   LIG     1      38.563  -2.672  -0.218  1.00  0.00     0.027 C 
BRANCH  11  12
HETATM   12  C   LIG     1      39.697  -1.646  -0.335  1.00  0.00     0.004 C 
BRANCH  12  13
HETATM   13  C   LIG     1      40.100  -1.416  -1.788  1.00  0.00     0.000 C 
BRANCH  13  14
HETATM   14  C   LIG     1      40.468   0.049  -2.033  1.00  0.00     0.000 C 
BRANCH  14  15
HETATM   15  C   LIG     1      40.601   0.807  -0.712  1.00  0.00     0.000 C 
BRANCH  15  16
HETATM   16  C   LIG     1      39.696   2.038  -0.680  1.00  0.00    -0.000 C 
BRANCH  16  17
HETATM   17  C   LIG     1      39.414   2.470   0.759  1.00  0.00    -0.005 C 
HETATM   18  C   LIG     1      38.765   3.844   0.812  1.00  0.00     0.005 C 
ENDBRANCH  16  17
ENDBRANCH  15  16
ENDBRANCH  14  15
ENDBRANCH  13  14
ENDBRANCH  12  13
ENDBRANCH  11  12
ENDBRANCH  10  11
ENDBRANCH   8   9
ENDBRANCH   7   8
ENDBRANCH   4   7
BRANCH   3  19
HETATM   19  O   LIG     1      42.240  -4.649  -1.241  1.00  0.00    -0.388 OA
HETATM   20  H   LIG     1      41.302  -4.402  -1.373  1.00  0.00     0.210 HD
ENDBRANCH   3  19
BRANCH   2  21
HETATM   21  O   LIG     1      43.899  -4.178  -3.426  1.00  0.00    -0.390 OA
HETATM   22  H   LIG     1      44.265  -4.355  -2.534  1.00  0.00     0.210 HD
ENDBRANCH   2  21
BRANCH   6  23
HETATM   23  C   LIG     1      42.336  -8.453  -5.476  1.00  0.00     0.198 C 
BRANCH  23  24
HETATM   24  O   LIG     1      41.169  -9.011  -6.066  1.00  0.00    -0.398 OA
HETATM   25  H   LIG     1      40.982  -8.514  -6.881  1.00  0.00     0.209 HD
ENDBRANCH  23  24
ENDBRANCH   6  23
BRANCH   1  26
HETATM   26  O   LIG     1      44.387  -6.759  -4.148  1.00  0.00    -0.390 OA
HETATM   27  H   LIG     1      44.608  -7.489  -4.758  1.00  0.00     0.210 HD
ENDBRANCH   1  26
TORSDOF 15
ENDMDL
MODEL 2
REMARK VINA RESULT:      -5.6      2.810      5.090
REMARK  15 active torsions:
REMARK  status: ('A' for Active; 'I' for Inactive)
REMARK    1  A    between atoms: C_1  and  O_7 
REMARK    2  A    between atoms: C_2  and  O_10 
REMARK    3  A    between atoms: C_3  and  O_11 
REMARK    4  A    between atoms: C_4  and  O_12 
REMARK    5  A    between atoms: C_6  and  C_8 
REMARK    6  A    between atoms: C_8  and  O_9 
REMARK    7  A    between atoms: O_12  and  C_13 
REMARK    8  A    between atoms: C_13  and  C_14 
REMARK    9  A    between atoms: C_15  and  C_16 
REMARK   10  A    between atoms: C_16  and  C_17 
REMARK   11  A    between atoms: C_17  and  C_18 
REMARK   12  A    between atoms: C_18  and  C_19 
REMARK   13  A    between atoms: C_19  and  C_20 
REMARK   14  A    between atoms: C_20  and  C_21 
REMARK   15  A    between atoms: C_21  and  C_22 
ROOT
HETATM    1  C   LIG     1      43.053  -6.168  -4.505  1.00  0.00     0.180 C 
HETATM    2  C   LIG     1      42.675  -5.084  -3.486  1.00  0.00     0.183 C 
HETATM    3  C   LIG     1      42.424  -5.724  -2.118  1.00  0.00     0.204 C 
HETATM    4  C   LIG     1      41.318  -6.791  -2.268  1.00  0.00     0.291 C 
HETATM    5  O   LIG     1      41.770  -7.797  -3.199  1.00  0.00    -0.348 OA
HETATM    6  C   LIG     1      41.980  -7.275  -4.525  1.00  0.00     0.179 C 
ENDROOT
BRANCH   4   7
HETATM    7  O   LIG     1      40.070  -6.250  -2.720  1.00  0.00    -0.355 OA
BRANCH   7   8
HETATM    8  C   LIG     1      39.062  -6.315  -1.714  1.00  0.00     0.198 C 
BRANCH   8   9
HETATM    9  C   LIG     1      38.141  -5.144  -1.868  1.00  0.00    -0.005 C 
HETATM   10  C   LIG     1      38.600  -3.906  -2.126  1.00  0.00    -0.029 C 
BRANCH  10  11
HETATM   11  C   LIG     1      37.742  -2.683  -2.249  1.00  0.00     0.027 C 
BRANCH  11  12
HETATM   12  C   LIG     1      36.962  -2.703  -3.569  1.00  0.00     0.004 C 
BRANCH  12  13
HETATM   13  C   LIG     1      35.480  -2.990  -3.343  1.00  0.00     0.000 C 
BRANCH  13  14
HETATM   14  C   LIG     1      34.898  -3.819  -4.491  1.00  0.00     0.000 C 
BRANCH  14  15
HETATM   15  C   LIG     1      35.840  -4.959  -4.874  1.00  0.00     0.000 C 
BRANCH  15  16
HETATM   16  C   LIG     1      35.539  -6.228  -4.077  1.00  0.00    -0.000 C 
BRANCH  16  17
HETATM   17  C   LIG     1      36.012  -7.471  -4.829  1.00  0.00    -0.005 C 
HETATM   18  C   LIG     1      36.646  -8.484  -3.891  1.00  0.00     0.005 C 
ENDBRANCH  16  17
ENDBRANCH  15  16
ENDBRANCH  14  15
ENDBRANCH  13  14
ENDBRANCH  12  13
ENDBRANCH  11  12
ENDBRANCH  10  11
ENDBRANCH   8   9
ENDBRANCH   7   8
ENDBRANCH   4   7
BRANCH   3  19
HETATM   19  O   LIG     1      42.136  -4.713  -1.148  1.00  0.00    -0.388 OA
HETATM   20  H   LIG     1      42.194  -5.167  -0.282  1.00  0.00     0.210 HD
ENDBRANCH   3  19
BRANCH   2  21
HETATM   21  O   LIG     1      43.741  -4.128  -3.346  1.00  0.00    -0.390 OA
HETATM   22  H   LIG     1      43.299  -3.276  -3.145  1.00  0.00     0.210 HD
ENDBRANCH   2  21
BRANCH   6  23
HETATM   23  C   LIG     1      42.365  -8.444  -5.442  1.00  0.00     0.198 C 
BRANCH  23  24
HETATM   24  O   LIG     1      41.224  -9.015  -6.070  1.00  0.00    -0.398 OA
HETATM   25  H   LIG     1      41.042  -8.502  -6.876  1.00  0.00     0.209 HD
ENDBRANCH  23  24
ENDBRANCH   6  23
BRANCH   1  26
HETATM   26  O   LIG     1      44.347  -6.670  -4.114  1.00  0.00    -0.390 OA
HETATM   27  H   LIG     1      45.009  -6.314  -4.737  1.00  0.00     0.210 HD
ENDBRANCH   1  26
TORSDOF 15
ENDMDL
MODEL 3
REMARK VINA RESULT:      -5.5      5.538      9.378
REMARK  15 active torsions:
REMARK  status: ('A' for Active; 'I' for Inactive)
REMARK    1  A    between atoms: C_1  and  O_7 
REMARK    2  A    between atoms: C_2  and  O_10 
REMARK    3  A    between atoms: C_3  and  O_11 
REMARK    4  A    between atoms: C_4  and  O_12 
REMARK    5  A    between atoms: C_6  and  C_8 
REMARK    6  A    between atoms: C_8  and  O_9 
REMARK    7  A    between atoms: O_12  and  C_13 
REMARK    8  A    between atoms: C_13  and  C_14 
REMARK    9  A    between atoms: C_15  and  C_16 
REMARK   10  A    between atoms: C_16  and  C_17 
REMARK   11  A    between atoms: C_17  and  C_18 
REMARK   12  A    between atoms: C_18  and  C_19 
REMARK   13  A    between atoms: C_19  and  C_20 
REMARK   14  A    between atoms: C_20  and  C_21 
REMARK   15  A    between atoms: C_21  and  C_22 
ROOT
HETATM    1  C   LIG     1      41.339   5.551   0.743  1.00  0.00     0.180 C 
HETATM    2  C   LIG     1      39.986   4.859   0.953  1.00  0.00     0.183 C 
HETATM    3  C   LIG     1      40.183   3.566   1.749  1.00  0.00     0.204 C 
HETATM    4  C   LIG     1      41.185   2.668   0.991  1.00  0.00     0.291 C 
HETATM    5  O   LIG     1      42.442   3.368   0.881  1.00  0.00    -0.348 OA
HETATM    6  C   LIG     1      42.342   4.574   0.099  1.00  0.00     0.179 C 
ENDROOT
BRANCH   4   7
HETATM    7  O   LIG     1      40.730   2.296  -0.317  1.00  0.00    -0.355 OA
BRANCH   7   8
HETATM    8  C   LIG     1      40.949   0.915  -0.588  1.00  0.00     0.198 C 
BRANCH   8   9
HETATM    9  C   LIG     1      39.884   0.108   0.090  1.00  0.00    -0.005 C 
HETATM   10  C   LIG     1      40.148  -1.081   0.660  1.00  0.00    -0.029 C 
BRANCH  10  11
HETATM   11  C   LIG     1      39.126  -1.961   1.317  1.00  0.00     0.027 C 
BRANCH  11  12
HETATM   12  C   LIG     1      39.333  -3.424   0.909  1.00  0.00     0.004 C 
BRANCH  12  13
HETATM   13  C   LIG     1      38.821  -3.693  -0.504  1.00  0.00     0.000 C 
BRANCH  13  14
HETATM   14  C   LIG     1      39.911  -4.321  -1.375  1.00  0.00     0.000 C 
BRANCH  14  15
HETATM   15  C   LIG     1      40.443  -3.314  -2.395  1.00  0.00     0.000 C 
BRANCH  15  16
HETATM   16  C   LIG     1      39.308  -2.657  -3.179  1.00  0.00    -0.000 C 
BRANCH  16  17
HETATM   17  C   LIG     1      39.565  -1.162  -3.361  1.00  0.00    -0.005 C 
HETATM   18  C   LIG     1      38.270  -0.394  -3.569  1.00  0.00     0.005 C 
ENDBRANCH  16  17
ENDBRANCH  15  16
ENDBRANCH  14  15
ENDBRANCH  13  14
ENDBRANCH  12  13
ENDBRANCH  11  12
ENDBRANCH  10  11
ENDBRANCH   8   9
ENDBRANCH   7   8
ENDBRANCH   4   7
BRANCH   3  19
HETATM   19  O   LIG     1      38.919   2.949   2.006  1.00  0.00    -0.388 OA
HETATM   20  H   LIG     1      38.270   3.475   1.495  1.00  0.00     0.210 HD
ENDBRANCH   3  19
BRANCH   2  21
HETATM   21  O   LIG     1      39.092   5.709   1.693  1.00  0.00    -0.390 OA
HETATM   22  H   LIG     1      39.606   6.522   1.884  1.00  0.00     0.210 HD
ENDBRANCH   2  21
BRANCH   6  23
HETATM   23  C   LIG     1      43.748   5.178  -0.027  1.00  0.00     0.198 C 
BRANCH  23  24
HETATM   24  O   LIG     1      44.692   4.479   0.774  1.00  0.00    -0.398 OA
HETATM   25  H   LIG     1      44.933   5.056   1.519  1.00  0.00     0.209 HD
ENDBRANCH  23  24
ENDBRANCH   6  23
BRANCH   1  26
HETATM   26  O   LIG     1      41.777   6.006   2.040  1.00  0.00    -0.390 OA
HETATM   27  H   LIG     1      41.022   5.936   2.654  1.00  0.00     0.210 HD
ENDBRANCH   1  26
TORSDOF 15
ENDMDL
MODEL 4
REMARK VINA RESULT:      -5.5      5.389      9.931
REMARK  15 active torsions:
REMARK  status: ('A' for Active; 'I' for Inactive)
REMARK    1  A    between atoms: C_1  and  O_7 
REMARK    2  A    between atoms: C_2  and  O_10 
REMARK    3  A    between atoms: C_3  and  O_11 
REMARK    4  A    between atoms: C_4  and  O_12 
REMARK    5  A    between atoms: C_6  and  C_8 
REMARK    6  A    between atoms: C_8  and  O_9 
REMARK    7  A    between atoms: O_12  and  C_13 
REMARK    8  A    between atoms: C_13  and  C_14 
REMARK    9  A    between atoms: C_15  and  C_16 
REMARK   10  A    between atoms: C_16  and  C_17 
REMARK   11  A    between atoms: C_17  and  C_18 
REMARK   12  A    between atoms: C_18  and  C_19 
REMARK   13  A    between atoms: C_19  and  C_20 
REMARK   14  A    between atoms: C_20  and  C_21 
REMARK   15  A    between atoms: C_21  and  C_22 
ROOT
HETATM    1  C   LIG     1      41.317   5.542   0.729  1.00  0.00     0.180 C 
HETATM    2  C   LIG     1      39.963   4.853   0.948  1.00  0.00     0.183 C 
HETATM    3  C   LIG     1      40.163   3.561   1.746  1.00  0.00     0.204 C 
HETATM    4  C   LIG     1      41.158   2.660   0.984  1.00  0.00     0.291 C 
HETATM    5  O   LIG     1      42.416   3.357   0.866  1.00  0.00    -0.348 OA
HETATM    6  C   LIG     1      42.315   4.561   0.082  1.00  0.00     0.179 C 
ENDROOT
BRANCH   4   7
HETATM    7  O   LIG     1      40.696   2.286  -0.321  1.00  0.00    -0.355 OA
BRANCH   7   8
HETATM    8  C   LIG     1      40.958   0.916  -0.611  1.00  0.00     0.198 C 
BRANCH   8   9
HETATM    9  C   LIG     1      39.865   0.074  -0.028  1.00  0.00    -0.005 C 
HETATM   10  C   LIG     1      40.113  -1.119   0.540  1.00  0.00    -0.029 C 
BRANCH  10  11
HETATM   11  C   LIG     1      39.066  -2.034   1.104  1.00  0.00     0.027 C 
BRANCH  11  12
HETATM   12  C   LIG     1      39.371  -3.491   0.740  1.00  0.00     0.004 C 
BRANCH  12  13
HETATM   13  C   LIG     1      39.032  -3.791  -0.717  1.00  0.00     0.000 C 
BRANCH  13  14
HETATM   14  C   LIG     1      40.237  -4.378  -1.455  1.00  0.00     0.000 C 
BRANCH  14  15
HETATM   15  C   LIG     1      39.803  -5.485  -2.416  1.00  0.00     0.000 C 
BRANCH  15  16
HETATM   16  C   LIG     1      39.035  -6.588  -1.690  1.00  0.00    -0.000 C 
BRANCH  16  17
HETATM   17  C   LIG     1      37.832  -7.048  -2.513  1.00  0.00    -0.005 C 
HETATM   18  C   LIG     1      36.785  -7.723  -1.642  1.00  0.00     0.005 C 
ENDBRANCH  16  17
ENDBRANCH  15  16
ENDBRANCH  14  15
ENDBRANCH  13  14
ENDBRANCH  12  13
ENDBRANCH  11  12
ENDBRANCH  10  11
ENDBRANCH   8   9
ENDBRANCH   7   8
ENDBRANCH   4   7
BRANCH   3  19
HETATM   19  O   LIG     1      38.899   2.947   2.011  1.00  0.00    -0.388 OA
HETATM   20  H   LIG     1      38.248   3.473   1.502  1.00  0.00     0.210 HD
ENDBRANCH   3  19
BRANCH   2  21
HETATM   21  O   LIG     1      39.075   5.706   1.691  1.00  0.00    -0.390 OA
HETATM   22  H   LIG     1      39.592   6.518   1.878  1.00  0.00     0.210 HD
ENDBRANCH   2  21
BRANCH   6  23
HETATM   23  C   LIG     1      43.721   5.162  -0.053  1.00  0.00     0.198 C 
BRANCH  23  24
HETATM   24  O   LIG     1      44.661   4.486   0.772  1.00  0.00    -0.398 OA
HETATM   25  H   LIG     1      44.897   5.084   1.503  1.00  0.00     0.209 HD
ENDBRANCH  23  24
ENDBRANCH   6  23
BRANCH   1  26
HETATM   26  O   LIG     1      41.763   5.999   2.023  1.00  0.00    -0.390 OA
HETATM   27  H   LIG     1      41.010   5.931   2.642  1.00  0.00     0.210 HD
ENDBRANCH   1  26
TORSDOF 15
ENDMDL
MODEL 5
REMARK VINA RESULT:      -5.4     10.695     14.699
REMARK  15 active torsions:
REMARK  status: ('A' for Active; 'I' for Inactive)
REMARK    1  A    between atoms: C_1  and  O_7 
REMARK    2  A    between atoms: C_2  and  O_10 
REMARK    3  A    between atoms: C_3  and  O_11 
REMARK    4  A    between atoms: C_4  and  O_12 
REMARK    5  A    between atoms: C_6  and  C_8 
REMARK    6  A    between atoms: C_8  and  O_9 
REMARK    7  A    between atoms: O_12  and  C_13 
REMARK    8  A    between atoms: C_13  and  C_14 
REMARK    9  A    between atoms: C_15  and  C_16 
REMARK   10  A    between atoms: C_16  and  C_17 
REMARK   11  A    between atoms: C_17  and  C_18 
REMARK   12  A    between atoms: C_18  and  C_19 
REMARK   13  A    between atoms: C_19  and  C_20 
REMARK   14  A    between atoms: C_20  and  C_21 
REMARK   15  A    between atoms: C_21  and  C_22 
ROOT
HETATM    1  C   LIG     1      42.197   6.876   0.738  1.00  0.00     0.180 C 
HETATM    2  C   LIG     1      43.079   5.674   0.373  1.00  0.00     0.183 C 
HETATM    3  C   LIG     1      43.986   5.319   1.555  1.00  0.00     0.204 C 
HETATM    4  C   LIG     1      44.822   6.562   1.927  1.00  0.00     0.291 C 
HETATM    5  O   LIG     1      43.924   7.627   2.306  1.00  0.00    -0.348 OA
HETATM    6  C   LIG     1      43.072   8.049   1.224  1.00  0.00     0.179 C 
ENDROOT
BRANCH   4   7
HETATM    7  O   LIG     1      45.670   7.011   0.861  1.00  0.00    -0.355 OA
BRANCH   7   8
HETATM    8  C   LIG     1      46.861   7.623   1.346  1.00  0.00     0.198 C 
BRANCH   8   9
HETATM    9  C   LIG     1      46.644   9.101   1.455  1.00  0.00    -0.005 C 
HETATM   10  C   LIG     1      47.595   9.928   1.924  1.00  0.00    -0.029 C 
BRANCH  10  11
HETATM   11  C   LIG     1      47.432  11.408   2.101  1.00  0.00     0.027 C 
BRANCH  11  12
HETATM   12  C   LIG     1      46.000  11.837   1.762  1.00  0.00     0.004 C 
BRANCH  12  13
HETATM   13  C   LIG     1      45.547  13.016   2.620  1.00  0.00     0.000 C 
BRANCH  13  14
HETATM   14  C   LIG     1      44.562  12.565   3.700  1.00  0.00     0.000 C 
BRANCH  14  15
HETATM   15  C   LIG     1      45.201  12.635   5.086  1.00  0.00     0.000 C 
BRANCH  15  16
HETATM   16  C   LIG     1      44.959  11.352   5.880  1.00  0.00    -0.000 C 
BRANCH  16  17
HETATM   17  C   LIG     1      45.845  10.218   5.367  1.00  0.00    -0.005 C 
HETATM   18  C   LIG     1      47.317  10.503   5.617  1.00  0.00     0.005 C 
ENDBRANCH  16  17
ENDBRANCH  15  16
ENDBRANCH  14  15
ENDBRANCH  13  14
ENDBRANCH  12  13
ENDBRANCH  11  12
ENDBRANCH  10  11
ENDBRANCH   8   9
ENDBRANCH   7   8
ENDBRANCH   4   7
BRANCH   3  19
HETATM   19  O   LIG     1      44.763   4.159   1.247  1.00  0.00    -0.388 OA
HETATM   20  H   LIG     1      45.649   4.502   1.008  1.00  0.00     0.210 HD
ENDBRANCH   3  19
BRANCH   2  21
HETATM   21  O   LIG     1      42.269   4.526   0.068  1.00  0.00    -0.390 OA
HETATM   22  H   LIG     1      41.423   4.672   0.542  1.00  0.00     0.210 HD
ENDBRANCH   2  21
BRANCH   6  23
HETATM   23  C   LIG     1      42.234   9.238   1.714  1.00  0.00     0.198 C 
BRANCH  23  24
HETATM   24  O   LIG     1      40.853   9.060   1.426  1.00  0.00    -0.398 OA
HETATM   25  H   LIG     1      40.539   8.298   1.943  1.00  0.00     0.209 HD
ENDBRANCH  23  24
ENDBRANCH   6  23
BRANCH   1  26
HETATM   26  O   LIG     1      41.280   6.422   1.755  1.00  0.00    -0.390 OA
HETATM   27  H   LIG     1      41.805   6.110   2.516  1.00  0.00     0.210 HD
ENDBRANCH   1  26
TORSDOF 15
ENDMDL
MODEL 6
REMARK VINA RESULT:      -5.3     11.867     16.030
REMARK  15 active torsions:
REMARK  status: ('A' for Active; 'I' for Inactive)
REMARK    1  A    between atoms: C_1  and  O_7 
REMARK    2  A    between atoms: C_2  and  O_10 
REMARK    3  A    between atoms: C_3  and  O_11 
REMARK    4  A    between atoms: C_4  and  O_12 
REMARK    5  A    between atoms: C_6  and  C_8 
REMARK    6  A    between atoms: C_8  and  O_9 
REMARK    7  A    between atoms: O_12  and  C_13 
REMARK    8  A    between atoms: C_13  and  C_14 
REMARK    9  A    between atoms: C_15  and  C_16 
REMARK   10  A    between atoms: C_16  and  C_17 
REMARK   11  A    between atoms: C_17  and  C_18 
REMARK   12  A    between atoms: C_18  and  C_19 
REMARK   13  A    between atoms: C_19  and  C_20 
REMARK   14  A    between atoms: C_20  and  C_21 
REMARK   15  A    between atoms: C_21  and  C_22 
ROOT
HETATM    1  C   LIG     1      42.685   7.033   0.943  1.00  0.00     0.180 C 
HETATM    2  C   LIG     1      42.285   8.296   1.717  1.00  0.00     0.183 C 
HETATM    3  C   LIG     1      43.375   9.361   1.569  1.00  0.00     0.204 C 
HETATM    4  C   LIG     1      44.712   8.771   2.069  1.00  0.00     0.291 C 
HETATM    5  O   LIG     1      45.042   7.622   1.260  1.00  0.00    -0.348 OA
HETATM    6  C   LIG     1      44.082   6.556   1.389  1.00  0.00     0.179 C 
ENDROOT
BRANCH   4   7
HETATM    7  O   LIG     1      44.677   8.388   3.450  1.00  0.00    -0.355 OA
BRANCH   7   8
HETATM    8  C   LIG     1      45.977   8.358   4.032  1.00  0.00     0.198 C 
BRANCH   8   9
HETATM    9  C   LIG     1      46.739   9.570   3.592  1.00  0.00    -0.005 C 
HETATM   10  C   LIG     1      47.010  10.584   4.433  1.00  0.00    -0.029 C 
BRANCH  10  11
HETATM   11  C   LIG     1      47.728  11.845   4.052  1.00  0.00     0.027 C 
BRANCH  11  12
HETATM   12  C   LIG     1      48.777  12.208   5.109  1.00  0.00     0.004 C 
BRANCH  12  13
HETATM   13  C   LIG     1      48.218  12.082   6.524  1.00  0.00     0.000 C 
BRANCH  13  14
HETATM   14  C   LIG     1      49.267  11.515   7.482  1.00  0.00     0.000 C 
BRANCH  14  15
HETATM   15  C   LIG     1      50.039  10.368   6.832  1.00  0.00     0.000 C 
BRANCH  15  16
HETATM   16  C   LIG     1      51.540  10.480   7.099  1.00  0.00    -0.000 C 
BRANCH  16  17
HETATM   17  C   LIG     1      52.345  10.067   5.867  1.00  0.00    -0.005 C 
HETATM   18  C   LIG     1      51.537   9.167   4.947  1.00  0.00     0.005 C 
ENDBRANCH  16  17
ENDBRANCH  15  16
ENDBRANCH  14  15
ENDBRANCH  13  14
ENDBRANCH  12  13
ENDBRANCH  11  12
ENDBRANCH  10  11
ENDBRANCH   8   9
ENDBRANCH   7   8
ENDBRANCH   4   7
BRANCH   3  19
HETATM   19  O   LIG     1      42.980  10.565   2.232  1.00  0.00    -0.388 OA
HETATM   20  H   LIG     1      43.660  11.226   1.987  1.00  0.00     0.210 HD
ENDBRANCH   3  19
BRANCH   2  21
HETATM   21  O   LIG     1      41.056   8.838   1.201  1.00  0.00    -0.390 OA
HETATM   22  H   LIG     1      41.312   9.343   0.401  1.00  0.00     0.210 HD
ENDBRANCH   2  21
BRANCH   6  23
HETATM   23  C   LIG     1      44.582   5.362   0.564  1.00  0.00     0.198 C 
BRANCH  23  24
HETATM   24  O   LIG     1      43.507   4.544   0.121  1.00  0.00    -0.398 OA
HETATM   25  H   LIG     1      43.469   4.605  -0.849  1.00  0.00     0.209 HD
ENDBRANCH  23  24
ENDBRANCH   6  23
BRANCH   1  26
HETATM   26  O   LIG     1      42.647   7.376  -0.458  1.00  0.00    -0.390 OA
HETATM   27  H   LIG     1      41.802   7.051  -0.824  1.00  0.00     0.210 HD
ENDBRANCH   1  26
TORSDOF 15
ENDMDL
MODEL 7
REMARK VINA RESULT:      -5.3     27.054     29.377
REMARK  15 active torsions:
REMARK  status: ('A' for Active; 'I' for Inactive)
REMARK    1  A    between atoms: C_1  and  O_7 
REMARK    2  A    between atoms: C_2  and  O_10 
REMARK    3  A    between atoms: C_3  and  O_11 
REMARK    4  A    between atoms: C_4  and  O_12 
REMARK    5  A    between atoms: C_6  and  C_8 
REMARK    6  A    between atoms: C_8  and  O_9 
REMARK    7  A    between atoms: O_12  and  C_13 
REMARK    8  A    between atoms: C_13  and  C_14 
REMARK    9  A    between atoms: C_15  and  C_16 
REMARK   10  A    between atoms: C_16  and  C_17 
REMARK   11  A    between atoms: C_17  and  C_18 
REMARK   12  A    between atoms: C_18  and  C_19 
REMARK   13  A    between atoms: C_19  and  C_20 
REMARK   14  A    between atoms: C_20  and  C_21 
REMARK   15  A    between atoms: C_21  and  C_22 
ROOT
HETATM    1  C   LIG     1      37.083   0.131  25.235  1.00  0.00     0.180 C 
HETATM    2  C   LIG     1      35.810   0.680  24.578  1.00  0.00     0.183 C 
HETATM    3  C   LIG     1      36.183   1.684  23.483  1.00  0.00     0.204 C 
HETATM    4  C   LIG     1      37.040   2.803  24.113  1.00  0.00     0.291 C 
HETATM    5  O   LIG     1      38.239   2.214  24.662  1.00  0.00    -0.348 OA
HETATM    6  C   LIG     1      37.966   1.293  25.734  1.00  0.00     0.179 C 
ENDROOT
BRANCH   4   7
HETATM    7  O   LIG     1      36.353   3.530  25.140  1.00  0.00    -0.355 OA
BRANCH   7   8
HETATM    8  C   LIG     1      36.197   4.907  24.810  1.00  0.00     0.198 C 
BRANCH   8   9
HETATM    9  C   LIG     1      35.222   5.531  25.759  1.00  0.00    -0.005 C 
HETATM   10  C   LIG     1      34.108   6.152  25.330  1.00  0.00    -0.029 C 
BRANCH  10  11
HETATM   11  C   LIG     1      33.112   6.835  26.218  1.00  0.00     0.027 C 
BRANCH  11  12
HETATM   12  C   LIG     1      31.946   7.391  25.393  1.00  0.00     0.004 C 
BRANCH  12  13
HETATM   13  C   LIG     1      31.524   8.776  25.874  1.00  0.00     0.000 C 
BRANCH  13  14
HETATM   14  C   LIG     1      32.033   9.867  24.930  1.00  0.00     0.000 C 
BRANCH  14  15
HETATM   15  C   LIG     1      32.993  10.811  25.653  1.00  0.00     0.000 C 
BRANCH  15  16
HETATM   16  C   LIG     1      34.451  10.465  25.353  1.00  0.00    -0.000 C 
BRANCH  16  17
HETATM   17  C   LIG     1      35.253  10.313  26.645  1.00  0.00    -0.005 C 
HETATM   18  C   LIG     1      36.142   9.081  26.608  1.00  0.00     0.005 C 
ENDBRANCH  16  17
ENDBRANCH  15  16
ENDBRANCH  14  15
ENDBRANCH  13  14
ENDBRANCH  12  13
ENDBRANCH  11  12
ENDBRANCH  10  11
ENDBRANCH   8   9
ENDBRANCH   7   8
ENDBRANCH   4   7
BRANCH   3  19
HETATM   19  O   LIG     1      35.005   2.150  22.820  1.00  0.00    -0.388 OA
HETATM   20  H   LIG     1      34.359   2.320  23.537  1.00  0.00     0.210 HD
ENDBRANCH   3  19
BRANCH   2  21
HETATM   21  O   LIG     1      35.055  -0.384  23.971  1.00  0.00    -0.390 OA
HETATM   22  H   LIG     1      35.242  -0.319  23.010  1.00  0.00     0.210 HD
ENDBRANCH   2  21
BRANCH   6  23
HETATM   23  C   LIG     1      39.308   0.806  26.297  1.00  0.00     0.198 C 
BRANCH  23  24
HETATM   24  O   LIG     1      40.404   1.282  25.526  1.00  0.00    -0.398 OA
HETATM   25  H   LIG     1      40.041   1.717  24.735  1.00  0.00     0.209 HD
ENDBRANCH  23  24
ENDBRANCH   6  23
BRANCH   1  26
HETATM   26  O   LIG     1      37.750  -0.672  24.240  1.00  0.00    -0.390 OA
HETATM   27  H   LIG     1      37.724  -1.601  24.537  1.00  0.00     0.210 HD
ENDBRANCH   1  26
TORSDOF 15
ENDMDL
MODEL 8
REMARK VINA RESULT:      -5.2     23.529     26.053
REMARK  15 active torsions:
REMARK  status: ('A' for Active; 'I' for Inactive)
REMARK    1  A    between atoms: C_1  and  O_7 
REMARK    2  A    between atoms: C_2  and  O_10 
REMARK    3  A    between atoms: C_3  and  O_11 
REMARK    4  A    between atoms: C_4  and  O_12 
REMARK    5  A    between atoms: C_6  and  C_8 
REMARK    6  A    between atoms: C_8  and  O_9 
REMARK    7  A    between atoms: O_12  and  C_13 
REMARK    8  A    between atoms: C_13  and  C_14 
REMARK    9  A    between atoms: C_15  and  C_16 
REMARK   10  A    between atoms: C_16  and  C_17 
REMARK   11  A    between atoms: C_17  and  C_18 
REMARK   12  A    between atoms: C_18  and  C_19 
REMARK   13  A    between atoms: C_19  and  C_20 
REMARK   14  A    between atoms: C_20  and  C_21 
REMARK   15  A    between atoms: C_21  and  C_22 
ROOT
HETATM    1  C   LIG     1      28.462  15.995   1.286  1.00  0.00     0.180 C 
HETATM    2  C   LIG     1      29.817  16.258   1.955  1.00  0.00     0.183 C 
HETATM    3  C   LIG     1      29.722  17.496   2.852  1.00  0.00     0.204 C 
HETATM    4  C   LIG     1      29.256  18.692   1.993  1.00  0.00     0.291 C 
HETATM    5  O   LIG     1      27.956  18.388   1.444  1.00  0.00    -0.348 OA
HETATM    6  C   LIG     1      27.979  17.260   0.548  1.00  0.00     0.179 C 
ENDROOT
BRANCH   4   7
HETATM    7  O   LIG     1      30.162  19.007   0.927  1.00  0.00    -0.355 OA
BRANCH   7   8
HETATM    8  C   LIG     1      30.209  20.406   0.660  1.00  0.00     0.198 C 
BRANCH   8   9
HETATM    9  C   LIG     1      31.175  21.053   1.604  1.00  0.00    -0.005 C 
HETATM   10  C   LIG     1      30.764  21.698   2.711  1.00  0.00    -0.029 C 
BRANCH  10  11
HETATM   11  C   LIG     1      31.669  22.404   3.676  1.00  0.00     0.027 C 
BRANCH  11  12
HETATM   12  C   LIG     1      31.932  21.529   4.907  1.00  0.00     0.004 C 
BRANCH  12  13
HETATM   13  C   LIG     1      33.426  21.344   5.158  1.00  0.00     0.000 C 
BRANCH  13  14
HETATM   14  C   LIG     1      34.243  22.417   4.435  1.00  0.00     0.000 C 
BRANCH  14  15
HETATM   15  C   LIG     1      35.592  21.862   3.979  1.00  0.00     0.000 C 
BRANCH  15  16
HETATM   16  C   LIG     1      35.649  20.341   4.121  1.00  0.00    -0.000 C 
BRANCH  16  17
HETATM   17  C   LIG     1      35.745  19.669   2.752  1.00  0.00    -0.005 C 
HETATM   18  C   LIG     1      34.369  19.352   2.189  1.00  0.00     0.005 C 
ENDBRANCH  16  17
ENDBRANCH  15  16
ENDBRANCH  14  15
ENDBRANCH  13  14
ENDBRANCH  12  13
ENDBRANCH  11  12
ENDBRANCH  10  11
ENDBRANCH   8   9
ENDBRANCH   7   8
ENDBRANCH   4   7
BRANCH   3  19
HETATM   19  O   LIG     1      30.962  17.709   3.530  1.00  0.00    -0.388 OA
HETATM   20  H   LIG     1      31.546  18.132   2.868  1.00  0.00     0.210 HD
ENDBRANCH   3  19
BRANCH   2  21
HETATM   21  O   LIG     1      30.202  15.140   2.774  1.00  0.00    -0.390 OA
HETATM   22  H   LIG     1      30.770  15.519   3.479  1.00  0.00     0.210 HD
ENDBRANCH   2  21
BRANCH   6  23
HETATM   23  C   LIG     1      26.572  17.091  -0.043  1.00  0.00     0.198 C 
BRANCH  23  24
HETATM   24  O   LIG     1      25.573  17.598   0.832  1.00  0.00    -0.398 OA
HETATM   25  H   LIG     1      25.119  16.837   1.234  1.00  0.00     0.209 HD
ENDBRANCH  23  24
ENDBRANCH   6  23
BRANCH   1  26
HETATM   26  O   LIG     1      27.553  15.596   2.334  1.00  0.00    -0.390 OA
HETATM   27  H   LIG     1      27.947  14.834   2.799  1.00  0.00     0.210 HD
ENDBRANCH   1  26
TORSDOF 15
ENDMDL
MODEL 9
REMARK VINA RESULT:      -5.2     10.571     14.784
REMARK  15 active torsions:
REMARK  status: ('A' for Active; 'I' for Inactive)
REMARK    1  A    between atoms: C_1  and  O_7 
REMARK    2  A    between atoms: C_2  and  O_10 
REMARK    3  A    between atoms: C_3  and  O_11 
REMARK    4  A    between atoms: C_4  and  O_12 
REMARK    5  A    between atoms: C_6  and  C_8 
REMARK    6  A    between atoms: C_8  and  O_9 
REMARK    7  A    between atoms: O_12  and  C_13 
REMARK    8  A    between atoms: C_13  and  C_14 
REMARK    9  A    between atoms: C_15  and  C_16 
REMARK   10  A    between atoms: C_16  and  C_17 
REMARK   11  A    between atoms: C_17  and  C_18 
REMARK   12  A    between atoms: C_18  and  C_19 
REMARK   13  A    between atoms: C_19  and  C_20 
REMARK   14  A    between atoms: C_20  and  C_21 
REMARK   15  A    between atoms: C_21  and  C_22 
ROOT
HETATM    1  C   LIG     1      44.334   5.301   0.398  1.00  0.00     0.180 C 
HETATM    2  C   LIG     1      45.462   6.322   0.603  1.00  0.00     0.183 C 
HETATM    3  C   LIG     1      45.301   7.006   1.963  1.00  0.00     0.204 C 
HETATM    4  C   LIG     1      43.905   7.663   2.022  1.00  0.00     0.291 C 
HETATM    5  O   LIG     1      42.903   6.635   1.874  1.00  0.00    -0.348 OA
HETATM    6  C   LIG     1      42.963   5.979   0.593  1.00  0.00     0.179 C 
ENDROOT
BRANCH   4   7
HETATM    7  O   LIG     1      43.711   8.666   1.016  1.00  0.00    -0.355 OA
BRANCH   7   8
HETATM    8  C   LIG     1      43.097   9.840   1.540  1.00  0.00     0.198 C 
BRANCH   8   9
HETATM    9  C   LIG     1      44.157  10.856   1.835  1.00  0.00    -0.005 C 
HETATM   10  C   LIG     1      44.166  11.563   2.980  1.00  0.00    -0.029 C 
BRANCH  10  11
HETATM   11  C   LIG     1      45.169  12.624   3.324  1.00  0.00     0.027 C 
BRANCH  11  12
HETATM   12  C   LIG     1      45.661  12.454   4.765  1.00  0.00     0.004 C 
BRANCH  12  13
HETATM   13  C   LIG     1      46.043  11.007   5.063  1.00  0.00     0.000 C 
BRANCH  13  14
HETATM   14  C   LIG     1      47.494  10.727   4.667  1.00  0.00     0.000 C 
BRANCH  14  15
HETATM   15  C   LIG     1      48.253  10.055   5.810  1.00  0.00     0.000 C 
BRANCH  15  16
HETATM   16  C   LIG     1      48.891  11.086   6.740  1.00  0.00    -0.000 C 
BRANCH  16  17
HETATM   17  C   LIG     1      49.856  10.416   7.718  1.00  0.00    -0.005 C 
HETATM   18  C   LIG     1      50.783  11.428   8.371  1.00  0.00     0.005 C 
ENDBRANCH  16  17
ENDBRANCH  15  16
ENDBRANCH  14  15
ENDBRANCH  13  14
ENDBRANCH  12  13
ENDBRANCH  11  12
ENDBRANCH  10  11
ENDBRANCH   8   9
ENDBRANCH   7   8
ENDBRANCH   4   7
BRANCH   3  19
HETATM   19  O   LIG     1      46.385   7.911   2.190  1.00  0.00    -0.388 OA
HETATM   20  H   LIG     1      47.139   7.344   2.454  1.00  0.00     0.210 HD
ENDBRANCH   3  19
BRANCH   2  21
HETATM   21  O   LIG     1      46.745   5.670   0.578  1.00  0.00    -0.390 OA
HETATM   22  H   LIG     1      46.683   5.004  -0.139  1.00  0.00     0.210 HD
ENDBRANCH   2  21
BRANCH   6  23
HETATM   23  C   LIG     1      41.801   4.979   0.515  1.00  0.00     0.198 C 
BRANCH  23  24
HETATM   24  O   LIG     1      42.173   3.798  -0.184  1.00  0.00    -0.398 OA
HETATM   25  H   LIG     1      43.101   3.897  -0.459  1.00  0.00     0.209 HD
ENDBRANCH  23  24
ENDBRANCH   6  23
BRANCH   1  26
HETATM   26  O   LIG     1      44.558   4.240   1.350  1.00  0.00    -0.390 OA
HETATM   27  H   LIG     1      45.132   3.573   0.927  1.00  0.00     0.210 HD
ENDBRANCH   1  26
TORSDOF 15
ENDMDL
