MODEL 1
REMARK VINA RESULT:      -7.8      0.000      0.000
REMARK  30 active torsions:
REMARK  status: ('A' for Active; 'I' for Inactive)
REMARK    1  A    between atoms: C42_1  and  O60_2 
REMARK    2  A    between atoms: C42_1  and  C29_40 
REMARK    3  A    between atoms: O60_2  and  C50_3 
REMARK    4  A    between atoms: C50_3  and  C69_37 
REMARK    5  A    between atoms: C53_5  and  O86_9 
REMARK    6  A    between atoms: C56_6  and  O62_29 
REMARK    7  A    between atoms: C52_7  and  C64_31 
REMARK    8  A    between atoms: O86_9  and  C76_10 
REMARK    9  A    between atoms: C76_10  and  C92_16 
REMARK   10  A    between atoms: C78_12  and  C93_19 
REMARK   11  A    between atoms: C82_13  and  O90_25 
REMARK   12  A    between atoms: C79_14  and  O88_27 
REMARK   13  A    between atoms: C93_19  and  O10_20 
REMARK   14  A    between atoms: C93_19  and  C95_22 
REMARK   15  A    between atoms: C95_22  and  O10_23 
REMARK   16  A    between atoms: C64_31  and  O72_35 
REMARK   17  A    between atoms: C64_31  and  C66_32 
REMARK   18  A    between atoms: C66_32  and  O74_33 
REMARK   19  A    between atoms: C32_41  and  O39_46 
REMARK   20  A    between atoms: C30_42  and  O38_51 
REMARK   21  A    between atoms: C27_43  and  N40_53 
REMARK   22  A    between atoms: C26_44  and  O36_57 
REMARK   23  A    between atoms: O39_46  and  P45_47 
REMARK   24  A    between atoms: O36_57  and  C23_58 
REMARK   25  A    between atoms: C23_58  and  C2_59 
REMARK   26  A    between atoms: C3_61  and  O11_65 
REMARK   27  A    between atoms: C4_62  and  N16_70 
REMARK   28  A    between atoms: C5_63  and  O12_74 
REMARK   29  A    between atoms: C1_64  and  O13_76 
REMARK   30  A    between atoms: O11_65  and  P18_66 
ROOT
ATOM      1  C42 RES X   1      41.058  -2.522  -2.788  1.00  0.13     0.177 C 
ENDROOT
BRANCH   1   2
ATOM      2  O60 RES X   1      40.226  -3.621  -3.150  1.00 -0.19    -0.324 OA
BRANCH   2   3
ATOM      3  C50 RES X   1      40.538  -4.777  -2.376  1.00  0.15     0.271 C 
ATOM      4  O61 RES X   1      40.398  -4.497  -0.976  1.00 -0.16    -0.324 OA
ATOM      5  C52 RES X   1      39.101  -4.010  -0.646  1.00  0.06     0.176 C 
ATOM      6  C56 RES X   1      38.041  -5.072  -0.987  1.00  0.04     0.168 C 
ATOM      7  C53 RES X   1      38.121  -5.377  -2.488  1.00  0.05     0.153 C 
ATOM      8  C51 RES X   1      39.549  -5.891  -2.792  1.00  0.06     0.100 C 
BRANCH   3   9
ATOM      9  C69 RES X   1      41.996  -5.202  -2.632  1.00  0.20     0.240 C 
ATOM     10  O71 RES X   1      42.409  -5.540  -3.956  1.00 -0.82    -0.644 OA
ATOM     11  O70 RES X   1      42.822  -5.251  -1.679  1.00 -0.59    -0.644 OA
ENDBRANCH   3   9
BRANCH   5  12
ATOM     12  C64 RES X   1      39.063  -3.707   0.862  1.00  0.03     0.170 C 
BRANCH  12  13
ATOM     13  O72 RES X   1      37.726  -3.877   1.344  1.00 -0.08    -0.380 OA
ATOM     14  H72 RES X   1      37.198  -4.283   0.667  1.00  0.00     0.211 HD
ENDBRANCH  12  13
BRANCH  12  15
ATOM     15  C66 RES X   1      39.508  -2.253   1.099  1.00 -0.03     0.169 C 
BRANCH  15  16
ATOM     16  O74 RES X   1      40.915  -2.137   0.869  1.00  0.30    -0.380 OA
ATOM     17  H74 RES X   1      41.387  -2.644   1.519  1.00  0.00     0.211 HD
ENDBRANCH  15  16
ENDBRANCH  12  15
ENDBRANCH   5  12
BRANCH   6  18
ATOM     18  O62 RES X   1      38.325  -6.303  -0.312  1.00 -0.09    -0.380 OA
ATOM     19  H62 RES X   1      38.900  -6.153   0.430  1.00  0.00     0.211 HD
ENDBRANCH   6  18
BRANCH   7  20
ATOM     20  O86 RES X   1      37.127  -6.347  -2.842  1.00 -0.07    -0.327 OA
BRANCH  20  21
ATOM     21  C76 RES X   1      36.371  -5.865  -3.956  1.00  0.14     0.271 C 
ATOM     22  C77 RES X   1      34.921  -6.379  -3.836  1.00  0.07     0.099 C 
ATOM     23  C79 RES X   1      34.940  -7.909  -3.816  1.00  0.05     0.145 C 
ATOM     24  C82 RES X   1      35.601  -8.386  -5.111  1.00  0.05     0.167 C 
ATOM     25  C78 RES X   1      37.019  -7.793  -5.193  1.00  0.01     0.176 C 
ATOM     26  O87 RES X   1      36.955  -6.351  -5.182  1.00 -0.27    -0.324 OA
BRANCH  23  27
ATOM     27  O88 RES X   1      33.607  -8.419  -3.725  1.00 -0.14    -0.382 OA
ATOM     28  H88 RES X   1      33.045  -7.792  -3.286  1.00  0.00     0.210 HD
ENDBRANCH  23  27
BRANCH  24  29
ATOM     29  O90 RES X   1      34.830  -7.941  -6.232  1.00 -0.31    -0.380 OA
ATOM     30  H90 RES X   1      35.187  -7.123  -6.556  1.00  0.00     0.211 HD
ENDBRANCH  24  29
BRANCH  25  31
ATOM     31  C93 RES X   1      37.686  -8.277  -6.496  1.00  0.01     0.170 C 
BRANCH  31  32
ATOM     32  O10 RES X   1      38.767  -9.156  -6.171  1.00 -0.35    -0.380 OA
ATOM     33  H10 RES X   1      39.413  -8.690  -5.653  1.00  0.00     0.211 HD
ENDBRANCH  31  32
BRANCH  31  34
ATOM     34  C95 RES X   1      38.221  -7.072  -7.286  1.00 -0.10     0.169 C 
BRANCH  34  35
ATOM     35  O10 RES X   1      37.132  -6.392  -7.915  1.00 -0.04    -0.380 OA
ATOM     36  H10 RES X   1      37.364  -5.481  -8.053  1.00  0.00     0.211 HD
ENDBRANCH  34  35
ENDBRANCH  31  34
ENDBRANCH  25  31
BRANCH  21  37
ATOM     37  C92 RES X   1      36.371  -4.328  -3.959  1.00  0.15     0.240 C 
ATOM     38  O99 RES X   1      35.593  -3.694  -3.202  1.00 -0.32    -0.644 OA
ATOM     39  O98 RES X   1      37.259  -3.623  -4.830  1.00 -0.51    -0.644 OA
ENDBRANCH  21  37
ENDBRANCH  20  21
ENDBRANCH   7  20
ENDBRANCH   2   3
ENDBRANCH   1   2
BRANCH   1  40
ATOM     40  C29 RES X   1      40.384  -1.141  -2.941  1.00  0.10     0.178 C 
ATOM     41  C32 RES X   1      41.335  -0.317  -3.829  1.00  0.12     0.186 C 
ATOM     42  C30 RES X   1      40.802   1.091  -4.005  1.00  0.10     0.174 C 
ATOM     43  C27 RES X   1      40.674   1.710  -2.618  1.00  0.13     0.263 C 
ATOM     44  C26 RES X   1      39.679   0.855  -1.806  1.00  0.12     0.267 C 
ATOM     45  O37 RES X   1      40.199  -0.495  -1.655  1.00 -0.15    -0.327 OA
BRANCH  41  46
ATOM     46  O39 RES X   1      41.456  -0.939  -5.109  1.00 -0.20    -0.261 OA
BRANCH  46  47
ATOM     47  P45 RES X   1      43.030  -1.248  -5.821  1.00  0.46     0.423 P 
ATOM     48  O46 RES X   1      43.748  -2.657  -5.051  1.00 -0.34    -0.617 OA
ATOM     49  O48 RES X   1      44.067   0.153  -5.579  1.00 -1.25    -0.617 OA
ATOM     50  O49 RES X   1      42.842  -1.548  -7.548  1.00 -0.72    -0.617 OA
ENDBRANCH  46  47
ENDBRANCH  41  46
BRANCH  42  51
ATOM     51  O38 RES X   1      41.705   1.855  -4.809  1.00 -0.22    -0.380 OA
ATOM     52  H38 RES X   1      41.606   2.779  -4.615  1.00  0.00     0.211 HD
ENDBRANCH  42  51
BRANCH  43  53
ATOM     53  N40 RES X   1      40.180   3.086  -2.749  1.00  0.04    -0.059 N 
ATOM     54 3H40 RES X   1      39.969   3.331  -3.717  1.00  0.00     0.275 HD
ATOM     55 1H40 RES X   1      40.853   3.725  -2.326  1.00  0.00     0.275 HD
ATOM     56 2H40 RES X   1      39.242   3.199  -2.365  1.00  0.00     0.275 HD
ENDBRANCH  43  53
BRANCH  44  57
ATOM     57  O36 RES X   1      39.490   1.456  -0.511  1.00 -0.14    -0.327 OA
BRANCH  57  58
ATOM     58  C23 RES X   1      40.652   1.255   0.311  1.00  0.09     0.177 C 
BRANCH  58  59
ATOM     59  C2  RES X   1      41.028   2.623   0.932  1.00  0.08     0.177 C 
ATOM     60  C1  RES X   1      39.743   3.461   1.064  1.00  0.08     0.169 C 
ATOM     61  C5  RES X   1      40.090   4.796   1.717  1.00  0.07     0.173 C 
ATOM     62  C4  RES X   1      41.119   5.503   0.838  1.00  0.11     0.263 C 
ATOM     63  C3  RES X   1      42.359   4.598   0.687  1.00  0.13     0.278 C 
ATOM     64  O15 RES X   1      41.985   3.323   0.100  1.00 -0.16    -0.327 OA
BRANCH  60  65
ATOM     65  O13 RES X   1      38.794   2.764   1.872  1.00 -0.16    -0.380 OA
ATOM     66  H13 RES X   1      37.924   3.113   1.717  1.00  0.00     0.211 HD
ENDBRANCH  60  65
BRANCH  61  67
ATOM     67  O12 RES X   1      38.915   5.599   1.842  1.00 -0.17    -0.380 OA
ATOM     68  H12 RES X   1      38.358   5.259   2.531  1.00  0.00     0.211 HD
ENDBRANCH  61  67
BRANCH  62  69
ATOM     69  N16 RES X   1      41.505   6.782   1.458  1.00  0.02    -0.059 N 
ATOM     70 3H16 RES X   1      41.414   6.760   2.475  1.00  0.00     0.275 HD
ATOM     71 1H16 RES X   1      40.965   7.542   1.042  1.00  0.00     0.275 HD
ATOM     72 2H16 RES X   1      42.509   6.949   1.404  1.00  0.00     0.275 HD
ENDBRANCH  62  69
BRANCH  63  73
ATOM     73  O11 RES X   1      43.300   5.268  -0.154  1.00 -0.11    -0.236 OA
BRANCH  73  74
ATOM     74  P18 RES X   1      44.783   5.653   0.713  1.00  0.29     0.425 P 
ATOM     75  O19 RES X   1      44.712   7.314   1.281  1.00 -0.22    -0.617 OA
ATOM     76  O21 RES X   1      44.943   4.565   2.089  1.00 -0.51    -0.617 OA
ATOM     77  O22 RES X   1      46.169   5.451  -0.357  1.00 -0.48    -0.617 OA
ENDBRANCH  73  74
ENDBRANCH  63  73
ENDBRANCH  58  59
ENDBRANCH  57  58
ENDBRANCH  44  57
ENDBRANCH   1  40
TORSDOF 30
ENDMDL
MODEL 2
REMARK VINA RESULT:      -7.5      9.971     15.671
REMARK  30 active torsions:
REMARK  status: ('A' for Active; 'I' for Inactive)
REMARK    1  A    between atoms: C42_1  and  O60_2 
REMARK    2  A    between atoms: C42_1  and  C29_40 
REMARK    3  A    between atoms: O60_2  and  C50_3 
REMARK    4  A    between atoms: C50_3  and  C69_37 
REMARK    5  A    between atoms: C53_5  and  O86_9 
REMARK    6  A    between atoms: C56_6  and  O62_29 
REMARK    7  A    between atoms: C52_7  and  C64_31 
REMARK    8  A    between atoms: O86_9  and  C76_10 
REMARK    9  A    between atoms: C76_10  and  C92_16 
REMARK   10  A    between atoms: C78_12  and  C93_19 
REMARK   11  A    between atoms: C82_13  and  O90_25 
REMARK   12  A    between atoms: C79_14  and  O88_27 
REMARK   13  A    between atoms: C93_19  and  O10_20 
REMARK   14  A    between atoms: C93_19  and  C95_22 
REMARK   15  A    between atoms: C95_22  and  O10_23 
REMARK   16  A    between atoms: C64_31  and  O72_35 
REMARK   17  A    between atoms: C64_31  and  C66_32 
REMARK   18  A    between atoms: C66_32  and  O74_33 
REMARK   19  A    between atoms: C32_41  and  O39_46 
REMARK   20  A    between atoms: C30_42  and  O38_51 
REMARK   21  A    between atoms: C27_43  and  N40_53 
REMARK   22  A    between atoms: C26_44  and  O36_57 
REMARK   23  A    between atoms: O39_46  and  P45_47 
REMARK   24  A    between atoms: O36_57  and  C23_58 
REMARK   25  A    between atoms: C23_58  and  C2_59 
REMARK   26  A    between atoms: C3_61  and  O11_65 
REMARK   27  A    between atoms: C4_62  and  N16_70 
REMARK   28  A    between atoms: C5_63  and  O12_74 
REMARK   29  A    between atoms: C1_64  and  O13_76 
REMARK   30  A    between atoms: O11_65  and  P18_66 
ROOT
ATOM      1  C42 RES X   1      48.011  12.285   2.558  1.00  0.13     0.177 C 
ENDROOT
BRANCH   1   2
ATOM      2  O60 RES X   1      47.648  10.956   2.196  1.00 -0.19    -0.324 OA
BRANCH   2   3
ATOM      3  C50 RES X   1      47.957  10.036   3.240  1.00  0.15     0.271 C 
ATOM      4  O61 RES X   1      47.425  10.498   4.490  1.00 -0.16    -0.324 OA
ATOM      5  C52 RES X   1      46.022  10.733   4.430  1.00  0.06     0.176 C 
ATOM      6  C56 RES X   1      45.287   9.421   4.100  1.00  0.04     0.168 C 
ATOM      7  C53 RES X   1      45.792   8.906   2.747  1.00  0.05     0.153 C 
ATOM      8  C51 RES X   1      47.318   8.679   2.865  1.00  0.06     0.100 C 
BRANCH   3   9
ATOM      9  C69 RES X   1      49.485   9.910   3.392  1.00  0.20     0.240 C 
ATOM     10  O71 RES X   1      50.109  10.326   4.606  1.00 -0.82    -0.644 OA
ATOM     11  O70 RES X   1      50.182   9.441   2.451  1.00 -0.59    -0.644 OA
ENDBRANCH   3   9
BRANCH   5  12
ATOM     12  C64 RES X   1      45.555  11.257   5.799  1.00  0.03     0.170 C 
BRANCH  12  13
ATOM     13  O72 RES X   1      44.289  10.673   6.122  1.00 -0.08    -0.380 OA
ATOM     14  H72 RES X   1      44.057  10.901   7.015  1.00  0.00     0.211 HD
ENDBRANCH  12  13
BRANCH  12  15
ATOM     15  C66 RES X   1      45.408  12.787   5.734  1.00 -0.03     0.169 C 
BRANCH  15  16
ATOM     16  O74 RES X   1      45.651  13.236   4.397  1.00  0.30    -0.380 OA
ATOM     17  H74 RES X   1      46.584  13.221   4.220  1.00  0.00     0.211 HD
ENDBRANCH  15  16
ENDBRANCH  12  15
ENDBRANCH   5  12
BRANCH   6  18
ATOM     18  O62 RES X   1      45.608   8.408   5.060  1.00 -0.09    -0.380 OA
ATOM     19  H62 RES X   1      45.324   8.669   5.929  1.00  0.00     0.211 HD
ENDBRANCH   6  18
BRANCH   7  20
ATOM     20  O86 RES X   1      45.106   7.696   2.399  1.00 -0.07    -0.327 OA
BRANCH  20  21
ATOM     21  C76 RES X   1      44.652   7.780   1.046  1.00  0.14     0.271 C 
ATOM     22  C77 RES X   1      43.661   8.956   0.922  1.00  0.07     0.099 C 
ATOM     23  C79 RES X   1      42.486   8.711   1.872  1.00  0.05     0.145 C 
ATOM     24  C82 RES X   1      41.836   7.383   1.481  1.00  0.05     0.167 C 
ATOM     25  C78 RES X   1      42.892   6.266   1.573  1.00  0.01     0.176 C 
ATOM     26  O87 RES X   1      43.992   6.551   0.682  1.00 -0.27    -0.324 OA
BRANCH  23  27
ATOM     27  O88 RES X   1      41.536   9.775   1.768  1.00 -0.14    -0.382 OA
ATOM     28  H88 RES X   1      41.519  10.280   2.572  1.00  0.00     0.210 HD
ENDBRANCH  23  27
BRANCH  24  29
ATOM     29  O90 RES X   1      41.345   7.468   0.140  1.00 -0.31    -0.380 OA
ATOM     30  H90 RES X   1      40.396   7.434   0.148  1.00  0.00     0.211 HD
ENDBRANCH  24  29
BRANCH  25  31
ATOM     31  C93 RES X   1      42.236   4.927   1.183  1.00  0.01     0.170 C 
BRANCH  31  32
ATOM     32  O10 RES X   1      40.851   4.963   1.536  1.00 -0.35    -0.380 OA
ATOM     33  H10 RES X   1      40.365   4.361   0.986  1.00  0.00     0.211 HD
ENDBRANCH  31  32
BRANCH  31  34
ATOM     34  C95 RES X   1      42.928   3.773   1.924  1.00 -0.10     0.169 C 
BRANCH  34  35
ATOM     35  O10 RES X   1      44.334   3.819   1.676  1.00 -0.04    -0.380 OA
ATOM     36  H10 RES X   1      44.561   4.654   1.283  1.00  0.00     0.211 HD
ENDBRANCH  34  35
ENDBRANCH  31  34
ENDBRANCH  25  31
BRANCH  21  37
ATOM     37  C92 RES X   1      45.849   8.019   0.110  1.00  0.15     0.240 C 
ATOM     38  O99 RES X   1      46.665   7.091  -0.121  1.00 -0.32    -0.644 OA
ATOM     39  O98 RES X   1      46.030   9.303  -0.493  1.00 -0.51    -0.644 OA
ENDBRANCH  21  37
ENDBRANCH  20  21
ENDBRANCH   7  20
ENDBRANCH   2   3
ENDBRANCH   1   2
BRANCH   1  40
ATOM     40  C29 RES X   1      48.618  13.113   1.404  1.00  0.10     0.178 C 
ATOM     41  C32 RES X   1      47.505  13.214   0.344  1.00  0.12     0.186 C 
ATOM     42  C30 RES X   1      48.008  13.964  -0.874  1.00  0.10     0.174 C 
ATOM     43  C27 RES X   1      49.214  13.206  -1.416  1.00  0.13     0.263 C 
ATOM     44  C26 RES X   1      50.294  13.182  -0.314  1.00  0.12     0.267 C 
ATOM     45  O37 RES X   1      49.794  12.469   0.851  1.00 -0.15    -0.327 OA
BRANCH  41  46
ATOM     46  O39 RES X   1      46.380  13.903   0.891  1.00 -0.20    -0.261 OA
BRANCH  46  47
ATOM     47  P45 RES X   1      44.744  13.336   0.606  1.00  0.46     0.423 P 
ATOM     48  O46 RES X   1      44.724  12.324  -0.833  1.00 -0.34    -0.617 OA
ATOM     49  O48 RES X   1      43.679  14.718   0.374  1.00 -1.25    -0.617 OA
ATOM     50  O49 RES X   1      44.199  12.402   1.997  1.00 -0.72    -0.617 OA
ENDBRANCH  46  47
ENDBRANCH  41  46
BRANCH  42  51
ATOM     51  O38 RES X   1      46.977  14.029  -1.863  1.00 -0.22    -0.380 OA
ATOM     52  H38 RES X   1      47.286  13.648  -2.676  1.00  0.00     0.211 HD
ENDBRANCH  42  51
BRANCH  43  53
ATOM     53  N40 RES X   1      49.716  13.892  -2.611  1.00  0.04    -0.059 N 
ATOM     54 3H40 RES X   1      50.429  14.587  -2.388  1.00  0.00     0.275 HD
ATOM     55 1H40 RES X   1      48.930  14.294  -3.121  1.00  0.00     0.275 HD
ATOM     56 2H40 RES X   1      50.287  13.283  -3.197  1.00  0.00     0.275 HD
ENDBRANCH  43  53
BRANCH  44  57
ATOM     57  O36 RES X   1      51.471  12.527  -0.823  1.00 -0.14    -0.327 OA
BRANCH  57  58
ATOM     58  C23 RES X   1      51.536  11.171  -0.350  1.00  0.09     0.177 C 
BRANCH  58  59
ATOM     59  C2  RES X   1      51.163  10.244  -1.533  1.00  0.08     0.177 C 
ATOM     60  C1  RES X   1      50.148   9.203  -1.027  1.00  0.08     0.169 C 
ATOM     61  C5  RES X   1      49.735   8.309  -2.193  1.00  0.07     0.173 C 
ATOM     62  C4  RES X   1      50.989   7.632  -2.741  1.00  0.11     0.263 C 
ATOM     63  C3  RES X   1      51.997   8.715  -3.176  1.00  0.13     0.278 C 
ATOM     64  O15 RES X   1      52.336   9.570  -2.052  1.00 -0.16    -0.327 OA
BRANCH  60  65
ATOM     65  O13 RES X   1      48.998   9.867  -0.502  1.00 -0.16    -0.380 OA
ATOM     66  H13 RES X   1      49.154  10.804  -0.474  1.00  0.00     0.211 HD
ENDBRANCH  60  65
BRANCH  61  67
ATOM     67  O12 RES X   1      48.799   7.325  -1.748  1.00 -0.17    -0.380 OA
ATOM     68  H12 RES X   1      49.248   6.509  -1.560  1.00  0.00     0.211 HD
ENDBRANCH  61  67
BRANCH  62  69
ATOM     69  N16 RES X   1      50.632   6.787  -3.893  1.00  0.02    -0.059 N 
ATOM     70 3H16 RES X   1      50.817   5.798  -3.718  1.00  0.00     0.275 HD
ATOM     71 1H16 RES X   1      51.112   7.125  -4.728  1.00  0.00     0.275 HD
ATOM     72 2H16 RES X   1      49.623   6.726  -4.028  1.00  0.00     0.275 HD
ENDBRANCH  62  69
BRANCH  63  73
ATOM     73  O11 RES X   1      53.170   8.062  -3.666  1.00 -0.11    -0.236 OA
BRANCH  73  74
ATOM     74  P18 RES X   1      54.015   9.052  -4.852  1.00  0.29     0.425 P 
ATOM     75  O19 RES X   1      55.393   9.829  -4.087  1.00 -0.22    -0.617 OA
ATOM     76  O21 RES X   1      54.573   8.023  -6.167  1.00 -0.51    -0.617 OA
ATOM     77  O22 RES X   1      52.923  10.279  -5.490  1.00 -0.48    -0.617 OA
ENDBRANCH  73  74
ENDBRANCH  63  73
ENDBRANCH  58  59
ENDBRANCH  57  58
ENDBRANCH  44  57
ENDBRANCH   1  40
TORSDOF 30
ENDMDL
MODEL 3
REMARK VINA RESULT:      -7.4      4.798     10.164
REMARK  30 active torsions:
REMARK  status: ('A' for Active; 'I' for Inactive)
REMARK    1  A    between atoms: C42_1  and  O60_2 
REMARK    2  A    between atoms: C42_1  and  C29_40 
REMARK    3  A    between atoms: O60_2  and  C50_3 
REMARK    4  A    between atoms: C50_3  and  C69_37 
REMARK    5  A    between atoms: C53_5  and  O86_9 
REMARK    6  A    between atoms: C56_6  and  O62_29 
REMARK    7  A    between atoms: C52_7  and  C64_31 
REMARK    8  A    between atoms: O86_9  and  C76_10 
REMARK    9  A    between atoms: C76_10  and  C92_16 
REMARK   10  A    between atoms: C78_12  and  C93_19 
REMARK   11  A    between atoms: C82_13  and  O90_25 
REMARK   12  A    between atoms: C79_14  and  O88_27 
REMARK   13  A    between atoms: C93_19  and  O10_20 
REMARK   14  A    between atoms: C93_19  and  C95_22 
REMARK   15  A    between atoms: C95_22  and  O10_23 
REMARK   16  A    between atoms: C64_31  and  O72_35 
REMARK   17  A    between atoms: C64_31  and  C66_32 
REMARK   18  A    between atoms: C66_32  and  O74_33 
REMARK   19  A    between atoms: C32_41  and  O39_46 
REMARK   20  A    between atoms: C30_42  and  O38_51 
REMARK   21  A    between atoms: C27_43  and  N40_53 
REMARK   22  A    between atoms: C26_44  and  O36_57 
REMARK   23  A    between atoms: O39_46  and  P45_47 
REMARK   24  A    between atoms: O36_57  and  C23_58 
REMARK   25  A    between atoms: C23_58  and  C2_59 
REMARK   26  A    between atoms: C3_61  and  O11_65 
REMARK   27  A    between atoms: C4_62  and  N16_70 
REMARK   28  A    between atoms: C5_63  and  O12_74 
REMARK   29  A    between atoms: C1_64  and  O13_76 
REMARK   30  A    between atoms: O11_65  and  P18_66 
ROOT
ATOM      1  C42 RES X   1      40.594   1.787  -2.797  1.00  0.13     0.177 C 
ENDROOT
BRANCH   1   2
ATOM      2  O60 RES X   1      40.763   2.987  -2.046  1.00 -0.19    -0.324 OA
BRANCH   2   3
ATOM      3  C50 RES X   1      39.610   3.262  -1.253  1.00  0.15     0.271 C 
ATOM      4  O61 RES X   1      39.366   2.187  -0.333  1.00 -0.16    -0.324 OA
ATOM      5  C52 RES X   1      40.490   1.915   0.496  1.00  0.06     0.176 C 
ATOM      6  C56 RES X   1      40.822   3.153   1.348  1.00  0.04     0.168 C 
ATOM      7  C53 RES X   1      41.134   4.324   0.408  1.00  0.05     0.153 C 
ATOM      8  C51 RES X   1      39.887   4.569  -0.474  1.00  0.06     0.100 C 
BRANCH   3   9
ATOM      9  C69 RES X   1      38.372   3.403  -2.158  1.00  0.20     0.240 C 
ATOM     10  O71 RES X   1      38.373   4.371  -3.207  1.00 -0.82    -0.644 OA
ATOM     11  O70 RES X   1      37.363   2.669  -1.976  1.00 -0.59    -0.644 OA
ENDBRANCH   3   9
BRANCH   5  12
ATOM     12  C64 RES X   1      40.144   0.732   1.416  1.00  0.03     0.170 C 
BRANCH  12  13
ATOM     13  O72 RES X   1      41.312   0.340   2.143  1.00 -0.08    -0.380 OA
ATOM     14  H72 RES X   1      41.788  -0.313   1.644  1.00  0.00     0.211 HD
ENDBRANCH  12  13
BRANCH  12  15
ATOM     15  C66 RES X   1      39.657  -0.451   0.561  1.00 -0.03     0.169 C 
BRANCH  15  16
ATOM     16  O74 RES X   1      40.748  -0.972  -0.204  1.00  0.30    -0.380 OA
ATOM     17  H74 RES X   1      40.905  -0.413  -0.957  1.00  0.00     0.211 HD
ENDBRANCH  15  16
ENDBRANCH  12  15
ENDBRANCH   5  12
BRANCH   6  18
ATOM     18  O62 RES X   1      39.685   3.552   2.122  1.00 -0.09    -0.380 OA
ATOM     19  H62 RES X   1      38.964   2.946   1.996  1.00  0.00     0.211 HD
ENDBRANCH   6  18
BRANCH   7  20
ATOM     20  O86 RES X   1      41.472   5.488   1.173  1.00 -0.07    -0.327 OA
BRANCH  20  21
ATOM     21  C76 RES X   1      42.839   5.831   0.936  1.00  0.14     0.271 C 
ATOM     22  C77 RES X   1      43.177   7.117   1.719  1.00  0.07     0.099 C 
ATOM     23  C79 RES X   1      42.248   8.238   1.249  1.00  0.05     0.145 C 
ATOM     24  C82 RES X   1      42.461   8.424  -0.255  1.00  0.05     0.167 C 
ATOM     25  C78 RES X   1      42.162   7.092  -0.967  1.00  0.01     0.176 C 
ATOM     26  O87 RES X   1      43.041   6.059  -0.474  1.00 -0.27    -0.324 OA
BRANCH  23  27
ATOM     27  O88 RES X   1      42.547   9.452   1.943  1.00 -0.14    -0.382 OA
ATOM     28  H88 RES X   1      41.775   9.770   2.396  1.00  0.00     0.210 HD
ENDBRANCH  23  27
BRANCH  24  29
ATOM     29  O90 RES X   1      43.818   8.804  -0.501  1.00 -0.31    -0.380 OA
ATOM     30  H90 RES X   1      44.335   8.655   0.282  1.00  0.00     0.211 HD
ENDBRANCH  24  29
BRANCH  25  31
ATOM     31  C93 RES X   1      42.373   7.280  -2.483  1.00  0.01     0.170 C 
BRANCH  31  32
ATOM     32  O10 RES X   1      42.121   8.645  -2.825  1.00 -0.35    -0.380 OA
ATOM     33  H10 RES X   1      42.806   8.961  -3.402  1.00  0.00     0.211 HD
ENDBRANCH  31  32
BRANCH  31  34
ATOM     34  C95 RES X   1      41.411   6.367  -3.259  1.00 -0.10     0.169 C 
BRANCH  34  35
ATOM     35  O10 RES X   1      41.961   5.051  -3.340  1.00 -0.04    -0.380 OA
ATOM     36  H10 RES X   1      42.141   4.727  -2.465  1.00  0.00     0.211 HD
ENDBRANCH  34  35
ENDBRANCH  31  34
ENDBRANCH  25  31
BRANCH  21  37
ATOM     37  C92 RES X   1      43.752   4.688   1.409  1.00  0.15     0.240 C 
ATOM     38  O99 RES X   1      44.702   4.296   0.684  1.00 -0.32    -0.644 OA
ATOM     39  O98 RES X   1      43.514   4.071   2.677  1.00 -0.51    -0.644 OA
ENDBRANCH  21  37
ENDBRANCH  20  21
ENDBRANCH   7  20
ENDBRANCH   2   3
ENDBRANCH   1   2
BRANCH   1  40
ATOM     40  C29 RES X   1      41.484   1.699  -4.057  1.00  0.10     0.178 C 
ATOM     41  C32 RES X   1      41.495   0.209  -4.447  1.00  0.12     0.186 C 
ATOM     42  C30 RES X   1      42.392  -0.012  -5.649  1.00  0.10     0.174 C 
ATOM     43  C27 RES X   1      43.790   0.466  -5.274  1.00  0.13     0.263 C 
ATOM     44  C26 RES X   1      43.703   1.970  -4.936  1.00  0.12     0.267 C 
ATOM     45  O37 RES X   1      42.832   2.166  -3.788  1.00 -0.15    -0.327 OA
BRANCH  41  46
ATOM     46  O39 RES X   1      40.169  -0.215  -4.763  1.00 -0.20    -0.261 OA
BRANCH  46  47
ATOM     47  P45 RES X   1      39.496  -1.681  -4.072  1.00  0.46     0.423 P 
ATOM     48  O46 RES X   1      38.141  -2.218  -5.057  1.00 -0.34    -0.617 OA
ATOM     49  O48 RES X   1      38.946  -1.355  -2.433  1.00 -1.25    -0.617 OA
ATOM     50  O49 RES X   1      40.736  -2.932  -4.036  1.00 -0.72    -0.617 OA
ENDBRANCH  46  47
ENDBRANCH  41  46
BRANCH  42  51
ATOM     51  O38 RES X   1      42.416  -1.402  -5.986  1.00 -0.22    -0.380 OA
ATOM     52  H38 RES X   1      42.483  -1.924  -5.196  1.00  0.00     0.211 HD
ENDBRANCH  42  51
BRANCH  43  53
ATOM     53  N40 RES X   1      44.694   0.247  -6.409  1.00  0.04    -0.059 N 
ATOM     54 3H40 RES X   1      45.393   0.985  -6.495  1.00  0.00     0.275 HD
ATOM     55 1H40 RES X   1      44.142   0.136  -7.259  1.00  0.00     0.275 HD
ATOM     56 2H40 RES X   1      45.329  -0.536  -6.253  1.00  0.00     0.275 HD
ENDBRANCH  43  53
BRANCH  44  57
ATOM     57  O36 RES X   1      45.023   2.462  -4.641  1.00 -0.14    -0.327 OA
BRANCH  57  58
ATOM     58  C23 RES X   1      45.148   3.837  -5.039  1.00  0.09     0.177 C 
BRANCH  58  59
ATOM     59  C2  RES X   1      46.168   4.510  -4.088  1.00  0.08     0.177 C 
ATOM     60  C1  RES X   1      45.385   5.274  -3.005  1.00  0.08     0.169 C 
ATOM     61  C5  RES X   1      46.376   5.905  -2.032  1.00  0.07     0.173 C 
ATOM     62  C4  RES X   1      47.282   6.848  -2.820  1.00  0.11     0.263 C 
ATOM     63  C3  RES X   1      47.996   6.048  -3.930  1.00  0.13     0.278 C 
ATOM     64  O15 RES X   1      47.022   5.429  -4.812  1.00 -0.16    -0.327 OA
BRANCH  60  65
ATOM     65  O13 RES X   1      44.531   4.371  -2.301  1.00 -0.16    -0.380 OA
ATOM     66  H13 RES X   1      44.052   4.841  -1.628  1.00  0.00     0.211 HD
ENDBRANCH  60  65
BRANCH  61  67
ATOM     67  O12 RES X   1      45.674   6.631  -1.020  1.00 -0.17    -0.380 OA
ATOM     68  H12 RES X   1      44.911   6.141  -0.737  1.00  0.00     0.211 HD
ENDBRANCH  61  67
BRANCH  62  69
ATOM     69  N16 RES X   1      48.278   7.449  -1.916  1.00  0.02    -0.059 N 
ATOM     70 3H16 RES X   1      47.949   7.484  -0.951  1.00  0.00     0.275 HD
ATOM     71 1H16 RES X   1      48.545   8.370  -2.264  1.00  0.00     0.275 HD
ATOM     72 2H16 RES X   1      49.085   6.842  -1.775  1.00  0.00     0.275 HD
ENDBRANCH  62  69
BRANCH  63  73
ATOM     73  O11 RES X   1      48.823   6.950  -4.668  1.00 -0.11    -0.236 OA
BRANCH  73  74
ATOM     74  P18 RES X   1      50.499   6.413  -4.700  1.00  0.29     0.425 P 
ATOM     75  O19 RES X   1      50.637   4.993  -5.727  1.00 -0.22    -0.617 OA
ATOM     76  O21 RES X   1      51.505   7.707  -5.345  1.00 -0.51    -0.617 OA
ATOM     77  O22 RES X   1      51.029   6.017  -3.067  1.00 -0.48    -0.617 OA
ENDBRANCH  73  74
ENDBRANCH  63  73
ENDBRANCH  58  59
ENDBRANCH  57  58
ENDBRANCH  44  57
ENDBRANCH   1  40
TORSDOF 30
ENDMDL
MODEL 4
REMARK VINA RESULT:      -7.4     10.354     15.550
REMARK  30 active torsions:
REMARK  status: ('A' for Active; 'I' for Inactive)
REMARK    1  A    between atoms: C42_1  and  O60_2 
REMARK    2  A    between atoms: C42_1  and  C29_40 
REMARK    3  A    between atoms: O60_2  and  C50_3 
REMARK    4  A    between atoms: C50_3  and  C69_37 
REMARK    5  A    between atoms: C53_5  and  O86_9 
REMARK    6  A    between atoms: C56_6  and  O62_29 
REMARK    7  A    between atoms: C52_7  and  C64_31 
REMARK    8  A    between atoms: O86_9  and  C76_10 
REMARK    9  A    between atoms: C76_10  and  C92_16 
REMARK   10  A    between atoms: C78_12  and  C93_19 
REMARK   11  A    between atoms: C82_13  and  O90_25 
REMARK   12  A    between atoms: C79_14  and  O88_27 
REMARK   13  A    between atoms: C93_19  and  O10_20 
REMARK   14  A    between atoms: C93_19  and  C95_22 
REMARK   15  A    between atoms: C95_22  and  O10_23 
REMARK   16  A    between atoms: C64_31  and  O72_35 
REMARK   17  A    between atoms: C64_31  and  C66_32 
REMARK   18  A    between atoms: C66_32  and  O74_33 
REMARK   19  A    between atoms: C32_41  and  O39_46 
REMARK   20  A    between atoms: C30_42  and  O38_51 
REMARK   21  A    between atoms: C27_43  and  N40_53 
REMARK   22  A    between atoms: C26_44  and  O36_57 
REMARK   23  A    between atoms: O39_46  and  P45_47 
REMARK   24  A    between atoms: O36_57  and  C23_58 
REMARK   25  A    between atoms: C23_58  and  C2_59 
REMARK   26  A    between atoms: C3_61  and  O11_65 
REMARK   27  A    between atoms: C4_62  and  N16_70 
REMARK   28  A    between atoms: C5_63  and  O12_74 
REMARK   29  A    between atoms: C1_64  and  O13_76 
REMARK   30  A    between atoms: O11_65  and  P18_66 
ROOT
ATOM      1  C42 RES X   1      47.976  12.061   2.154  1.00  0.13     0.177 C 
ENDROOT
BRANCH   1   2
ATOM      2  O60 RES X   1      47.221  10.860   2.018  1.00 -0.19    -0.324 OA
BRANCH   2   3
ATOM      3  C50 RES X   1      47.532   9.939   3.062  1.00  0.15     0.271 C 
ATOM      4  O61 RES X   1      47.176  10.488   4.339  1.00 -0.16    -0.324 OA
ATOM      5  C52 RES X   1      45.807  10.873   4.403  1.00  0.06     0.176 C 
ATOM      6  C56 RES X   1      44.908   9.642   4.191  1.00  0.04     0.168 C 
ATOM      7  C53 RES X   1      45.221   9.040   2.815  1.00  0.05     0.153 C 
ATOM      8  C51 RES X   1      46.718   8.651   2.798  1.00  0.06     0.100 C 
BRANCH   3   9
ATOM      9  C69 RES X   1      49.045   9.650   3.073  1.00  0.20     0.240 C 
ATOM     10  O71 RES X   1      49.848  10.144   4.145  1.00 -0.82    -0.644 OA
ATOM     11  O70 RES X   1      49.573   8.981   2.143  1.00 -0.59    -0.644 OA
ENDBRANCH   3   9
BRANCH   5  12
ATOM     12  C64 RES X   1      45.535  11.479   5.790  1.00  0.03     0.170 C 
BRANCH  12  13
ATOM     13  O72 RES X   1      44.174  11.228   6.157  1.00 -0.08    -0.380 OA
ATOM     14  H72 RES X   1      44.153  10.784   6.997  1.00  0.00     0.211 HD
ENDBRANCH  12  13
BRANCH  12  15
ATOM     15  C66 RES X   1      45.775  12.999   5.736  1.00 -0.03     0.169 C 
BRANCH  15  16
ATOM     16  O74 RES X   1      45.915  13.414   4.374  1.00  0.30    -0.380 OA
ATOM     17  H74 RES X   1      46.674  13.980   4.290  1.00  0.00     0.211 HD
ENDBRANCH  15  16
ENDBRANCH  12  15
ENDBRANCH   5  12
BRANCH   6  18
ATOM     18  O62 RES X   1      45.211   8.624   5.153  1.00 -0.09    -0.380 OA
ATOM     19  H62 RES X   1      45.487   9.012   5.975  1.00  0.00     0.211 HD
ENDBRANCH   6  18
BRANCH   7  20
ATOM     20  O86 RES X   1      44.380   7.904   2.578  1.00 -0.07    -0.327 OA
BRANCH  20  21
ATOM     21  C76 RES X   1      43.627   8.113   1.381  1.00  0.14     0.271 C 
ATOM     22  C77 RES X   1      42.634   6.946   1.203  1.00  0.07     0.099 C 
ATOM     23  C79 RES X   1      43.422   5.636   1.124  1.00  0.05     0.145 C 
ATOM     24  C82 RES X   1      44.386   5.741  -0.060  1.00  0.05     0.167 C 
ATOM     25  C78 RES X   1      45.308   6.956   0.155  1.00  0.01     0.176 C 
ATOM     26  O87 RES X   1      44.522   8.162   0.250  1.00 -0.27    -0.324 OA
BRANCH  23  27
ATOM     27  O88 RES X   1      42.531   4.533   0.938  1.00 -0.14    -0.382 OA
ATOM     28  H88 RES X   1      42.802   3.799   1.478  1.00  0.00     0.210 HD
ENDBRANCH  23  27
BRANCH  24  29
ATOM     29  O90 RES X   1      43.641   5.913  -1.269  1.00 -0.31    -0.380 OA
ATOM     30  H90 RES X   1      42.893   6.475  -1.102  1.00  0.00     0.211 HD
ENDBRANCH  24  29
BRANCH  25  31
ATOM     31  C93 RES X   1      46.282   7.058  -1.035  1.00  0.01     0.170 C 
BRANCH  31  32
ATOM     32  O10 RES X   1      46.688   5.743  -1.423  1.00 -0.35    -0.380 OA
ATOM     33  H10 RES X   1      45.935   5.253  -1.730  1.00  0.00     0.211 HD
ENDBRANCH  31  32
BRANCH  31  34
ATOM     34  C95 RES X   1      47.515   7.881  -0.630  1.00 -0.10     0.169 C 
BRANCH  34  35
ATOM     35  O10 RES X   1      47.162   9.263  -0.550  1.00 -0.04    -0.380 OA
ATOM     36  H10 RES X   1      46.229   9.363  -0.699  1.00  0.00     0.211 HD
ENDBRANCH  34  35
ENDBRANCH  31  34
ENDBRANCH  25  31
BRANCH  21  37
ATOM     37  C92 RES X   1      42.849   9.436   1.480  1.00  0.15     0.240 C 
ATOM     38  O99 RES X   1      43.336  10.492   1.003  1.00 -0.32    -0.644 OA
ATOM     39  O98 RES X   1      41.572   9.459   2.121  1.00 -0.51    -0.644 OA
ENDBRANCH  21  37
ENDBRANCH  20  21
ENDBRANCH   7  20
ENDBRANCH   2   3
ENDBRANCH   1   2
BRANCH   1  40
ATOM     40  C29 RES X   1      48.535  12.610   0.823  1.00  0.10     0.178 C 
ATOM     41  C32 RES X   1      47.300  13.001  -0.011  1.00  0.12     0.186 C 
ATOM     42  C30 RES X   1      47.726  13.505  -1.375  1.00  0.10     0.174 C 
ATOM     43  C27 RES X   1      48.513  12.390  -2.053  1.00  0.13     0.263 C 
ATOM     44  C26 RES X   1      49.750  12.084  -1.181  1.00  0.12     0.267 C 
ATOM     45  O37 RES X   1      49.325  11.611   0.127  1.00 -0.15    -0.327 OA
BRANCH  41  46
ATOM     46  O39 RES X   1      46.570  14.026   0.664  1.00 -0.20    -0.261 OA
BRANCH  46  47
ATOM     47  P45 RES X   1      44.816  14.003   0.717  1.00  0.46     0.423 P 
ATOM     48  O46 RES X   1      44.205  13.126  -0.681  1.00 -0.34    -0.617 OA
ATOM     49  O48 RES X   1      44.209  15.655   0.692  1.00 -1.25    -0.617 OA
ATOM     50  O49 RES X   1      44.285  13.206   2.196  1.00 -0.72    -0.617 OA
ENDBRANCH  46  47
ENDBRANCH  41  46
BRANCH  42  51
ATOM     51  O38 RES X   1      46.572  13.840  -2.151  1.00 -0.22    -0.380 OA
ATOM     52  H38 RES X   1      45.959  14.333  -1.619  1.00  0.00     0.211 HD
ENDBRANCH  42  51
BRANCH  43  53
ATOM     53  N40 RES X   1      48.925  12.834  -3.389  1.00  0.04    -0.059 N 
ATOM     54 3H40 RES X   1      49.560  12.174  -3.838  1.00  0.00     0.275 HD
ATOM     55 1H40 RES X   1      49.324  13.771  -3.322  1.00  0.00     0.275 HD
ATOM     56 2H40 RES X   1      48.164  12.785  -4.066  1.00  0.00     0.275 HD
ENDBRANCH  43  53
BRANCH  44  57
ATOM     57  O36 RES X   1      50.547  11.077  -1.832  1.00 -0.14    -0.327 OA
BRANCH  57  58
ATOM     58  C23 RES X   1      50.537   9.858  -1.070  1.00  0.09     0.177 C 
BRANCH  58  59
ATOM     59  C2  RES X   1      50.827   8.693  -2.048  1.00  0.08     0.177 C 
ATOM     60  C1  RES X   1      52.090   9.044  -2.855  1.00  0.08     0.169 C 
ATOM     61  C5  RES X   1      52.416   7.885  -3.792  1.00  0.07     0.173 C 
ATOM     62  C4  RES X   1      51.219   7.668  -4.715  1.00  0.11     0.263 C 
ATOM     63  C3  RES X   1      49.969   7.381  -3.858  1.00  0.13     0.278 C 
ATOM     64  O15 RES X   1      49.713   8.487  -2.952  1.00 -0.16    -0.327 OA
BRANCH  60  65
ATOM     65  O13 RES X   1      53.185   9.263  -1.964  1.00 -0.16    -0.380 OA
ATOM     66  H13 RES X   1      52.878   9.707  -1.183  1.00  0.00     0.211 HD
ENDBRANCH  60  65
BRANCH  61  67
ATOM     67  O12 RES X   1      53.581   8.190  -4.562  1.00 -0.17    -0.380 OA
ATOM     68  H12 RES X   1      53.619   9.122  -4.741  1.00  0.00     0.211 HD
ENDBRANCH  61  67
BRANCH  62  69
ATOM     69  N16 RES X   1      51.485   6.530  -5.611  1.00  0.02    -0.059 N 
ATOM     70 3H16 RES X   1      51.964   6.816  -6.466  1.00  0.00     0.275 HD
ATOM     71 1H16 RES X   1      50.614   6.036  -5.806  1.00  0.00     0.275 HD
ATOM     72 2H16 RES X   1      52.204   5.908  -5.242  1.00  0.00     0.275 HD
ENDBRANCH  62  69
BRANCH  63  73
ATOM     73  O11 RES X   1      48.857   7.201  -4.738  1.00 -0.11    -0.236 OA
BRANCH  73  74
ATOM     74  P18 RES X   1      48.228   5.559  -4.658  1.00  0.29     0.425 P 
ATOM     75  O19 RES X   1      48.729   4.672  -6.090  1.00 -0.22    -0.617 OA
ATOM     76  O21 RES X   1      48.868   4.767  -3.221  1.00 -0.51    -0.617 OA
ATOM     77  O22 RES X   1      46.468   5.598  -4.570  1.00 -0.48    -0.617 OA
ENDBRANCH  73  74
ENDBRANCH  63  73
ENDBRANCH  58  59
ENDBRANCH  57  58
ENDBRANCH  44  57
ENDBRANCH   1  40
TORSDOF 30
ENDMDL
MODEL 5
REMARK VINA RESULT:      -7.3      3.893     10.586
REMARK  30 active torsions:
REMARK  status: ('A' for Active; 'I' for Inactive)
REMARK    1  A    between atoms: C42_1  and  O60_2 
REMARK    2  A    between atoms: C42_1  and  C29_40 
REMARK    3  A    between atoms: O60_2  and  C50_3 
REMARK    4  A    between atoms: C50_3  and  C69_37 
REMARK    5  A    between atoms: C53_5  and  O86_9 
REMARK    6  A    between atoms: C56_6  and  O62_29 
REMARK    7  A    between atoms: C52_7  and  C64_31 
REMARK    8  A    between atoms: O86_9  and  C76_10 
REMARK    9  A    between atoms: C76_10  and  C92_16 
REMARK   10  A    between atoms: C78_12  and  C93_19 
REMARK   11  A    between atoms: C82_13  and  O90_25 
REMARK   12  A    between atoms: C79_14  and  O88_27 
REMARK   13  A    between atoms: C93_19  and  O10_20 
REMARK   14  A    between atoms: C93_19  and  C95_22 
REMARK   15  A    between atoms: C95_22  and  O10_23 
REMARK   16  A    between atoms: C64_31  and  O72_35 
REMARK   17  A    between atoms: C64_31  and  C66_32 
REMARK   18  A    between atoms: C66_32  and  O74_33 
REMARK   19  A    between atoms: C32_41  and  O39_46 
REMARK   20  A    between atoms: C30_42  and  O38_51 
REMARK   21  A    between atoms: C27_43  and  N40_53 
REMARK   22  A    between atoms: C26_44  and  O36_57 
REMARK   23  A    between atoms: O39_46  and  P45_47 
REMARK   24  A    between atoms: O36_57  and  C23_58 
REMARK   25  A    between atoms: C23_58  and  C2_59 
REMARK   26  A    between atoms: C3_61  and  O11_65 
REMARK   27  A    between atoms: C4_62  and  N16_70 
REMARK   28  A    between atoms: C5_63  and  O12_74 
REMARK   29  A    between atoms: C1_64  and  O13_76 
REMARK   30  A    between atoms: O11_65  and  P18_66 
ROOT
ATOM      1  C42 RES X   1      42.248   2.356  -3.296  1.00  0.13     0.177 C 
ENDROOT
BRANCH   1   2
ATOM      2  O60 RES X   1      42.036   1.576  -2.122  1.00 -0.19    -0.324 OA
BRANCH   2   3
ATOM      3  C50 RES X   1      40.672   1.632  -1.709  1.00  0.15     0.271 C 
ATOM      4  O61 RES X   1      40.405   0.624  -0.722  1.00 -0.16    -0.324 OA
ATOM      5  C52 RES X   1      41.273   0.721   0.402  1.00  0.06     0.176 C 
ATOM      6  C56 RES X   1      41.074   2.079   1.099  1.00  0.04     0.168 C 
ATOM      7  C53 RES X   1      41.390   3.195   0.094  1.00  0.05     0.153 C 
ATOM      8  C51 RES X   1      40.429   3.035  -1.107  1.00  0.06     0.100 C 
BRANCH   3   9
ATOM      9  C69 RES X   1      39.748   1.373  -2.914  1.00  0.20     0.240 C 
ATOM     10  O71 RES X   1      39.022   2.458  -3.490  1.00 -0.82    -0.644 OA
ATOM     11  O70 RES X   1      39.633   0.211  -3.391  1.00 -0.59    -0.644 OA
ENDBRANCH   3   9
BRANCH   5  12
ATOM     12  C64 RES X   1      40.933  -0.416   1.380  1.00  0.03     0.170 C 
BRANCH  12  13
ATOM     13  O72 RES X   1      42.091  -1.236   1.572  1.00 -0.08    -0.380 OA
ATOM     14  H72 RES X   1      42.727  -0.763   2.096  1.00  0.00     0.211 HD
ENDBRANCH  12  13
BRANCH  12  15
ATOM     15  C66 RES X   1      39.797  -1.271   0.791  1.00 -0.03     0.169 C 
BRANCH  15  16
ATOM     16  O74 RES X   1      40.349  -2.301  -0.035  1.00  0.30    -0.380 OA
ATOM     17  H74 RES X   1      41.250  -2.088  -0.251  1.00  0.00     0.211 HD
ENDBRANCH  15  16
ENDBRANCH  12  15
ENDBRANCH   5  12
BRANCH   6  18
ATOM     18  O62 RES X   1      39.704   2.256   1.478  1.00 -0.09    -0.380 OA
ATOM     19  H62 RES X   1      39.641   2.540   2.383  1.00  0.00     0.211 HD
ENDBRANCH   6  18
BRANCH   7  20
ATOM     20  O86 RES X   1      41.238   4.474   0.722  1.00 -0.07    -0.327 OA
BRANCH  20  21
ATOM     21  C76 RES X   1      42.513   5.115   0.807  1.00  0.14     0.271 C 
ATOM     22  C77 RES X   1      42.330   6.515   1.429  1.00  0.07     0.099 C 
ATOM     23  C79 RES X   1      41.375   7.324   0.549  1.00  0.05     0.145 C 
ATOM     24  C82 RES X   1      41.985   7.407  -0.852  1.00  0.05     0.167 C 
ATOM     25  C78 RES X   1      42.192   5.979  -1.388  1.00  0.01     0.176 C 
ATOM     26  O87 RES X   1      43.076   5.245  -0.515  1.00 -0.27    -0.324 OA
BRANCH  23  27
ATOM     27  O88 RES X   1      41.198   8.637   1.088  1.00 -0.14    -0.382 OA
ATOM     28  H88 RES X   1      40.932   8.584   1.999  1.00  0.00     0.210 HD
ENDBRANCH  23  27
BRANCH  24  29
ATOM     29  O90 RES X   1      43.245   8.081  -0.784  1.00 -0.31    -0.380 OA
ATOM     30  H90 RES X   1      43.568   8.236  -1.663  1.00  0.00     0.211 HD
ENDBRANCH  24  29
BRANCH  25  31
ATOM     31  C93 RES X   1      42.803   6.062  -2.802  1.00  0.01     0.170 C 
BRANCH  31  32
ATOM     32  O10 RES X   1      44.162   6.494  -2.699  1.00 -0.35    -0.380 OA
ATOM     33  H10 RES X   1      44.596   6.385  -3.537  1.00  0.00     0.211 HD
ENDBRANCH  31  32
BRANCH  31  34
ATOM     34  C95 RES X   1      42.006   7.060  -3.656  1.00 -0.10     0.169 C 
BRANCH  34  35
ATOM     35  O10 RES X   1      42.120   6.706  -5.035  1.00 -0.04    -0.380 OA
ATOM     36  H10 RES X   1      41.400   6.136  -5.278  1.00  0.00     0.211 HD
ENDBRANCH  34  35
ENDBRANCH  31  34
ENDBRANCH  25  31
BRANCH  21  37
ATOM     37  C92 RES X   1      43.457   4.282   1.689  1.00  0.15     0.240 C 
ATOM     38  O99 RES X   1      44.598   3.963   1.269  1.00 -0.32    -0.644 OA
ATOM     39  O98 RES X   1      43.028   3.868   2.989  1.00 -0.51    -0.644 OA
ENDBRANCH  21  37
ENDBRANCH  20  21
ENDBRANCH   7  20
ENDBRANCH   2   3
ENDBRANCH   1   2
BRANCH   1  40
ATOM     40  C29 RES X   1      43.075   1.642  -4.389  1.00  0.10     0.178 C 
ATOM     41  C32 RES X   1      42.775   2.405  -5.693  1.00  0.12     0.186 C 
ATOM     42  C30 RES X   1      43.493   1.755  -6.858  1.00  0.10     0.174 C 
ATOM     43  C27 RES X   1      43.014   0.311  -6.946  1.00  0.13     0.263 C 
ATOM     44  C26 RES X   1      43.384  -0.394  -5.624  1.00  0.12     0.267 C 
ATOM     45  O37 RES X   1      42.696   0.247  -4.514  1.00 -0.15    -0.327 OA
BRANCH  41  46
ATOM     46  O39 RES X   1      43.209   3.760  -5.568  1.00 -0.20    -0.261 OA
BRANCH  46  47
ATOM     47  P45 RES X   1      44.916   4.167  -5.555  1.00  0.46     0.423 P 
ATOM     48  O46 RES X   1      45.096   5.905  -5.347  1.00 -0.34    -0.617 OA
ATOM     49  O48 RES X   1      45.646   3.673  -7.078  1.00 -1.25    -0.617 OA
ATOM     50  O49 RES X   1      45.707   3.325  -4.224  1.00 -0.72    -0.617 OA
ENDBRANCH  46  47
ENDBRANCH  41  46
BRANCH  42  51
ATOM     51  O38 RES X   1      43.187   2.454  -8.068  1.00 -0.22    -0.380 OA
ATOM     52  H38 RES X   1      43.813   2.219  -8.743  1.00  0.00     0.211 HD
ENDBRANCH  42  51
BRANCH  43  53
ATOM     53  N40 RES X   1      43.673  -0.347  -8.080  1.00  0.04    -0.059 N 
ATOM     54 3H40 RES X   1      43.313  -0.025  -8.978  1.00  0.00     0.275 HD
ATOM     55 1H40 RES X   1      43.594  -1.358  -7.971  1.00  0.00     0.275 HD
ATOM     56 2H40 RES X   1      44.640  -0.044  -8.195  1.00  0.00     0.275 HD
ENDBRANCH  43  53
BRANCH  44  57
ATOM     57  O36 RES X   1      43.000  -1.779  -5.705  1.00 -0.14    -0.327 OA
BRANCH  57  58
ATOM     58  C23 RES X   1      43.669  -2.548  -4.693  1.00  0.09     0.177 C 
BRANCH  58  59
ATOM     59  C2  RES X   1      42.688  -3.646  -4.212  1.00  0.08     0.177 C 
ATOM     60  C1  RES X   1      41.458  -2.955  -3.596  1.00  0.08     0.169 C 
ATOM     61  C5  RES X   1      40.460  -4.023  -3.159  1.00  0.07     0.173 C 
ATOM     62  C4  RES X   1      41.148  -4.929  -2.140  1.00  0.11     0.263 C 
ATOM     63  C3  RES X   1      42.406  -5.547  -2.785  1.00  0.13     0.278 C 
ATOM     64  O15 RES X   1      43.313  -4.501  -3.224  1.00 -0.16    -0.327 OA
BRANCH  60  65
ATOM     65  O13 RES X   1      40.851  -2.099  -4.564  1.00 -0.16    -0.380 OA
ATOM     66  H13 RES X   1      40.983  -2.455  -5.435  1.00  0.00     0.211 HD
ENDBRANCH  60  65
BRANCH  61  67
ATOM     67  O12 RES X   1      39.311  -3.408  -2.572  1.00 -0.17    -0.380 OA
ATOM     68  H12 RES X   1      38.608  -4.041  -2.489  1.00  0.00     0.211 HD
ENDBRANCH  61  67
BRANCH  62  69
ATOM     69  N16 RES X   1      40.223  -5.996  -1.722  1.00  0.02    -0.059 N 
ATOM     70 3H16 RES X   1      39.556  -5.675  -1.020  1.00  0.00     0.275 HD
ATOM     71 1H16 RES X   1      40.755  -6.806  -1.403  1.00  0.00     0.275 HD
ATOM     72 2H16 RES X   1      39.558  -6.239  -2.456  1.00  0.00     0.275 HD
ENDBRANCH  62  69
BRANCH  63  73
ATOM     73  O11 RES X   1      43.046  -6.374  -1.811  1.00 -0.11    -0.236 OA
BRANCH  73  74
ATOM     74  P18 RES X   1      42.865  -8.083  -2.194  1.00  0.29     0.425 P 
ATOM     75  O19 RES X   1      41.432  -8.711  -1.395  1.00 -0.22    -0.617 OA
ATOM     76  O21 RES X   1      42.696  -8.266  -3.938  1.00 -0.51    -0.617 OA
ATOM     77  O22 RES X   1      44.286  -8.971  -1.647  1.00 -0.48    -0.617 OA
ENDBRANCH  73  74
ENDBRANCH  63  73
ENDBRANCH  58  59
ENDBRANCH  57  58
ENDBRANCH  44  57
ENDBRANCH   1  40
TORSDOF 30
ENDMDL
MODEL 6
REMARK VINA RESULT:      -7.2      9.422     15.765
REMARK  30 active torsions:
REMARK  status: ('A' for Active; 'I' for Inactive)
REMARK    1  A    between atoms: C42_1  and  O60_2 
REMARK    2  A    between atoms: C42_1  and  C29_40 
REMARK    3  A    between atoms: O60_2  and  C50_3 
REMARK    4  A    between atoms: C50_3  and  C69_37 
REMARK    5  A    between atoms: C53_5  and  O86_9 
REMARK    6  A    between atoms: C56_6  and  O62_29 
REMARK    7  A    between atoms: C52_7  and  C64_31 
REMARK    8  A    between atoms: O86_9  and  C76_10 
REMARK    9  A    between atoms: C76_10  and  C92_16 
REMARK   10  A    between atoms: C78_12  and  C93_19 
REMARK   11  A    between atoms: C82_13  and  O90_25 
REMARK   12  A    between atoms: C79_14  and  O88_27 
REMARK   13  A    between atoms: C93_19  and  O10_20 
REMARK   14  A    between atoms: C93_19  and  C95_22 
REMARK   15  A    between atoms: C95_22  and  O10_23 
REMARK   16  A    between atoms: C64_31  and  O72_35 
REMARK   17  A    between atoms: C64_31  and  C66_32 
REMARK   18  A    between atoms: C66_32  and  O74_33 
REMARK   19  A    between atoms: C32_41  and  O39_46 
REMARK   20  A    between atoms: C30_42  and  O38_51 
REMARK   21  A    between atoms: C27_43  and  N40_53 
REMARK   22  A    between atoms: C26_44  and  O36_57 
REMARK   23  A    between atoms: O39_46  and  P45_47 
REMARK   24  A    between atoms: O36_57  and  C23_58 
REMARK   25  A    between atoms: C23_58  and  C2_59 
REMARK   26  A    between atoms: C3_61  and  O11_65 
REMARK   27  A    between atoms: C4_62  and  N16_70 
REMARK   28  A    between atoms: C5_63  and  O12_74 
REMARK   29  A    between atoms: C1_64  and  O13_76 
REMARK   30  A    between atoms: O11_65  and  P18_66 
ROOT
ATOM      1  C42 RES X   1      48.088  10.349   3.761  1.00  0.13     0.177 C 
ENDROOT
BRANCH   1   2
ATOM      2  O60 RES X   1      47.126   9.651   2.974  1.00 -0.19    -0.324 OA
BRANCH   2   3
ATOM      3  C50 RES X   1      45.798   9.989   3.368  1.00  0.15     0.271 C 
ATOM      4  O61 RES X   1      45.544  11.382   3.135  1.00 -0.16    -0.324 OA
ATOM      5  C52 RES X   1      45.775  11.758   1.782  1.00  0.06     0.176 C 
ATOM      6  C56 RES X   1      44.824  10.979   0.855  1.00  0.04     0.168 C 
ATOM      7  C53 RES X   1      45.086   9.479   1.035  1.00  0.05     0.153 C 
ATOM      8  C51 RES X   1      44.832   9.129   2.520  1.00  0.06     0.100 C 
BRANCH   3   9
ATOM      9  C69 RES X   1      45.612   9.717   4.873  1.00  0.20     0.240 C 
ATOM     10  O71 RES X   1      45.644  10.806   5.795  1.00 -0.82    -0.644 OA
ATOM     11  O70 RES X   1      45.432   8.540   5.290  1.00 -0.59    -0.644 OA
ENDBRANCH   3   9
BRANCH   5  12
ATOM     12  C64 RES X   1      45.512  13.267   1.642  1.00  0.03     0.170 C 
BRANCH  12  13
ATOM     13  O72 RES X   1      45.344  13.592   0.259  1.00 -0.08    -0.380 OA
ATOM     14  H72 RES X   1      44.421  13.552   0.037  1.00  0.00     0.211 HD
ENDBRANCH  12  13
BRANCH  12  15
ATOM     15  C66 RES X   1      46.713  14.046   2.206  1.00 -0.03     0.169 C 
BRANCH  15  16
ATOM     16  O74 RES X   1      46.737  13.926   3.632  1.00  0.30    -0.380 OA
ATOM     17  H74 RES X   1      46.951  13.033   3.873  1.00  0.00     0.211 HD
ENDBRANCH  15  16
ENDBRANCH  12  15
ENDBRANCH   5  12
BRANCH   6  18
ATOM     18  O62 RES X   1      43.460  11.197   1.233  1.00 -0.09    -0.380 OA
ATOM     19  H62 RES X   1      43.219  12.108   1.109  1.00  0.00     0.211 HD
ENDBRANCH   6  18
BRANCH   7  20
ATOM     20  O86 RES X   1      44.232   8.727   0.164  1.00 -0.07    -0.327 OA
BRANCH  20  21
ATOM     21  C76 RES X   1      44.976   7.656  -0.422  1.00  0.14     0.271 C 
ATOM     22  C77 RES X   1      44.319   7.262  -1.761  1.00  0.07     0.099 C 
ATOM     23  C79 RES X   1      42.874   6.834  -1.493  1.00  0.05     0.145 C 
ATOM     24  C82 RES X   1      42.909   5.657  -0.515  1.00  0.05     0.167 C 
ATOM     25  C78 RES X   1      43.626   6.101   0.773  1.00  0.01     0.176 C 
ATOM     26  O87 RES X   1      44.973   6.522   0.469  1.00 -0.27    -0.324 OA
BRANCH  23  27
ATOM     27  O88 RES X   1      42.240   6.443  -2.713  1.00 -0.14    -0.382 OA
ATOM     28  H88 RES X   1      42.712   6.797  -3.457  1.00  0.00     0.210 HD
ENDBRANCH  23  27
BRANCH  24  29
ATOM     29  O90 RES X   1      43.620   4.566  -1.107  1.00 -0.31    -0.380 OA
ATOM     30  H90 RES X   1      44.526   4.587  -0.822  1.00  0.00     0.211 HD
ENDBRANCH  24  29
BRANCH  25  31
ATOM     31  C93 RES X   1      43.657   4.917   1.759  1.00  0.01     0.170 C 
BRANCH  31  32
ATOM     32  O10 RES X   1      44.648   3.978   1.333  1.00 -0.35    -0.380 OA
ATOM     33  H10 RES X   1      44.772   3.317   2.003  1.00  0.00     0.211 HD
ENDBRANCH  31  32
BRANCH  31  34
ATOM     34  C95 RES X   1      42.281   4.234   1.798  1.00 -0.10     0.169 C 
BRANCH  34  35
ATOM     35  O10 RES X   1      42.412   2.872   1.385  1.00 -0.04    -0.380 OA
ATOM     36  H10 RES X   1      43.214   2.766   0.888  1.00  0.00     0.211 HD
ENDBRANCH  34  35
ENDBRANCH  31  34
ENDBRANCH  25  31
BRANCH  21  37
ATOM     37  C92 RES X   1      46.424   8.108  -0.675  1.00  0.15     0.240 C 
ATOM     38  O99 RES X   1      46.698   8.819  -1.675  1.00 -0.32    -0.644 OA
ATOM     39  O98 RES X   1      47.458   7.711   0.230  1.00 -0.51    -0.644 OA
ENDBRANCH  21  37
ENDBRANCH  20  21
ENDBRANCH   7  20
ENDBRANCH   2   3
ENDBRANCH   1   2
BRANCH   1  40
ATOM     40  C29 RES X   1      49.451   9.632   3.878  1.00  0.10     0.178 C 
ATOM     41  C32 RES X   1      50.279  10.484   4.858  1.00  0.12     0.186 C 
ATOM     42  C30 RES X   1      51.672   9.904   5.009  1.00  0.10     0.174 C 
ATOM     43  C27 RES X   1      52.313   9.880   3.627  1.00  0.13     0.263 C 
ATOM     44  C26 RES X   1      51.450   8.979   2.718  1.00  0.12     0.267 C 
ATOM     45  O37 RES X   1      50.115   9.543   2.591  1.00 -0.15    -0.327 OA
BRANCH  41  46
ATOM     46  O39 RES X   1      49.638  10.509   6.133  1.00 -0.20    -0.261 OA
BRANCH  46  47
ATOM     47  P45 RES X   1      49.563  11.984   7.081  1.00  0.46     0.423 P 
ATOM     48  O46 RES X   1      48.059  12.826   6.726  1.00 -0.34    -0.617 OA
ATOM     49  O48 RES X   1      50.930  13.013   6.668  1.00 -1.25    -0.617 OA
ATOM     50  O49 RES X   1      49.628  11.582   8.795  1.00 -0.72    -0.617 OA
ENDBRANCH  46  47
ENDBRANCH  41  46
BRANCH  42  51
ATOM     51  O38 RES X   1      52.441  10.716   5.899  1.00 -0.22    -0.380 OA
ATOM     52  H38 RES X   1      52.063  11.586   5.950  1.00  0.00     0.211 HD
ENDBRANCH  42  51
BRANCH  43  53
ATOM     53  N40 RES X   1      53.674   9.344   3.736  1.00  0.04    -0.059 N 
ATOM     54 3H40 RES X   1      53.681   8.343   3.936  1.00  0.00     0.275 HD
ATOM     55 1H40 RES X   1      54.190   9.881   4.433  1.00  0.00     0.275 HD
ATOM     56 2H40 RES X   1      54.153   9.315   2.837  1.00  0.00     0.275 HD
ENDBRANCH  43  53
BRANCH  44  57
ATOM     57  O36 RES X   1      52.069   8.888   1.422  1.00 -0.14    -0.327 OA
BRANCH  57  58
ATOM     58  C23 RES X   1      51.150   9.294   0.395  1.00  0.09     0.177 C 
BRANCH  58  59
ATOM     59  C2  RES X   1      51.323   8.324  -0.800  1.00  0.08     0.177 C 
ATOM     60  C1  RES X   1      52.482   8.840  -1.674  1.00  0.08     0.169 C 
ATOM     61  C5  RES X   1      52.696   7.869  -2.831  1.00  0.07     0.173 C 
ATOM     62  C4  RES X   1      51.398   7.790  -3.633  1.00  0.11     0.263 C 
ATOM     63  C3  RES X   1      50.258   7.330  -2.700  1.00  0.13     0.278 C 
ATOM     64  O15 RES X   1      50.110   8.255  -1.590  1.00 -0.16    -0.327 OA
BRANCH  60  65
ATOM     65  O13 RES X   1      53.674   8.924  -0.892  1.00 -0.16    -0.380 OA
ATOM     66  H13 RES X   1      53.534   9.508  -0.156  1.00  0.00     0.211 HD
ENDBRANCH  60  65
BRANCH  61  67
ATOM     67  O12 RES X   1      53.761   8.331  -3.666  1.00 -0.17    -0.380 OA
ATOM     68  H12 RES X   1      54.454   7.682  -3.699  1.00  0.00     0.211 HD
ENDBRANCH  61  67
BRANCH  62  69
ATOM     69  N16 RES X   1      51.557   6.832  -4.740  1.00  0.02    -0.059 N 
ATOM     70 3H16 RES X   1      51.986   5.958  -4.435  1.00  0.00     0.275 HD
ATOM     71 1H16 RES X   1      52.078   7.271  -5.500  1.00  0.00     0.275 HD
ATOM     72 2H16 RES X   1      50.663   6.455  -5.055  1.00  0.00     0.275 HD
ENDBRANCH  62  69
BRANCH  63  73
ATOM     73  O11 RES X   1      49.050   7.282  -3.462  1.00 -0.11    -0.236 OA
BRANCH  73  74
ATOM     74  P18 RES X   1      48.443   5.636  -3.608  1.00  0.29     0.425 P 
ATOM     75  O19 RES X   1      49.798   4.519  -3.680  1.00 -0.22    -0.617 OA
ATOM     76  O21 RES X   1      47.447   5.264  -2.204  1.00 -0.51    -0.617 OA
ATOM     77  O22 RES X   1      47.473   5.485  -5.072  1.00 -0.48    -0.617 OA
ENDBRANCH  73  74
ENDBRANCH  63  73
ENDBRANCH  58  59
ENDBRANCH  57  58
ENDBRANCH  44  57
ENDBRANCH   1  40
TORSDOF 30
ENDMDL
MODEL 7
REMARK VINA RESULT:      -7.2     10.673     16.256
REMARK  30 active torsions:
REMARK  status: ('A' for Active; 'I' for Inactive)
REMARK    1  A    between atoms: C42_1  and  O60_2 
REMARK    2  A    between atoms: C42_1  and  C29_40 
REMARK    3  A    between atoms: O60_2  and  C50_3 
REMARK    4  A    between atoms: C50_3  and  C69_37 
REMARK    5  A    between atoms: C53_5  and  O86_9 
REMARK    6  A    between atoms: C56_6  and  O62_29 
REMARK    7  A    between atoms: C52_7  and  C64_31 
REMARK    8  A    between atoms: O86_9  and  C76_10 
REMARK    9  A    between atoms: C76_10  and  C92_16 
REMARK   10  A    between atoms: C78_12  and  C93_19 
REMARK   11  A    between atoms: C82_13  and  O90_25 
REMARK   12  A    between atoms: C79_14  and  O88_27 
REMARK   13  A    between atoms: C93_19  and  O10_20 
REMARK   14  A    between atoms: C93_19  and  C95_22 
REMARK   15  A    between atoms: C95_22  and  O10_23 
REMARK   16  A    between atoms: C64_31  and  O72_35 
REMARK   17  A    between atoms: C64_31  and  C66_32 
REMARK   18  A    between atoms: C66_32  and  O74_33 
REMARK   19  A    between atoms: C32_41  and  O39_46 
REMARK   20  A    between atoms: C30_42  and  O38_51 
REMARK   21  A    between atoms: C27_43  and  N40_53 
REMARK   22  A    between atoms: C26_44  and  O36_57 
REMARK   23  A    between atoms: O39_46  and  P45_47 
REMARK   24  A    between atoms: O36_57  and  C23_58 
REMARK   25  A    between atoms: C23_58  and  C2_59 
REMARK   26  A    between atoms: C3_61  and  O11_65 
REMARK   27  A    between atoms: C4_62  and  N16_70 
REMARK   28  A    between atoms: C5_63  and  O12_74 
REMARK   29  A    between atoms: C1_64  and  O13_76 
REMARK   30  A    between atoms: O11_65  and  P18_66 
ROOT
ATOM      1  C42 RES X   1      46.505   8.825  -1.582  1.00  0.13     0.177 C 
ENDROOT
BRANCH   1   2
ATOM      2  O60 RES X   1      45.953   9.140  -0.307  1.00 -0.19    -0.324 OA
BRANCH   2   3
ATOM      3  C50 RES X   1      44.741   9.879  -0.440  1.00  0.15     0.271 C 
ATOM      4  O61 RES X   1      43.616   8.991  -0.503  1.00 -0.16    -0.324 OA
ATOM      5  C52 RES X   1      43.549   8.118   0.620  1.00  0.06     0.176 C 
ATOM      6  C56 RES X   1      43.386   8.941   1.911  1.00  0.04     0.168 C 
ATOM      7  C53 RES X   1      44.590   9.881   2.048  1.00  0.05     0.153 C 
ATOM      8  C51 RES X   1      44.620  10.795   0.800  1.00  0.06     0.100 C 
BRANCH   3   9
ATOM      9  C69 RES X   1      44.769  10.703  -1.741  1.00  0.20     0.240 C 
ATOM     10  O71 RES X   1      45.587  11.870  -1.819  1.00 -0.82    -0.644 OA
ATOM     11  O70 RES X   1      44.075  10.350  -2.734  1.00 -0.59    -0.644 OA
ENDBRANCH   3   9
BRANCH   5  12
ATOM     12  C64 RES X   1      42.337   7.187   0.444  1.00  0.03     0.170 C 
BRANCH  12  13
ATOM     13  O72 RES X   1      41.816   6.840   1.731  1.00 -0.08    -0.380 OA
ATOM     14  H72 RES X   1      41.174   7.488   1.994  1.00  0.00     0.211 HD
ENDBRANCH  12  13
BRANCH  12  15
ATOM     15  C66 RES X   1      42.783   5.908  -0.287  1.00 -0.03     0.169 C 
BRANCH  15  16
ATOM     16  O74 RES X   1      44.108   6.083  -0.798  1.00  0.30    -0.380 OA
ATOM     17  H74 RES X   1      44.738   5.963  -0.097  1.00  0.00     0.211 HD
ENDBRANCH  15  16
ENDBRANCH  12  15
ENDBRANCH   5  12
BRANCH   6  18
ATOM     18  O62 RES X   1      42.228   9.781   1.831  1.00 -0.09    -0.380 OA
ATOM     19  H62 RES X   1      41.905   9.822   0.938  1.00  0.00     0.211 HD
ENDBRANCH   6  18
BRANCH   7  20
ATOM     20  O86 RES X   1      44.479  10.643   3.256  1.00 -0.07    -0.327 OA
BRANCH  20  21
ATOM     21  C76 RES X   1      45.629  10.409   4.072  1.00  0.14     0.271 C 
ATOM     22  C77 RES X   1      45.329  10.884   5.509  1.00  0.07     0.099 C 
ATOM     23  C79 RES X   1      44.985  12.375   5.474  1.00  0.05     0.145 C 
ATOM     24  C82 RES X   1      46.181  13.117   4.874  1.00  0.05     0.167 C 
ATOM     25  C78 RES X   1      46.460  12.557   3.467  1.00  0.01     0.176 C 
ATOM     26  O87 RES X   1      46.752  11.146   3.545  1.00 -0.27    -0.324 OA
BRANCH  23  27
ATOM     27  O88 RES X   1      44.720  12.853   6.795  1.00 -0.14    -0.382 OA
ATOM     28  H88 RES X   1      43.827  13.170   6.856  1.00  0.00     0.210 HD
ENDBRANCH  23  27
BRANCH  24  29
ATOM     29  O90 RES X   1      47.330  12.920   5.704  1.00 -0.31    -0.380 OA
ATOM     30  H90 RES X   1      47.068  12.494   6.511  1.00  0.00     0.211 HD
ENDBRANCH  24  29
BRANCH  25  31
ATOM     31  C93 RES X   1      47.662  13.308   2.861  1.00  0.01     0.170 C 
BRANCH  31  32
ATOM     32  O10 RES X   1      47.606  14.680   3.259  1.00 -0.35    -0.380 OA
ATOM     33  H10 RES X   1      46.721  14.900   3.527  1.00  0.00     0.211 HD
ENDBRANCH  31  32
BRANCH  31  34
ATOM     34  C95 RES X   1      47.617  13.212   1.328  1.00 -0.10     0.169 C 
BRANCH  34  35
ATOM     35  O10 RES X   1      48.946  13.280   0.806  1.00 -0.04    -0.380 OA
ATOM     36  H10 RES X   1      49.163  12.459   0.381  1.00  0.00     0.211 HD
ENDBRANCH  34  35
ENDBRANCH  31  34
ENDBRANCH  25  31
BRANCH  21  37
ATOM     37  C92 RES X   1      45.959   8.908   4.087  1.00  0.15     0.240 C 
ATOM     38  O99 RES X   1      45.350   8.135   4.869  1.00 -0.32    -0.644 OA
ATOM     39  O98 RES X   1      46.965   8.396   3.209  1.00 -0.51    -0.644 OA
ENDBRANCH  21  37
ENDBRANCH  20  21
ENDBRANCH   7  20
ENDBRANCH   2   3
ENDBRANCH   1   2
BRANCH   1  40
ATOM     40  C29 RES X   1      47.991   9.215  -1.744  1.00  0.10     0.178 C 
ATOM     41  C32 RES X   1      48.732   7.895  -2.029  1.00  0.12     0.186 C 
ATOM     42  C30 RES X   1      50.222   8.146  -2.150  1.00  0.10     0.174 C 
ATOM     43  C27 RES X   1      50.692   8.766  -0.840  1.00  0.13     0.263 C 
ATOM     44  C26 RES X   1      49.936  10.097  -0.646  1.00  0.12     0.267 C 
ATOM     45  O37 RES X   1      48.508   9.842  -0.541  1.00 -0.15    -0.327 OA
BRANCH  41  46
ATOM     46  O39 RES X   1      48.248   7.326  -3.246  1.00 -0.20    -0.261 OA
BRANCH  46  47
ATOM     47  P45 RES X   1      47.745   5.647  -3.324  1.00  0.46     0.423 P 
ATOM     48  O46 RES X   1      46.712   5.415  -4.730  1.00 -0.34    -0.617 OA
ATOM     49  O48 RES X   1      46.857   5.234  -1.862  1.00 -1.25    -0.617 OA
ATOM     50  O49 RES X   1      49.167   4.616  -3.457  1.00 -0.72    -0.617 OA
ENDBRANCH  46  47
ENDBRANCH  41  46
BRANCH  42  51
ATOM     51  O38 RES X   1      50.903   6.911  -2.389  1.00 -0.22    -0.380 OA
ATOM     52  H38 RES X   1      50.573   6.242  -1.802  1.00  0.00     0.211 HD
ENDBRANCH  42  51
BRANCH  43  53
ATOM     53  N40 RES X   1      52.138   9.003  -0.912  1.00  0.04    -0.059 N 
ATOM     54 3H40 RES X   1      52.458   9.161  -1.868  1.00  0.00     0.275 HD
ATOM     55 1H40 RES X   1      52.627   8.228  -0.464  1.00  0.00     0.275 HD
ATOM     56 2H40 RES X   1      52.403   9.907  -0.521  1.00  0.00     0.275 HD
ENDBRANCH  43  53
BRANCH  44  57
ATOM     57  O36 RES X   1      50.409  10.736   0.554  1.00 -0.14    -0.327 OA
BRANCH  57  58
ATOM     58  C23 RES X   1      49.844  10.107   1.716  1.00  0.09     0.177 C 
BRANCH  58  59
ATOM     59  C2  RES X   1      50.683  10.546   2.941  1.00  0.08     0.177 C 
ATOM     60  C1  RES X   1      51.840   9.545   3.115  1.00  0.08     0.169 C 
ATOM     61  C5  RES X   1      52.704   9.990   4.291  1.00  0.07     0.173 C 
ATOM     62  C4  RES X   1      51.824  10.031   5.539  1.00  0.11     0.263 C 
ATOM     63  C3  RES X   1      50.647  10.998   5.292  1.00  0.13     0.278 C 
ATOM     64  O15 RES X   1      49.872  10.567   4.142  1.00 -0.16    -0.327 OA
BRANCH  60  65
ATOM     65  O13 RES X   1      52.631   9.512   1.926  1.00 -0.16    -0.380 OA
ATOM     66  H13 RES X   1      52.078   9.310   1.180  1.00  0.00     0.211 HD
ENDBRANCH  60  65
BRANCH  61  67
ATOM     67  O12 RES X   1      53.782   9.070   4.482  1.00 -0.17    -0.380 OA
ATOM     68  H12 RES X   1      53.448   8.233   4.780  1.00  0.00     0.211 HD
ENDBRANCH  61  67
BRANCH  62  69
ATOM     69  N16 RES X   1      52.619  10.492   6.690  1.00  0.02    -0.059 N 
ATOM     70 3H16 RES X   1      53.528  10.032   6.739  1.00  0.00     0.275 HD
ATOM     71 1H16 RES X   1      52.081  10.371   7.549  1.00  0.00     0.275 HD
ATOM     72 2H16 RES X   1      52.946  11.451   6.573  1.00  0.00     0.275 HD
ENDBRANCH  62  69
BRANCH  63  73
ATOM     73  O11 RES X   1      49.826  11.008   6.461  1.00 -0.11    -0.236 OA
BRANCH  73  74
ATOM     74  P18 RES X   1      50.300  12.287   7.574  1.00  0.29     0.425 P 
ATOM     75  O19 RES X   1      48.869  13.161   8.102  1.00 -0.22    -0.617 OA
ATOM     76  O21 RES X   1      51.099  11.568   8.970  1.00 -0.51    -0.617 OA
ATOM     77  O22 RES X   1      51.409  13.396   6.771  1.00 -0.48    -0.617 OA
ENDBRANCH  73  74
ENDBRANCH  63  73
ENDBRANCH  58  59
ENDBRANCH  57  58
ENDBRANCH  44  57
ENDBRANCH   1  40
TORSDOF 30
ENDMDL
MODEL 8
REMARK VINA RESULT:      -7.2      9.506     15.910
REMARK  30 active torsions:
REMARK  status: ('A' for Active; 'I' for Inactive)
REMARK    1  A    between atoms: C42_1  and  O60_2 
REMARK    2  A    between atoms: C42_1  and  C29_40 
REMARK    3  A    between atoms: O60_2  and  C50_3 
REMARK    4  A    between atoms: C50_3  and  C69_37 
REMARK    5  A    between atoms: C53_5  and  O86_9 
REMARK    6  A    between atoms: C56_6  and  O62_29 
REMARK    7  A    between atoms: C52_7  and  C64_31 
REMARK    8  A    between atoms: O86_9  and  C76_10 
REMARK    9  A    between atoms: C76_10  and  C92_16 
REMARK   10  A    between atoms: C78_12  and  C93_19 
REMARK   11  A    between atoms: C82_13  and  O90_25 
REMARK   12  A    between atoms: C79_14  and  O88_27 
REMARK   13  A    between atoms: C93_19  and  O10_20 
REMARK   14  A    between atoms: C93_19  and  C95_22 
REMARK   15  A    between atoms: C95_22  and  O10_23 
REMARK   16  A    between atoms: C64_31  and  O72_35 
REMARK   17  A    between atoms: C64_31  and  C66_32 
REMARK   18  A    between atoms: C66_32  and  O74_33 
REMARK   19  A    between atoms: C32_41  and  O39_46 
REMARK   20  A    between atoms: C30_42  and  O38_51 
REMARK   21  A    between atoms: C27_43  and  N40_53 
REMARK   22  A    between atoms: C26_44  and  O36_57 
REMARK   23  A    between atoms: O39_46  and  P45_47 
REMARK   24  A    between atoms: O36_57  and  C23_58 
REMARK   25  A    between atoms: C23_58  and  C2_59 
REMARK   26  A    between atoms: C3_61  and  O11_65 
REMARK   27  A    between atoms: C4_62  and  N16_70 
REMARK   28  A    between atoms: C5_63  and  O12_74 
REMARK   29  A    between atoms: C1_64  and  O13_76 
REMARK   30  A    between atoms: O11_65  and  P18_66 
ROOT
ATOM      1  C42 RES X   1      48.083  10.398   3.911  1.00  0.13     0.177 C 
ENDROOT
BRANCH   1   2
ATOM      2  O60 RES X   1      47.115   9.725   3.110  1.00 -0.19    -0.324 OA
BRANCH   2   3
ATOM      3  C50 RES X   1      45.792  10.003   3.563  1.00  0.15     0.271 C 
ATOM      4  O61 RES X   1      45.467  11.384   3.345  1.00 -0.16    -0.324 OA
ATOM      5  C52 RES X   1      45.622  11.771   1.983  1.00  0.06     0.176 C 
ATOM      6  C56 RES X   1      44.667  10.951   1.097  1.00  0.04     0.168 C 
ATOM      7  C53 RES X   1      45.002   9.464   1.262  1.00  0.05     0.153 C 
ATOM      8  C51 RES X   1      44.829   9.102   2.756  1.00  0.06     0.100 C 
BRANCH   3   9
ATOM      9  C69 RES X   1      45.684   9.723   5.074  1.00  0.20     0.240 C 
ATOM     10  O71 RES X   1      45.429  10.800   5.974  1.00 -0.82    -0.644 OA
ATOM     11  O70 RES X   1      45.821   8.549   5.515  1.00 -0.59    -0.644 OA
ENDBRANCH   3   9
BRANCH   5  12
ATOM     12  C64 RES X   1      45.287  13.267   1.859  1.00  0.03     0.170 C 
BRANCH  12  13
ATOM     13  O72 RES X   1      44.046  13.530   2.523  1.00 -0.08    -0.380 OA
ATOM     14  H72 RES X   1      44.029  13.066   3.351  1.00  0.00     0.211 HD
ENDBRANCH  12  13
BRANCH  12  15
ATOM     15  C66 RES X   1      45.157  13.636   0.371  1.00 -0.03     0.169 C 
BRANCH  15  16
ATOM     16  O74 RES X   1      46.237  14.495  -0.007  1.00  0.30    -0.380 OA
ATOM     17  H74 RES X   1      46.765  14.698   0.756  1.00  0.00     0.211 HD
ENDBRANCH  15  16
ENDBRANCH  12  15
ENDBRANCH   5  12
BRANCH   6  18
ATOM     18  O62 RES X   1      43.312  11.108   1.535  1.00 -0.09    -0.380 OA
ATOM     19  H62 RES X   1      42.888  10.262   1.620  1.00  0.00     0.211 HD
ENDBRANCH   6  18
BRANCH   7  20
ATOM     20  O86 RES X   1      44.145   8.675   0.427  1.00 -0.07    -0.327 OA
BRANCH  20  21
ATOM     21  C76 RES X   1      44.906   7.629  -0.181  1.00  0.14     0.271 C 
ATOM     22  C77 RES X   1      44.290   7.296  -1.556  1.00  0.07     0.099 C 
ATOM     23  C79 RES X   1      42.838   6.859  -1.352  1.00  0.05     0.145 C 
ATOM     24  C82 RES X   1      42.841   5.640  -0.426  1.00  0.05     0.167 C 
ATOM     25  C78 RES X   1      43.518   6.027   0.902  1.00  0.01     0.176 C 
ATOM     26  O87 RES X   1      44.874   6.457   0.659  1.00 -0.27    -0.324 OA
BRANCH  23  27
ATOM     27  O88 RES X   1      42.241   6.522  -2.607  1.00 -0.14    -0.382 OA
ATOM     28  H88 RES X   1      41.565   5.867  -2.484  1.00  0.00     0.210 HD
ENDBRANCH  23  27
BRANCH  24  29
ATOM     29  O90 RES X   1      43.570   4.574  -1.042  1.00 -0.31    -0.380 OA
ATOM     30  H90 RES X   1      44.228   4.252  -0.439  1.00  0.00     0.211 HD
ENDBRANCH  24  29
BRANCH  25  31
ATOM     31  C93 RES X   1      43.518   4.801   1.837  1.00  0.01     0.170 C 
BRANCH  31  32
ATOM     32  O10 RES X   1      44.531   3.887   1.410  1.00 -0.35    -0.380 OA
ATOM     33  H10 RES X   1      45.116   3.697   2.134  1.00  0.00     0.211 HD
ENDBRANCH  31  32
BRANCH  31  34
ATOM     34  C95 RES X   1      42.146   4.110   1.789  1.00 -0.10     0.169 C 
BRANCH  34  35
ATOM     35  O10 RES X   1      42.302   2.770   1.319  1.00 -0.04    -0.380 OA
ATOM     36  H10 RES X   1      42.494   2.196   2.052  1.00  0.00     0.211 HD
ENDBRANCH  34  35
ENDBRANCH  31  34
ENDBRANCH  25  31
BRANCH  21  37
ATOM     37  C92 RES X   1      46.362   8.088  -0.370  1.00  0.15     0.240 C 
ATOM     38  O99 RES X   1      46.654   8.902  -1.283  1.00 -0.32    -0.644 OA
ATOM     39  O98 RES X   1      47.381   7.582   0.496  1.00 -0.51    -0.644 OA
ENDBRANCH  21  37
ENDBRANCH  20  21
ENDBRANCH   7  20
ENDBRANCH   2   3
ENDBRANCH   1   2
BRANCH   1  40
ATOM     40  C29 RES X   1      49.418   9.636   4.064  1.00  0.10     0.178 C 
ATOM     41  C32 RES X   1      50.257  10.472   5.049  1.00  0.12     0.186 C 
ATOM     42  C30 RES X   1      51.625   9.847   5.235  1.00  0.10     0.174 C 
ATOM     43  C27 RES X   1      52.292   9.782   3.866  1.00  0.13     0.263 C 
ATOM     44  C26 RES X   1      51.416   8.899   2.952  1.00  0.12     0.267 C 
ATOM     45  O37 RES X   1      50.104   9.506   2.792  1.00 -0.15    -0.327 OA
BRANCH  41  46
ATOM     46  O39 RES X   1      49.592  10.537   6.311  1.00 -0.20    -0.261 OA
BRANCH  46  47
ATOM     47  P45 RES X   1      49.515  12.038   7.218  1.00  0.46     0.423 P 
ATOM     48  O46 RES X   1      50.879  13.056   6.772  1.00 -0.34    -0.617 OA
ATOM     49  O48 RES X   1      49.577  11.683   8.940  1.00 -1.25    -0.617 OA
ATOM     50  O49 RES X   1      48.007  12.870   6.844  1.00 -0.72    -0.617 OA
ENDBRANCH  46  47
ENDBRANCH  41  46
BRANCH  42  51
ATOM     51  O38 RES X   1      52.405  10.645   6.130  1.00 -0.22    -0.380 OA
ATOM     52  H38 RES X   1      53.291  10.306   6.175  1.00  0.00     0.211 HD
ENDBRANCH  42  51
BRANCH  43  53
ATOM     53  N40 RES X   1      53.631   9.201   4.010  1.00  0.04    -0.059 N 
ATOM     54 3H40 RES X   1      53.853   8.549   3.258  1.00  0.00     0.275 HD
ATOM     55 1H40 RES X   1      53.712   8.772   4.932  1.00  0.00     0.275 HD
ATOM     56 2H40 RES X   1      54.370   9.881   3.833  1.00  0.00     0.275 HD
ENDBRANCH  43  53
BRANCH  44  57
ATOM     57  O36 RES X   1      52.057   8.768   1.670  1.00 -0.14    -0.327 OA
BRANCH  57  58
ATOM     58  C23 RES X   1      52.050  10.025   0.974  1.00  0.09     0.177 C 
BRANCH  58  59
ATOM     59  C2  RES X   1      51.735   9.735  -0.514  1.00  0.08     0.177 C 
ATOM     60  C1  RES X   1      50.550   8.753  -0.573  1.00  0.08     0.169 C 
ATOM     61  C5  RES X   1      50.197   8.492  -2.034  1.00  0.07     0.173 C 
ATOM     62  C4  RES X   1      51.427   7.907  -2.723  1.00  0.11     0.263 C 
ATOM     63  C3  RES X   1      52.601   8.899  -2.584  1.00  0.13     0.278 C 
ATOM     64  O15 RES X   1      52.882   9.154  -1.182  1.00 -0.16    -0.327 OA
BRANCH  60  65
ATOM     65  O13 RES X   1      49.423   9.318   0.099  1.00 -0.16    -0.380 OA
ATOM     66  H13 RES X   1      49.719   9.944   0.750  1.00  0.00     0.211 HD
ENDBRANCH  60  65
BRANCH  61  67
ATOM     67  O12 RES X   1      49.104   7.573  -2.116  1.00 -0.17    -0.380 OA
ATOM     68  H12 RES X   1      48.336   8.010  -2.465  1.00  0.00     0.211 HD
ENDBRANCH  61  67
BRANCH  62  69
ATOM     69  N16 RES X   1      51.133   7.675  -4.148  1.00  0.02    -0.059 N 
ATOM     70 3H16 RES X   1      51.834   8.096  -4.759  1.00  0.00     0.275 HD
ATOM     71 1H16 RES X   1      50.191   8.004  -4.361  1.00  0.00     0.275 HD
ATOM     72 2H16 RES X   1      51.270   6.701  -4.416  1.00  0.00     0.275 HD
ENDBRANCH  62  69
BRANCH  63  73
ATOM     73  O11 RES X   1      53.747   8.326  -3.217  1.00 -0.11    -0.236 OA
BRANCH  73  74
ATOM     74  P18 RES X   1      54.243   9.260  -4.625  1.00  0.29     0.425 P 
ATOM     75  O19 RES X   1      54.884   8.174  -5.848  1.00 -0.22    -0.617 OA
ATOM     76  O21 RES X   1      52.844  10.114  -5.270  1.00 -0.51    -0.617 OA
ATOM     77  O22 RES X   1      55.479  10.427  -4.161  1.00 -0.48    -0.617 OA
ENDBRANCH  73  74
ENDBRANCH  63  73
ENDBRANCH  58  59
ENDBRANCH  57  58
ENDBRANCH  44  57
ENDBRANCH   1  40
TORSDOF 30
ENDMDL
MODEL 9
REMARK VINA RESULT:      -7.2     11.858     16.887
REMARK  30 active torsions:
REMARK  status: ('A' for Active; 'I' for Inactive)
REMARK    1  A    between atoms: C42_1  and  O60_2 
REMARK    2  A    between atoms: C42_1  and  C29_40 
REMARK    3  A    between atoms: O60_2  and  C50_3 
REMARK    4  A    between atoms: C50_3  and  C69_37 
REMARK    5  A    between atoms: C53_5  and  O86_9 
REMARK    6  A    between atoms: C56_6  and  O62_29 
REMARK    7  A    between atoms: C52_7  and  C64_31 
REMARK    8  A    between atoms: O86_9  and  C76_10 
REMARK    9  A    between atoms: C76_10  and  C92_16 
REMARK   10  A    between atoms: C78_12  and  C93_19 
REMARK   11  A    between atoms: C82_13  and  O90_25 
REMARK   12  A    between atoms: C79_14  and  O88_27 
REMARK   13  A    between atoms: C93_19  and  O10_20 
REMARK   14  A    between atoms: C93_19  and  C95_22 
REMARK   15  A    between atoms: C95_22  and  O10_23 
REMARK   16  A    between atoms: C64_31  and  O72_35 
REMARK   17  A    between atoms: C64_31  and  C66_32 
REMARK   18  A    between atoms: C66_32  and  O74_33 
REMARK   19  A    between atoms: C32_41  and  O39_46 
REMARK   20  A    between atoms: C30_42  and  O38_51 
REMARK   21  A    between atoms: C27_43  and  N40_53 
REMARK   22  A    between atoms: C26_44  and  O36_57 
REMARK   23  A    between atoms: O39_46  and  P45_47 
REMARK   24  A    between atoms: O36_57  and  C23_58 
REMARK   25  A    between atoms: C23_58  and  C2_59 
REMARK   26  A    between atoms: C3_61  and  O11_65 
REMARK   27  A    between atoms: C4_62  and  N16_70 
REMARK   28  A    between atoms: C5_63  and  O12_74 
REMARK   29  A    between atoms: C1_64  and  O13_76 
REMARK   30  A    between atoms: O11_65  and  P18_66 
ROOT
ATOM      1  C42 RES X   1      47.844  11.420   4.115  1.00  0.13     0.177 C 
ENDROOT
BRANCH   1   2
ATOM      2  O60 RES X   1      46.718  11.021   3.337  1.00 -0.19    -0.324 OA
BRANCH   2   3
ATOM      3  C50 RES X   1      45.588  11.846   3.609  1.00  0.15     0.271 C 
ATOM      4  O61 RES X   1      45.815  13.181   3.133  1.00 -0.16    -0.324 OA
ATOM      5  C52 RES X   1      46.136  13.216   1.746  1.00  0.06     0.176 C 
ATOM      6  C56 RES X   1      44.965  12.650   0.924  1.00  0.04     0.168 C 
ATOM      7  C53 RES X   1      44.708  11.205   1.368  1.00  0.05     0.153 C 
ATOM      8  C51 RES X   1      44.375  11.225   2.878  1.00  0.06     0.100 C 
BRANCH   3   9
ATOM      9  C69 RES X   1      45.346  11.919   5.129  1.00  0.20     0.240 C 
ATOM     10  O71 RES X   1      44.942  10.747   5.835  1.00 -0.82    -0.644 OA
ATOM     11  O70 RES X   1      45.503  13.008   5.747  1.00 -0.59    -0.644 OA
ENDBRANCH   3   9
BRANCH   5  12
ATOM     12  C64 RES X   1      46.395  14.677   1.341  1.00  0.03     0.170 C 
BRANCH  12  13
ATOM     13  O72 RES X   1      46.233  14.811  -0.074  1.00 -0.08    -0.380 OA
ATOM     14  H72 RES X   1      45.744  14.067  -0.406  1.00  0.00     0.211 HD
ENDBRANCH  12  13
BRANCH  12  15
ATOM     15  C66 RES X   1      47.833  15.064   1.728  1.00 -0.03     0.169 C 
BRANCH  15  16
ATOM     16  O74 RES X   1      47.969  15.045   3.153  1.00  0.30    -0.380 OA
ATOM     17  H74 RES X   1      47.671  14.209   3.491  1.00  0.00     0.211 HD
ENDBRANCH  15  16
ENDBRANCH  12  15
ENDBRANCH   5  12
BRANCH   6  18
ATOM     18  O62 RES X   1      43.760  13.374   1.200  1.00 -0.09    -0.380 OA
ATOM     19  H62 RES X   1      43.767  14.216   0.759  1.00  0.00     0.211 HD
ENDBRANCH   6  18
BRANCH   7  20
ATOM     20  O86 RES X   1      43.637  10.642   0.601  1.00 -0.07    -0.327 OA
BRANCH  20  21
ATOM     21  C76 RES X   1      44.122   9.518  -0.139  1.00  0.14     0.271 C 
ATOM     22  C77 RES X   1      42.926   8.633  -0.547  1.00  0.07     0.099 C 
ATOM     23  C79 RES X   1      42.198   8.174   0.718  1.00  0.05     0.145 C 
ATOM     24  C82 RES X   1      43.199   7.404   1.581  1.00  0.05     0.167 C 
ATOM     25  C78 RES X   1      44.389   8.325   1.904  1.00  0.01     0.176 C 
ATOM     26  O87 RES X   1      45.029   8.755   0.684  1.00 -0.27    -0.324 OA
BRANCH  23  27
ATOM     27  O88 RES X   1      41.093   7.334   0.375  1.00 -0.14    -0.382 OA
ATOM     28  H88 RES X   1      41.394   6.450   0.202  1.00  0.00     0.210 HD
ENDBRANCH  23  27
BRANCH  24  29
ATOM     29  O90 RES X   1      43.663   6.256   0.864  1.00 -0.31    -0.380 OA
ATOM     30  H90 RES X   1      44.596   6.338   0.705  1.00  0.00     0.211 HD
ENDBRANCH  24  29
BRANCH  25  31
ATOM     31  C93 RES X   1      45.396   7.551   2.778  1.00  0.01     0.170 C 
BRANCH  31  32
ATOM     32  O10 RES X   1      45.559   8.234   4.023  1.00 -0.35    -0.380 OA
ATOM     33  H10 RES X   1      44.764   8.155   4.537  1.00  0.00     0.211 HD
ENDBRANCH  31  32
BRANCH  31  34
ATOM     34  C95 RES X   1      46.750   7.462   2.057  1.00 -0.10     0.169 C 
BRANCH  34  35
ATOM     35  O10 RES X   1      46.678   6.479   1.023  1.00 -0.04    -0.380 OA
ATOM     36  H10 RES X   1      45.924   6.652   0.471  1.00  0.00     0.211 HD
ENDBRANCH  34  35
ENDBRANCH  31  34
ENDBRANCH  25  31
BRANCH  21  37
ATOM     37  C92 RES X   1      44.855  10.004  -1.400  1.00  0.15     0.240 C 
ATOM     38  O99 RES X   1      44.218  10.573  -2.322  1.00 -0.32    -0.644 OA
ATOM     39  O98 RES X   1      46.266   9.800  -1.521  1.00 -0.51    -0.644 OA
ENDBRANCH  21  37
ENDBRANCH  20  21
ENDBRANCH   7  20
ENDBRANCH   2   3
ENDBRANCH   1   2
BRANCH   1  40
ATOM     40  C29 RES X   1      48.971  10.366   4.183  1.00  0.10     0.178 C 
ATOM     41  C32 RES X   1      50.026  10.956   5.137  1.00  0.12     0.186 C 
ATOM     42  C30 RES X   1      51.219  10.027   5.240  1.00  0.10     0.174 C 
ATOM     43  C27 RES X   1      51.787   9.851   3.837  1.00  0.13     0.263 C 
ATOM     44  C26 RES X   1      50.688   9.221   2.955  1.00  0.12     0.267 C 
ATOM     45  O37 RES X   1      49.547  10.119   2.874  1.00 -0.15    -0.327 OA
BRANCH  41  46
ATOM     46  O39 RES X   1      49.455  11.136   6.434  1.00 -0.20    -0.261 OA
BRANCH  46  47
ATOM     47  P45 RES X   1      50.128  12.294   7.568  1.00  0.46     0.423 P 
ATOM     48  O46 RES X   1      51.020  11.432   8.815  1.00 -0.34    -0.617 OA
ATOM     49  O48 RES X   1      48.823  13.218   8.303  1.00 -1.25    -0.617 OA
ATOM     50  O49 RES X   1      51.212  13.388   6.712  1.00 -0.72    -0.617 OA
ENDBRANCH  46  47
ENDBRANCH  41  46
BRANCH  42  51
ATOM     51  O38 RES X   1      52.204  10.596   6.107  1.00 -0.22    -0.380 OA
ATOM     52  H38 RES X   1      52.193  11.543   6.030  1.00  0.00     0.211 HD
ENDBRANCH  42  51
BRANCH  43  53
ATOM     53  N40 RES X   1      52.960   8.972   3.899  1.00  0.04    -0.059 N 
ATOM     54 3H40 RES X   1      53.662   9.213   3.199  1.00  0.00     0.275 HD
ATOM     55 1H40 RES X   1      52.656   8.001   3.824  1.00  0.00     0.275 HD
ATOM     56 2H40 RES X   1      53.525   9.137   4.732  1.00  0.00     0.275 HD
ENDBRANCH  43  53
BRANCH  44  57
ATOM     57  O36 RES X   1      51.220   8.984   1.638  1.00 -0.14    -0.327 OA
BRANCH  57  58
ATOM     58  C23 RES X   1      51.291  10.212   0.896  1.00  0.09     0.177 C 
BRANCH  58  59
ATOM     59  C2  RES X   1      50.951   9.887  -0.580  1.00  0.08     0.177 C 
ATOM     60  C1  RES X   1      49.778   8.890  -0.596  1.00  0.08     0.169 C 
ATOM     61  C5  RES X   1      49.401   8.595  -2.044  1.00  0.07     0.173 C 
ATOM     62  C4  RES X   1      50.626   8.012  -2.745  1.00  0.11     0.263 C 
ATOM     63  C3  RES X   1      51.789   9.020  -2.649  1.00  0.13     0.278 C 
ATOM     64  O15 RES X   1      52.093   9.308  -1.258  1.00 -0.16    -0.327 OA
BRANCH  60  65
ATOM     65  O13 RES X   1      48.657   9.455   0.086  1.00 -0.16    -0.380 OA
ATOM     66  H13 RES X   1      48.865  10.338   0.368  1.00  0.00     0.211 HD
ENDBRANCH  60  65
BRANCH  61  67
ATOM     67  O12 RES X   1      48.319   7.662  -2.088  1.00 -0.17    -0.380 OA
ATOM     68  H12 RES X   1      47.571   8.049  -2.526  1.00  0.00     0.211 HD
ENDBRANCH  61  67
BRANCH  62  69
ATOM     69  N16 RES X   1      50.307   7.747  -4.159  1.00  0.02    -0.059 N 
ATOM     70 3H16 RES X   1      49.567   7.053  -4.264  1.00  0.00     0.275 HD
ATOM     71 1H16 RES X   1      51.157   7.481  -4.658  1.00  0.00     0.275 HD
ATOM     72 2H16 RES X   1      49.833   8.535  -4.601  1.00  0.00     0.275 HD
ENDBRANCH  62  69
BRANCH  63  73
ATOM     73  O11 RES X   1      52.930   8.448  -3.292  1.00 -0.11    -0.236 OA
BRANCH  73  74
ATOM     74  P18 RES X   1      53.435   9.404  -4.682  1.00  0.29     0.425 P 
ATOM     75  O19 RES X   1      54.332   8.383  -5.796  1.00 -0.22    -0.617 OA
ATOM     76  O21 RES X   1      52.007  10.045  -5.489  1.00 -0.51    -0.617 OA
ATOM     77  O22 RES X   1      54.455  10.738  -4.149  1.00 -0.48    -0.617 OA
ENDBRANCH  73  74
ENDBRANCH  63  73
ENDBRANCH  58  59
ENDBRANCH  57  58
ENDBRANCH  44  57
ENDBRANCH   1  40
TORSDOF 30
ENDMDL
