MODEL 1
REMARK VINA RESULT:      -5.4      0.000      0.000
REMARK  12 active torsions:
REMARK  status: ('A' for Active; 'I' for Inactive)
REMARK    1  A    between atoms: C_1  and  O_7 
REMARK    2  A    between atoms: C_2  and  O_10 
REMARK    3  A    between atoms: C_3  and  O_11 
REMARK    4  A    between atoms: C_4  and  O_12 
REMARK    5  A    between atoms: C_6  and  C_8 
REMARK    6  A    between atoms: C_8  and  O_9 
REMARK    7  A    between atoms: O_12  and  C_13 
REMARK    8  A    between atoms: C_13  and  C_14 
REMARK    9  A    between atoms: C_15  and  C_16 
REMARK   10  A    between atoms: C_16  and  C_17 
REMARK   11  A    between atoms: C_17  and  C_18 
REMARK   12  A    between atoms: C_18  and  C_19 
ROOT
HETATM    1  C   LIG     1      41.721   5.008   1.671  1.00  0.00     0.180 C 
HETATM    2  C   LIG     1      40.266   4.584   1.857  1.00  0.00     0.183 C 
HETATM    3  C   LIG     1      40.045   3.111   1.485  1.00  0.00     0.204 C 
HETATM    4  C   LIG     1      40.670   2.788   0.102  1.00  0.00     0.291 C 
HETATM    5  O   LIG     1      42.028   3.269   0.041  1.00  0.00    -0.348 OA
HETATM    6  C   LIG     1      42.143   4.682   0.234  1.00  0.00     0.179 C 
ENDROOT
BRANCH   4   7
HETATM    7  O   LIG     1      40.770   1.385  -0.154  1.00  0.00    -0.355 OA
BRANCH   7   8
HETATM    8  C   LIG     1      41.166   0.567   0.937  1.00  0.00     0.198 C 
BRANCH   8   9
HETATM    9  C   LIG     1      40.128  -0.464   1.268  1.00  0.00    -0.005 C 
HETATM   10  C   LIG     1      40.114  -1.698   0.739  1.00  0.00    -0.029 C 
BRANCH  10  11
HETATM   11  C   LIG     1      39.048  -2.725   0.997  1.00  0.00     0.027 C 
BRANCH  11  12
HETATM   12  C   LIG     1      38.851  -3.621  -0.229  1.00  0.00     0.004 C 
BRANCH  12  13
HETATM   13  C   LIG     1      40.094  -3.644  -1.121  1.00  0.00    -0.000 C 
BRANCH  13  14
HETATM   14  C   LIG     1      40.221  -4.980  -1.856  1.00  0.00    -0.005 C 
HETATM   15  C   LIG     1      38.976  -5.836  -1.685  1.00  0.00     0.005 C 
ENDBRANCH  13  14
ENDBRANCH  12  13
ENDBRANCH  11  12
ENDBRANCH  10  11
ENDBRANCH   8   9
ENDBRANCH   7   8
ENDBRANCH   4   7
BRANCH   3  16
HETATM   16  O   LIG     1      38.625   2.879   1.522  1.00  0.00    -0.388 OA
HETATM   17  H   LIG     1      38.231   3.747   1.747  1.00  0.00     0.210 HD
ENDBRANCH   3  16
BRANCH   2  18
HETATM   18  O   LIG     1      39.861   4.768   3.225  1.00  0.00    -0.390 OA
HETATM   19  H   LIG     1      40.286   4.037   3.723  1.00  0.00     0.210 HD
ENDBRANCH   2  18
BRANCH   6  20
HETATM   20  C   LIG     1      43.589   5.098  -0.049  1.00  0.00     0.198 C 
BRANCH  20  21
HETATM   21  O   LIG     1      44.487   4.350   0.763  1.00  0.00    -0.398 OA
HETATM   22  H   LIG     1      43.967   3.949   1.481  1.00  0.00     0.209 HD
ENDBRANCH  20  21
ENDBRANCH   6  20
BRANCH   1  23
HETATM   23  O   LIG     1      42.505   4.282   2.638  1.00  0.00    -0.390 OA
HETATM   24  H   LIG     1      41.962   3.528   2.945  1.00  0.00     0.210 HD
ENDBRANCH   1  23
TORSDOF 12
ENDMDL
MODEL 2
REMARK VINA RESULT:      -5.4      7.225     12.439
REMARK  12 active torsions:
REMARK  status: ('A' for Active; 'I' for Inactive)
REMARK    1  A    between atoms: C_1  and  O_7 
REMARK    2  A    between atoms: C_2  and  O_10 
REMARK    3  A    between atoms: C_3  and  O_11 
REMARK    4  A    between atoms: C_4  and  O_12 
REMARK    5  A    between atoms: C_6  and  C_8 
REMARK    6  A    between atoms: C_8  and  O_9 
REMARK    7  A    between atoms: O_12  and  C_13 
REMARK    8  A    between atoms: C_13  and  C_14 
REMARK    9  A    between atoms: C_15  and  C_16 
REMARK   10  A    between atoms: C_16  and  C_17 
REMARK   11  A    between atoms: C_17  and  C_18 
REMARK   12  A    between atoms: C_18  and  C_19 
ROOT
HETATM    1  C   LIG     1      43.600   6.617   0.849  1.00  0.00     0.180 C 
HETATM    2  C   LIG     1      45.115   6.602   1.038  1.00  0.00     0.183 C 
HETATM    3  C   LIG     1      45.530   7.172   2.402  1.00  0.00     0.204 C 
HETATM    4  C   LIG     1      44.830   8.529   2.673  1.00  0.00     0.291 C 
HETATM    5  O   LIG     1      43.413   8.421   2.426  1.00  0.00    -0.348 OA
HETATM    6  C   LIG     1      43.094   8.045   1.083  1.00  0.00     0.179 C 
ENDROOT
BRANCH   4   7
HETATM    7  O   LIG     1      44.929   8.950   4.036  1.00  0.00    -0.355 OA
BRANCH   7   8
HETATM    8  C   LIG     1      45.836  10.008   4.309  1.00  0.00     0.198 C 
BRANCH   8   9
HETATM    9  C   LIG     1      46.864   9.616   5.327  1.00  0.00    -0.005 C 
HETATM   10  C   LIG     1      48.000  10.301   5.536  1.00  0.00    -0.029 C 
BRANCH  10  11
HETATM   11  C   LIG     1      49.079   9.892   6.499  1.00  0.00     0.027 C 
BRANCH  11  12
HETATM   12  C   LIG     1      49.922  11.101   6.913  1.00  0.00     0.004 C 
BRANCH  12  13
HETATM   13  C   LIG     1      51.231  10.679   7.583  1.00  0.00    -0.000 C 
BRANCH  13  14
HETATM   14  C   LIG     1      52.350  10.518   6.553  1.00  0.00    -0.005 C 
HETATM   15  C   LIG     1      53.204  11.772   6.450  1.00  0.00     0.005 C 
ENDBRANCH  13  14
ENDBRANCH  12  13
ENDBRANCH  11  12
ENDBRANCH  10  11
ENDBRANCH   8   9
ENDBRANCH   7   8
ENDBRANCH   4   7
BRANCH   3  16
HETATM   16  O   LIG     1      46.966   7.278   2.391  1.00  0.00    -0.388 OA
HETATM   17  H   LIG     1      47.150   8.239   2.417  1.00  0.00     0.210 HD
ENDBRANCH   3  16
BRANCH   2  18
HETATM   18  O   LIG     1      45.620   5.259   0.939  1.00  0.00    -0.390 OA
HETATM   19  H   LIG     1      46.580   5.354   0.762  1.00  0.00     0.210 HD
ENDBRANCH   2  18
BRANCH   6  20
HETATM   20  C   LIG     1      41.579   8.157   0.891  1.00  0.00     0.198 C 
BRANCH  20  21
HETATM   21  O   LIG     1      40.982   8.782   2.021  1.00  0.00    -0.398 OA
HETATM   22  H   LIG     1      41.528   9.554   2.251  1.00  0.00     0.209 HD
ENDBRANCH  20  21
ENDBRANCH   6  20
BRANCH   1  23
HETATM   23  O   LIG     1      43.042   5.688   1.799  1.00  0.00    -0.390 OA
HETATM   24  H   LIG     1      43.611   4.892   1.797  1.00  0.00     0.210 HD
ENDBRANCH   1  23
TORSDOF 12
ENDMDL
MODEL 3
REMARK VINA RESULT:      -5.3     11.708     14.467
REMARK  12 active torsions:
REMARK  status: ('A' for Active; 'I' for Inactive)
REMARK    1  A    between atoms: C_1  and  O_7 
REMARK    2  A    between atoms: C_2  and  O_10 
REMARK    3  A    between atoms: C_3  and  O_11 
REMARK    4  A    between atoms: C_4  and  O_12 
REMARK    5  A    between atoms: C_6  and  C_8 
REMARK    6  A    between atoms: C_8  and  O_9 
REMARK    7  A    between atoms: O_12  and  C_13 
REMARK    8  A    between atoms: C_13  and  C_14 
REMARK    9  A    between atoms: C_15  and  C_16 
REMARK   10  A    between atoms: C_16  and  C_17 
REMARK   11  A    between atoms: C_17  and  C_18 
REMARK   12  A    between atoms: C_18  and  C_19 
ROOT
HETATM    1  C   LIG     1      45.010  12.507   3.857  1.00  0.00     0.180 C 
HETATM    2  C   LIG     1      44.646  11.222   4.598  1.00  0.00     0.183 C 
HETATM    3  C   LIG     1      45.877  10.343   4.862  1.00  0.00     0.204 C 
HETATM    4  C   LIG     1      46.718  10.163   3.571  1.00  0.00     0.291 C 
HETATM    5  O   LIG     1      46.962  11.440   2.948  1.00  0.00    -0.348 OA
HETATM    6  C   LIG     1      45.767  12.133   2.577  1.00  0.00     0.179 C 
ENDROOT
BRANCH   4   7
HETATM    7  O   LIG     1      48.019   9.625   3.820  1.00  0.00    -0.355 OA
BRANCH   7   8
HETATM    8  C   LIG     1      49.061  10.563   4.045  1.00  0.00     0.198 C 
BRANCH   8   9
HETATM    9  C   LIG     1      49.199  10.907   5.498  1.00  0.00    -0.005 C 
HETATM   10  C   LIG     1      49.744  10.081   6.407  1.00  0.00    -0.029 C 
BRANCH  10  11
HETATM   11  C   LIG     1      49.830  10.370   7.879  1.00  0.00     0.027 C 
BRANCH  11  12
HETATM   12  C   LIG     1      51.018  11.289   8.181  1.00  0.00     0.004 C 
BRANCH  12  13
HETATM   13  C   LIG     1      50.568  12.720   8.478  1.00  0.00    -0.000 C 
BRANCH  13  14
HETATM   14  C   LIG     1      49.421  12.739   9.490  1.00  0.00    -0.005 C 
HETATM   15  C   LIG     1      49.743  13.618  10.688  1.00  0.00     0.005 C 
ENDBRANCH  13  14
ENDBRANCH  12  13
ENDBRANCH  11  12
ENDBRANCH  10  11
ENDBRANCH   8   9
ENDBRANCH   7   8
ENDBRANCH   4   7
BRANCH   3  16
HETATM   16  O   LIG     1      45.394   9.096   5.392  1.00  0.00    -0.388 OA
HETATM   17  H   LIG     1      44.441   9.075   5.166  1.00  0.00     0.210 HD
ENDBRANCH   3  16
BRANCH   2  18
HETATM   18  O   LIG     1      44.033  11.529   5.862  1.00  0.00    -0.390 OA
HETATM   19  H   LIG     1      44.245  12.471   6.033  1.00  0.00     0.210 HD
ENDBRANCH   2  18
BRANCH   6  20
HETATM   20  C   LIG     1      46.152  13.366   1.756  1.00  0.00     0.198 C 
BRANCH  20  21
HETATM   21  O   LIG     1      45.188  14.398   1.930  1.00  0.00    -0.398 OA
HETATM   22  H   LIG     1      44.970  14.747   1.048  1.00  0.00     0.209 HD
ENDBRANCH  20  21
ENDBRANCH   6  20
BRANCH   1  23
HETATM   23  O   LIG     1      45.819  13.299   4.747  1.00  0.00    -0.390 OA
HETATM   24  H   LIG     1      46.753  13.058   4.584  1.00  0.00     0.210 HD
ENDBRANCH   1  23
TORSDOF 12
ENDMDL
MODEL 4
REMARK VINA RESULT:      -5.2     11.049     14.709
REMARK  12 active torsions:
REMARK  status: ('A' for Active; 'I' for Inactive)
REMARK    1  A    between atoms: C_1  and  O_7 
REMARK    2  A    between atoms: C_2  and  O_10 
REMARK    3  A    between atoms: C_3  and  O_11 
REMARK    4  A    between atoms: C_4  and  O_12 
REMARK    5  A    between atoms: C_6  and  C_8 
REMARK    6  A    between atoms: C_8  and  O_9 
REMARK    7  A    between atoms: O_12  and  C_13 
REMARK    8  A    between atoms: C_13  and  C_14 
REMARK    9  A    between atoms: C_15  and  C_16 
REMARK   10  A    between atoms: C_16  and  C_17 
REMARK   11  A    between atoms: C_17  and  C_18 
REMARK   12  A    between atoms: C_18  and  C_19 
ROOT
HETATM    1  C   LIG     1      50.902  11.804   8.533  1.00  0.00     0.180 C 
HETATM    2  C   LIG     1      50.204  10.806   7.611  1.00  0.00     0.183 C 
HETATM    3  C   LIG     1      49.120  11.476   6.754  1.00  0.00     0.204 C 
HETATM    4  C   LIG     1      48.186  12.354   7.628  1.00  0.00     0.291 C 
HETATM    5  O   LIG     1      48.964  13.224   8.475  1.00  0.00    -0.348 OA
HETATM    6  C   LIG     1      49.835  12.523   9.367  1.00  0.00     0.179 C 
ENDROOT
BRANCH   4   7
HETATM    7  O   LIG     1      47.365  13.236   6.859  1.00  0.00    -0.355 OA
BRANCH   7   8
HETATM    8  C   LIG     1      45.966  13.168   7.095  1.00  0.00     0.198 C 
BRANCH   8   9
HETATM    9  C   LIG     1      45.266  12.328   6.070  1.00  0.00    -0.005 C 
HETATM   10  C   LIG     1      45.066  12.719   4.801  1.00  0.00    -0.029 C 
BRANCH  10  11
HETATM   11  C   LIG     1      44.305  11.929   3.774  1.00  0.00     0.027 C 
BRANCH  11  12
HETATM   12  C   LIG     1      45.265  11.282   2.770  1.00  0.00     0.004 C 
BRANCH  12  13
HETATM   13  C   LIG     1      44.700   9.979   2.202  1.00  0.00    -0.000 C 
BRANCH  13  14
HETATM   14  C   LIG     1      45.163   8.773   3.021  1.00  0.00    -0.005 C 
HETATM   15  C   LIG     1      46.606   8.924   3.477  1.00  0.00     0.005 C 
ENDBRANCH  13  14
ENDBRANCH  12  13
ENDBRANCH  11  12
ENDBRANCH  10  11
ENDBRANCH   8   9
ENDBRANCH   7   8
ENDBRANCH   4   7
BRANCH   3  16
HETATM   16  O   LIG     1      48.416  10.422   6.072  1.00  0.00    -0.388 OA
HETATM   17  H   LIG     1      48.821   9.592   6.399  1.00  0.00     0.210 HD
ENDBRANCH   3  16
BRANCH   2  18
HETATM   18  O   LIG     1      51.156  10.188   6.729  1.00  0.00    -0.390 OA
HETATM   19  H   LIG     1      51.096   9.226   6.913  1.00  0.00     0.210 HD
ENDBRANCH   2  18
BRANCH   6  20
HETATM   20  C   LIG     1      50.451  13.531  10.342  1.00  0.00     0.198 C 
BRANCH  20  21
HETATM   21  O   LIG     1      49.434  14.327  10.939  1.00  0.00    -0.398 OA
HETATM   22  H   LIG     1      49.792  14.684  11.770  1.00  0.00     0.209 HD
ENDBRANCH  20  21
ENDBRANCH   6  20
BRANCH   1  23
HETATM   23  O   LIG     1      51.634  12.719   7.696  1.00  0.00    -0.390 OA
HETATM   24  H   LIG     1      51.339  12.571   6.775  1.00  0.00     0.210 HD
ENDBRANCH   1  23
TORSDOF 12
ENDMDL
MODEL 5
REMARK VINA RESULT:      -5.1     29.314     31.257
REMARK  12 active torsions:
REMARK  status: ('A' for Active; 'I' for Inactive)
REMARK    1  A    between atoms: C_1  and  O_7 
REMARK    2  A    between atoms: C_2  and  O_10 
REMARK    3  A    between atoms: C_3  and  O_11 
REMARK    4  A    between atoms: C_4  and  O_12 
REMARK    5  A    between atoms: C_6  and  C_8 
REMARK    6  A    between atoms: C_8  and  O_9 
REMARK    7  A    between atoms: O_12  and  C_13 
REMARK    8  A    between atoms: C_13  and  C_14 
REMARK    9  A    between atoms: C_15  and  C_16 
REMARK   10  A    between atoms: C_16  and  C_17 
REMARK   11  A    between atoms: C_17  and  C_18 
REMARK   12  A    between atoms: C_18  and  C_19 
ROOT
HETATM    1  C   LIG     1      43.403  25.568  20.836  1.00  0.00     0.180 C 
HETATM    2  C   LIG     1      42.643  26.883  20.681  1.00  0.00     0.183 C 
HETATM    3  C   LIG     1      42.525  27.310  19.211  1.00  0.00     0.204 C 
HETATM    4  C   LIG     1      43.901  27.238  18.500  1.00  0.00     0.291 C 
HETATM    5  O   LIG     1      44.531  25.965  18.750  1.00  0.00    -0.348 OA
HETATM    6  C   LIG     1      44.762  25.706  20.138  1.00  0.00     0.179 C 
ENDROOT
BRANCH   4   7
HETATM    7  O   LIG     1      43.802  27.319  17.075  1.00  0.00    -0.355 OA
BRANCH   7   8
HETATM    8  C   LIG     1      44.367  28.470  16.464  1.00  0.00     0.198 C 
BRANCH   8   9
HETATM    9  C   LIG     1      45.747  28.205  15.942  1.00  0.00    -0.005 C 
HETATM   10  C   LIG     1      46.243  26.973  15.746  1.00  0.00    -0.029 C 
BRANCH  10  11
HETATM   11  C   LIG     1      47.645  26.678  15.293  1.00  0.00     0.027 C 
BRANCH  11  12
HETATM   12  C   LIG     1      47.796  25.198  14.929  1.00  0.00     0.004 C 
BRANCH  12  13
HETATM   13  C   LIG     1      49.074  24.596  15.516  1.00  0.00    -0.000 C 
BRANCH  13  14
HETATM   14  C   LIG     1      49.244  24.988  16.985  1.00  0.00    -0.005 C 
HETATM   15  C   LIG     1      48.409  24.106  17.901  1.00  0.00     0.005 C 
ENDBRANCH  13  14
ENDBRANCH  12  13
ENDBRANCH  11  12
ENDBRANCH  10  11
ENDBRANCH   8   9
ENDBRANCH   7   8
ENDBRANCH   4   7
BRANCH   3  16
HETATM   16  O   LIG     1      41.962  28.634  19.203  1.00  0.00    -0.388 OA
HETATM   17  H   LIG     1      41.003  28.504  19.355  1.00  0.00     0.210 HD
ENDBRANCH   3  16
BRANCH   2  18
HETATM   18  O   LIG     1      41.317  26.763  21.223  1.00  0.00    -0.390 OA
HETATM   19  H   LIG     1      40.713  26.828  20.452  1.00  0.00     0.210 HD
ENDBRANCH   2  18
BRANCH   6  20
HETATM   20  C   LIG     1      45.604  24.434  20.264  1.00  0.00     0.198 C 
BRANCH  20  21
HETATM   21  O   LIG     1      45.222  23.487  19.273  1.00  0.00    -0.398 OA
HETATM   22  H   LIG     1      44.267  23.327  19.375  1.00  0.00     0.209 HD
ENDBRANCH  20  21
ENDBRANCH   6  20
BRANCH   1  23
HETATM   23  O   LIG     1      42.596  24.536  20.237  1.00  0.00    -0.390 OA
HETATM   24  H   LIG     1      43.200  23.933  19.759  1.00  0.00     0.210 HD
ENDBRANCH   1  23
TORSDOF 12
ENDMDL
MODEL 6
REMARK VINA RESULT:      -5.1     17.814     19.604
REMARK  12 active torsions:
REMARK  status: ('A' for Active; 'I' for Inactive)
REMARK    1  A    between atoms: C_1  and  O_7 
REMARK    2  A    between atoms: C_2  and  O_10 
REMARK    3  A    between atoms: C_3  and  O_11 
REMARK    4  A    between atoms: C_4  and  O_12 
REMARK    5  A    between atoms: C_6  and  C_8 
REMARK    6  A    between atoms: C_8  and  O_9 
REMARK    7  A    between atoms: O_12  and  C_13 
REMARK    8  A    between atoms: C_13  and  C_14 
REMARK    9  A    between atoms: C_15  and  C_16 
REMARK   10  A    between atoms: C_16  and  C_17 
REMARK   11  A    between atoms: C_17  and  C_18 
REMARK   12  A    between atoms: C_18  and  C_19 
ROOT
HETATM    1  C   LIG     1      34.401  20.949   4.814  1.00  0.00     0.180 C 
HETATM    2  C   LIG     1      32.965  21.464   4.740  1.00  0.00     0.183 C 
HETATM    3  C   LIG     1      31.995  20.394   4.219  1.00  0.00     0.204 C 
HETATM    4  C   LIG     1      32.542  19.732   2.927  1.00  0.00     0.291 C 
HETATM    5  O   LIG     1      33.912  19.321   3.114  1.00  0.00    -0.348 OA
HETATM    6  C   LIG     1      34.792  20.402   3.436  1.00  0.00     0.179 C 
ENDROOT
BRANCH   4   7
HETATM    7  O   LIG     1      31.849  18.531   2.575  1.00  0.00    -0.355 OA
BRANCH   7   8
HETATM    8  C   LIG     1      30.992  18.601   1.445  1.00  0.00     0.198 C 
BRANCH   8   9
HETATM    9  C   LIG     1      29.916  17.558   1.493  1.00  0.00    -0.005 C 
HETATM   10  C   LIG     1      29.989  16.452   2.251  1.00  0.00    -0.029 C 
BRANCH  10  11
HETATM   11  C   LIG     1      28.960  15.357   2.264  1.00  0.00     0.027 C 
BRANCH  11  12
HETATM   12  C   LIG     1      28.296  15.222   0.891  1.00  0.00     0.004 C 
BRANCH  12  13
HETATM   13  C   LIG     1      28.025  13.759   0.532  1.00  0.00    -0.000 C 
BRANCH  13  14
HETATM   14  C   LIG     1      27.550  13.626  -0.916  1.00  0.00    -0.005 C 
HETATM   15  C   LIG     1      27.644  12.190  -1.408  1.00  0.00     0.005 C 
ENDBRANCH  13  14
ENDBRANCH  12  13
ENDBRANCH  11  12
ENDBRANCH  10  11
ENDBRANCH   8   9
ENDBRANCH   7   8
ENDBRANCH   4   7
BRANCH   3  16
HETATM   16  O   LIG     1      30.726  21.041   4.019  1.00  0.00    -0.388 OA
HETATM   17  H   LIG     1      30.798  21.895   4.493  1.00  0.00     0.210 HD
ENDBRANCH   3  16
BRANCH   2  18
HETATM   18  O   LIG     1      32.515  21.885   6.039  1.00  0.00    -0.390 OA
HETATM   19  H   LIG     1      31.668  21.412   6.188  1.00  0.00     0.210 HD
ENDBRANCH   2  18
BRANCH   6  20
HETATM   20  C   LIG     1      36.232  19.882   3.413  1.00  0.00     0.198 C 
BRANCH  20  21
HETATM   21  O   LIG     1      36.598  19.379   4.693  1.00  0.00    -0.398 OA
HETATM   22  H   LIG     1      36.275  18.463   4.750  1.00  0.00     0.209 HD
ENDBRANCH  20  21
ENDBRANCH   6  20
BRANCH   1  23
HETATM   23  O   LIG     1      34.434  19.925   5.827  1.00  0.00    -0.390 OA
HETATM   24  H   LIG     1      33.507  19.703   6.047  1.00  0.00     0.210 HD
ENDBRANCH   1  23
TORSDOF 12
ENDMDL
MODEL 7
REMARK VINA RESULT:      -5.1     18.483     20.165
REMARK  12 active torsions:
REMARK  status: ('A' for Active; 'I' for Inactive)
REMARK    1  A    between atoms: C_1  and  O_7 
REMARK    2  A    between atoms: C_2  and  O_10 
REMARK    3  A    between atoms: C_3  and  O_11 
REMARK    4  A    between atoms: C_4  and  O_12 
REMARK    5  A    between atoms: C_6  and  C_8 
REMARK    6  A    between atoms: C_8  and  O_9 
REMARK    7  A    between atoms: O_12  and  C_13 
REMARK    8  A    between atoms: C_13  and  C_14 
REMARK    9  A    between atoms: C_15  and  C_16 
REMARK   10  A    between atoms: C_16  and  C_17 
REMARK   11  A    between atoms: C_17  and  C_18 
REMARK   12  A    between atoms: C_18  and  C_19 
ROOT
HETATM    1  C   LIG     1      35.885  20.733   2.925  1.00  0.00     0.180 C 
HETATM    2  C   LIG     1      35.851  20.295   4.389  1.00  0.00     0.183 C 
HETATM    3  C   LIG     1      34.464  19.783   4.804  1.00  0.00     0.204 C 
HETATM    4  C   LIG     1      33.353  20.774   4.370  1.00  0.00     0.291 C 
HETATM    5  O   LIG     1      33.516  21.135   2.983  1.00  0.00    -0.348 OA
HETATM    6  C   LIG     1      34.770  21.761   2.700  1.00  0.00     0.179 C 
ENDROOT
BRANCH   4   7
HETATM    7  O   LIG     1      32.040  20.214   4.448  1.00  0.00    -0.355 OA
BRANCH   7   8
HETATM    8  C   LIG     1      31.792  19.065   3.651  1.00  0.00     0.198 C 
BRANCH   8   9
HETATM    9  C   LIG     1      30.473  19.148   2.943  1.00  0.00    -0.005 C 
HETATM   10  C   LIG     1      29.702  18.080   2.684  1.00  0.00    -0.029 C 
BRANCH  10  11
HETATM   11  C   LIG     1      28.412  18.125   1.915  1.00  0.00     0.027 C 
BRANCH  11  12
HETATM   12  C   LIG     1      28.209  16.830   1.122  1.00  0.00     0.004 C 
BRANCH  12  13
HETATM   13  C   LIG     1      28.658  15.602   1.916  1.00  0.00    -0.000 C 
BRANCH  13  14
HETATM   14  C   LIG     1      28.317  14.309   1.171  1.00  0.00    -0.005 C 
HETATM   15  C   LIG     1      27.854  14.585  -0.251  1.00  0.00     0.005 C 
ENDBRANCH  13  14
ENDBRANCH  12  13
ENDBRANCH  11  12
ENDBRANCH  10  11
ENDBRANCH   8   9
ENDBRANCH   7   8
ENDBRANCH   4   7
BRANCH   3  16
HETATM   16  O   LIG     1      34.504  19.578   6.228  1.00  0.00    -0.388 OA
HETATM   17  H   LIG     1      35.452  19.458   6.442  1.00  0.00     0.210 HD
ENDBRANCH   3  16
BRANCH   2  18
HETATM   18  O   LIG     1      36.807  19.247   4.621  1.00  0.00    -0.390 OA
HETATM   19  H   LIG     1      36.819  18.717   3.795  1.00  0.00     0.210 HD
ENDBRANCH   2  18
BRANCH   6  20
HETATM   20  C   LIG     1      34.745  22.274   1.257  1.00  0.00     0.198 C 
BRANCH  20  21
HETATM   21  O   LIG     1      35.985  22.003   0.614  1.00  0.00    -0.398 OA
HETATM   22  H   LIG     1      36.454  21.340   1.151  1.00  0.00     0.209 HD
ENDBRANCH  20  21
ENDBRANCH   6  20
BRANCH   1  23
HETATM   23  O   LIG     1      35.694  19.552   2.123  1.00  0.00    -0.390 OA
HETATM   24  H   LIG     1      34.887  19.689   1.589  1.00  0.00     0.210 HD
ENDBRANCH   1  23
TORSDOF 12
ENDMDL
MODEL 8
REMARK VINA RESULT:      -5.0      2.315      3.562
REMARK  12 active torsions:
REMARK  status: ('A' for Active; 'I' for Inactive)
REMARK    1  A    between atoms: C_1  and  O_7 
REMARK    2  A    between atoms: C_2  and  O_10 
REMARK    3  A    between atoms: C_3  and  O_11 
REMARK    4  A    between atoms: C_4  and  O_12 
REMARK    5  A    between atoms: C_6  and  C_8 
REMARK    6  A    between atoms: C_8  and  O_9 
REMARK    7  A    between atoms: O_12  and  C_13 
REMARK    8  A    between atoms: C_13  and  C_14 
REMARK    9  A    between atoms: C_15  and  C_16 
REMARK   10  A    between atoms: C_16  and  C_17 
REMARK   11  A    between atoms: C_17  and  C_18 
REMARK   12  A    between atoms: C_18  and  C_19 
ROOT
HETATM    1  C   LIG     1      41.310   5.634   0.701  1.00  0.00     0.180 C 
HETATM    2  C   LIG     1      40.010   4.941   1.106  1.00  0.00     0.183 C 
HETATM    3  C   LIG     1      40.263   3.553   1.712  1.00  0.00     0.204 C 
HETATM    4  C   LIG     1      41.220   2.722   0.817  1.00  0.00     0.291 C 
HETATM    5  O   LIG     1      42.388   3.497   0.477  1.00  0.00    -0.348 OA
HETATM    6  C   LIG     1      42.088   4.700  -0.235  1.00  0.00     0.179 C 
ENDROOT
BRANCH   4   7
HETATM    7  O   LIG     1      41.733   1.560   1.473  1.00  0.00    -0.355 OA
BRANCH   7   8
HETATM    8  C   LIG     1      41.149   0.317   1.112  1.00  0.00     0.198 C 
BRANCH   8   9
HETATM    9  C   LIG     1      40.992   0.184  -0.373  1.00  0.00    -0.005 C 
HETATM   10  C   LIG     1      39.874  -0.272  -0.962  1.00  0.00    -0.029 C 
BRANCH  10  11
HETATM   11  C   LIG     1      39.715  -0.484  -2.441  1.00  0.00     0.027 C 
BRANCH  11  12
HETATM   12  C   LIG     1      38.726   0.528  -3.029  1.00  0.00     0.004 C 
BRANCH  12  13
HETATM   13  C   LIG     1      39.382   1.889  -3.271  1.00  0.00    -0.000 C 
BRANCH  13  14
HETATM   14  C   LIG     1      38.389   3.028  -3.037  1.00  0.00    -0.005 C 
HETATM   15  C   LIG     1      38.094   3.222  -1.558  1.00  0.00     0.005 C 
ENDBRANCH  13  14
ENDBRANCH  12  13
ENDBRANCH  11  12
ENDBRANCH  10  11
ENDBRANCH   8   9
ENDBRANCH   7   8
ENDBRANCH   4   7
BRANCH   3  16
HETATM   16  O   LIG     1      38.976   2.930   1.880  1.00  0.00    -0.388 OA
HETATM   17  H   LIG     1      38.360   3.471   1.345  1.00  0.00     0.210 HD
ENDBRANCH   3  16
BRANCH   2  18
HETATM   18  O   LIG     1      39.301   5.733   2.074  1.00  0.00    -0.390 OA
HETATM   19  H   LIG     1      39.306   6.647   1.718  1.00  0.00     0.210 HD
ENDBRANCH   2  18
BRANCH   6  20
HETATM   20  C   LIG     1      43.401   5.328  -0.710  1.00  0.00     0.198 C 
BRANCH  20  21
HETATM   21  O   LIG     1      44.484   4.880   0.097  1.00  0.00    -0.398 OA
HETATM   22  H   LIG     1      44.199   4.936   1.026  1.00  0.00     0.209 HD
ENDBRANCH  20  21
ENDBRANCH   6  20
BRANCH   1  23
HETATM   23  O   LIG     1      42.041   5.909   1.912  1.00  0.00    -0.390 OA
HETATM   24  H   LIG     1      42.519   5.091   2.156  1.00  0.00     0.210 HD
ENDBRANCH   1  23
TORSDOF 12
ENDMDL
MODEL 9
REMARK VINA RESULT:      -5.0     25.526     27.741
REMARK  12 active torsions:
REMARK  status: ('A' for Active; 'I' for Inactive)
REMARK    1  A    between atoms: C_1  and  O_7 
REMARK    2  A    between atoms: C_2  and  O_10 
REMARK    3  A    between atoms: C_3  and  O_11 
REMARK    4  A    between atoms: C_4  and  O_12 
REMARK    5  A    between atoms: C_6  and  C_8 
REMARK    6  A    between atoms: C_8  and  O_9 
REMARK    7  A    between atoms: O_12  and  C_13 
REMARK    8  A    between atoms: C_13  and  C_14 
REMARK    9  A    between atoms: C_15  and  C_16 
REMARK   10  A    between atoms: C_16  and  C_17 
REMARK   11  A    between atoms: C_17  and  C_18 
REMARK   12  A    between atoms: C_18  and  C_19 
ROOT
HETATM    1  C   LIG     1      55.178 -17.098 -15.535  1.00  0.00     0.180 C 
HETATM    2  C   LIG     1      56.418 -16.234 -15.311  1.00  0.00     0.183 C 
HETATM    3  C   LIG     1      56.111 -14.738 -15.463  1.00  0.00     0.204 C 
HETATM    4  C   LIG     1      55.324 -14.463 -16.771  1.00  0.00     0.291 C 
HETATM    5  O   LIG     1      54.203 -15.363 -16.882  1.00  0.00    -0.348 OA
HETATM    6  C   LIG     1      54.578 -16.743 -16.901  1.00  0.00     0.179 C 
ENDROOT
BRANCH   4   7
HETATM    7  O   LIG     1      54.745 -13.156 -16.814  1.00  0.00    -0.355 OA
BRANCH   7   8
HETATM    8  C   LIG     1      55.011 -12.381 -17.974  1.00  0.00     0.198 C 
BRANCH   8   9
HETATM    9  C   LIG     1      53.847 -12.374 -18.920  1.00  0.00    -0.005 C 
HETATM   10  C   LIG     1      52.618 -12.800 -18.587  1.00  0.00    -0.029 C 
BRANCH  10  11
HETATM   11  C   LIG     1      51.454 -12.871 -19.535  1.00  0.00     0.027 C 
BRANCH  11  12
HETATM   12  C   LIG     1      51.192 -11.503 -20.173  1.00  0.00     0.004 C 
BRANCH  12  13
HETATM   13  C   LIG     1      49.700 -11.265 -20.415  1.00  0.00    -0.000 C 
BRANCH  13  14
HETATM   14  C   LIG     1      49.446  -9.854 -20.947  1.00  0.00    -0.005 C 
HETATM   15  C   LIG     1      48.214  -9.228 -20.314  1.00  0.00     0.005 C 
ENDBRANCH  13  14
ENDBRANCH  12  13
ENDBRANCH  11  12
ENDBRANCH  10  11
ENDBRANCH   8   9
ENDBRANCH   7   8
ENDBRANCH   4   7
BRANCH   3  16
HETATM   16  O   LIG     1      57.371 -14.045 -15.415  1.00  0.00    -0.388 OA
HETATM   17  H   LIG     1      57.240 -13.240 -15.957  1.00  0.00     0.210 HD
ENDBRANCH   3  16
BRANCH   2  18
HETATM   18  O   LIG     1      56.950 -16.452 -13.993  1.00  0.00    -0.390 OA
HETATM   19  H   LIG     1      56.477 -17.240 -13.648  1.00  0.00     0.210 HD
ENDBRANCH   2  18
BRANCH   6  20
HETATM   20  C   LIG     1      53.338 -17.583 -17.219  1.00  0.00     0.198 C 
BRANCH  20  21
HETATM   21  O   LIG     1      52.302 -17.309 -16.284  1.00  0.00    -0.398 OA
HETATM   22  H   LIG     1      51.646 -18.025 -16.356  1.00  0.00     0.209 HD
ENDBRANCH  20  21
ENDBRANCH   6  20
BRANCH   1  23
HETATM   23  O   LIG     1      54.263 -16.819 -14.458  1.00  0.00    -0.390 OA
HETATM   24  H   LIG     1      54.768 -16.883 -13.623  1.00  0.00     0.210 HD
ENDBRANCH   1  23
TORSDOF 12
ENDMDL
