REMARK AutoDockVina VirtualScreeningResult  Sat Mar  5 21:34:29 2016
USER  AD>  4 of 9 MODELS
USER  AD>  ligand efficiency  -0.3846
USER  AD>  -5.00,  9.780, 11.785
USER  AD> macro_close_ats: 8
USER  AD> hepi:A:HIS266:NE2
USER  AD> hepi:A:LYS192:H
USER  AD> hepi:A:ASP261:OD1
USER  AD> hepi:A:LYS192:NZ
USER  AD> hepi:A:THR262:C
USER  AD> hepi:A:ASP261:OD2
USER  AD> hepi:A:MET11:H
USER  AD> hepi:A:ASP261:CG

USER  AD> lig_close_ats: 5
USER  AD> h11_aam_m4_model1: :LIG1:O,C,H,H,H
MODEL 4
REMARK VINA RESULT:      -5.0      9.780     11.785
REMARK  6 active torsions:
REMARK  status: ('A' for Active; 'I' for Inactive)
REMARK    1  A    between atoms: C_1  and  O_7 
REMARK    2  A    between atoms: C_2  and  O_10 
REMARK    3  A    between atoms: C_3  and  O_11 
REMARK    4  A    between atoms: C_4  and  O_12 
REMARK    5  A    between atoms: C_6  and  C_8 
REMARK    6  A    between atoms: C_8  and  O_9 
ROOT
HETATM    1  C   LIG L   1      41.338   5.474   0.763  1.00  0.00     0.180 C 
HETATM    2  C   LIG L   1      39.962   4.839   1.014  1.00  0.00     0.183 C 
HETATM    3  C   LIG L   1      40.117   3.499   1.744  1.00  0.00     0.204 C 
HETATM    4  C   LIG L   1      41.082   2.591   0.951  1.00  0.00     0.290 C 
HETATM    5  O   LIG L   1      42.355   3.261   0.827  1.00  0.00    -0.349 OA
HETATM    6  C   LIG L   1      42.257   4.467   0.046  1.00  0.00     0.179 C 
ENDROOT
BRANCH   6   7
HETATM    7  C   LIG L   1      43.671   5.014  -0.181  1.00  0.00     0.198 C 
BRANCH   7   8
HETATM    8  O   LIG L   1      44.576   4.534   0.806  1.00  0.00    -0.398 OA
HETATM    9  H   LIG L   1      45.466   4.846   0.564  1.00  0.00     0.209 HD
ENDBRANCH   7   8
ENDBRANCH   6   7
BRANCH   1  10
HETATM   10  O   LIG L   1      41.863   5.858   2.051  1.00  0.00    -0.390 OA
HETATM   11  H   LIG L   1      41.314   5.429   2.735  1.00  0.00     0.210 HD
ENDBRANCH   1  10
BRANCH   2  12
HETATM   12  O   LIG L   1      39.157   5.706   1.834  1.00  0.00    -0.390 OA
HETATM   13  H   LIG L   1      38.279   5.272   1.885  1.00  0.00     0.210 HD
ENDBRANCH   2  12
BRANCH   4  14
HETATM   14  O   LIG L   1      40.629   2.238  -0.358  1.00  0.00    -0.363 OA
HETATM   15  C   LIG L   1      40.413   0.845  -0.536  1.00  0.00     0.204 C 
ENDBRANCH   4  14
BRANCH   3  16
HETATM   16  O   LIG L   1      38.830   2.914   1.975  1.00  0.00    -0.388 OA
HETATM   17  H   LIG L   1      38.324   3.084   1.155  1.00  0.00     0.210 HD
ENDBRANCH   3  16
TORSDOF 6
ENDMDL
