REMARK AutoDockVina VirtualScreeningResult  Sat Mar  5 21:34:35 2016
USER  AD>  4 of 9 MODELS
USER  AD>  ligand efficiency  -0.2895
USER  AD>  -5.50,  4.955,  7.979
USER  AD> macro_close_ats: 15
USER  AD> hepi:A:LEU264:CD1
USER  AD> hepi:A:ALA186:CB
USER  AD> hepi:A:HIS185:H
USER  AD> hepi:A:MET11:CE
USER  AD> hepi:A:TRP217:N
USER  AD> hepi:A:LEU184:CD2
USER  AD> hepi:A:TRP217:C
USER  AD> hepi:A:VAL247:CG1
USER  AD> hepi:A:MET242:O
USER  AD> hepi:A:ALA186:H
USER  AD> hepi:A:VAL247:CG2
USER  AD> hepi:A:LEU264:CG
USER  AD> hepi:A:TRP217:H
USER  AD> hepi:A:PRO216:CB
USER  AD> hepi:A:TRP217:CA

USER  AD> lig_close_ats: 12
USER  AD> h11_ab6_m4_model1: :LIG1:C,C,C,C,C,C,C,C,C,H,O,C
MODEL 4
REMARK VINA RESULT:      -5.5      4.955      7.979
REMARK  11 active torsions:
REMARK  status: ('A' for Active; 'I' for Inactive)
REMARK    1  A    between atoms: C_1  and  O_7 
REMARK    2  A    between atoms: C_2  and  O_10 
REMARK    3  A    between atoms: C_3  and  O_11 
REMARK    4  A    between atoms: C_4  and  O_12 
REMARK    5  A    between atoms: C_6  and  C_8 
REMARK    6  A    between atoms: C_8  and  O_9 
REMARK    7  A    between atoms: O_12  and  C_13 
REMARK    8  A    between atoms: C_13  and  C_14 
REMARK    9  A    between atoms: C_15  and  C_16 
REMARK   10  A    between atoms: C_16  and  C_17 
REMARK   11  A    between atoms: C_17  and  C_18 
ROOT
HETATM    1  C   LIG L   1      51.306  12.040   8.386  1.00  0.00     0.180 C 
HETATM    2  C   LIG L   1      51.869  11.025   7.383  1.00  0.00     0.183 C 
HETATM    3  C   LIG L   1      51.027  10.948   6.099  1.00  0.00     0.204 C 
HETATM    4  C   LIG L   1      49.535  10.801   6.466  1.00  0.00     0.291 C 
HETATM    5  O   LIG L   1      49.126  11.812   7.393  1.00  0.00    -0.348 OA
HETATM    6  C   LIG L   1      49.826  11.713   8.637  1.00  0.00     0.179 C 
ENDROOT
BRANCH   4   7
HETATM    7  O   LIG L   1      48.702  10.929   5.314  1.00  0.00    -0.355 OA
BRANCH   7   8
HETATM    8  C   LIG L   1      47.695   9.924   5.287  1.00  0.00     0.198 C 
BRANCH   8   9
HETATM    9  C   LIG L   1      46.355  10.569   5.469  1.00  0.00    -0.005 C 
HETATM   10  C   LIG L   1      46.180  11.627   6.273  1.00  0.00    -0.029 C 
BRANCH  10  11
HETATM   11  C   LIG L   1      44.868  12.330   6.482  1.00  0.00     0.027 C 
BRANCH  11  12
HETATM   12  C   LIG L   1      44.897  13.157   7.771  1.00  0.00     0.003 C 
BRANCH  12  13
HETATM   13  C   LIG L   1      43.853  12.682   8.779  1.00  0.00    -0.004 C 
HETATM   14  C   LIG L   1      43.657  13.707   9.886  1.00  0.00     0.005 C 
ENDBRANCH  12  13
ENDBRANCH  11  12
ENDBRANCH  10  11
ENDBRANCH   8   9
ENDBRANCH   7   8
ENDBRANCH   4   7
BRANCH   3  15
HETATM   15  O   LIG L   1      51.479   9.813   5.338  1.00  0.00    -0.388 OA
HETATM   16  H   LIG L   1      52.399  10.021   5.076  1.00  0.00     0.210 HD
ENDBRANCH   3  15
BRANCH   2  17
HETATM   17  O   LIG L   1      53.220  11.358   7.030  1.00  0.00    -0.390 OA
HETATM   18  H   LIG L   1      53.264  11.283   6.053  1.00  0.00     0.210 HD
ENDBRANCH   2  17
BRANCH   6  19
HETATM   19  C   LIG L   1      49.161  12.657   9.638  1.00  0.00     0.198 C 
BRANCH  19  20
HETATM   20  O   LIG L   1      48.410  13.659   8.964  1.00  0.00    -0.398 OA
HETATM   21  H   LIG L   1      47.875  14.124   9.630  1.00  0.00     0.209 HD
ENDBRANCH  19  20
ENDBRANCH   6  19
BRANCH   1  22
HETATM   22  O   LIG L   1      51.477  13.349   7.815  1.00  0.00    -0.390 OA
HETATM   23  H   LIG L   1      52.086  13.263   7.055  1.00  0.00     0.210 HD
ENDBRANCH   1  22
TORSDOF 11
ENDMDL
