REMARK AutoDockVina VirtualScreeningResult  Sat Mar  5 21:35:11 2016
USER  AD>  3 of 9 MODELS
USER  AD>  ligand efficiency  -0.2478
USER  AD>  -5.70,  7.305, 11.260
USER  AD> macro_close_ats: 10
USER  AD> hepi:A:ARG143:NH1
USER  AD> hepi:A:ARG143:H
USER  AD> hepi:A:LYS7:NZ
USER  AD> hepi:A:ALA93:O
USER  AD> hepi:A:ILE287:CD1
USER  AD> hepi:A:ARG143:H
USER  AD> hepi:A:LYS192:H
USER  AD> hepi:A:ILE287:CB
USER  AD> hepi:A:ILE287:CA
USER  AD> hepi:A:ARG120:H

USER  AD> lig_close_ats: 11
USER  AD> h11_gb10_m3_model1: :LIG1:C,H,O,H,C,O,H,C,O,C,C
MODEL 3
REMARK VINA RESULT:      -5.7      7.305     11.260
REMARK  15 active torsions:
REMARK  status: ('A' for Active; 'I' for Inactive)
REMARK    1  A    between atoms: C_1  and  O_23 
REMARK    2  A    between atoms: C_2  and  O_9 
REMARK    3  A    between atoms: C_3  and  O_10 
REMARK    4  A    between atoms: C_4  and  O_11 
REMARK    5  A    between atoms: C_6  and  C_7 
REMARK    6  A    between atoms: C_7  and  O_8 
REMARK    7  A    between atoms: O_11  and  C_12 
REMARK    8  A    between atoms: C_12  and  C_13 
REMARK    9  A    between atoms: C_14  and  C_15 
REMARK   10  A    between atoms: C_15  and  C_16 
REMARK   11  A    between atoms: C_16  and  C_17 
REMARK   12  A    between atoms: C_17  and  C_18 
REMARK   13  A    between atoms: C_18  and  C_19 
REMARK   14  A    between atoms: C_19  and  C_20 
REMARK   15  A    between atoms: C_20  and  C_21 
ROOT
HETATM    1  C   LIG L   1      43.035  -6.118  -4.069  1.00  0.00     0.180 C 
HETATM    2  C   LIG L   1      42.378  -7.168  -3.163  1.00  0.00     0.183 C 
HETATM    3  C   LIG L   1      40.988  -6.738  -2.671  1.00  0.00     0.204 C 
HETATM    4  C   LIG L   1      41.141  -5.348  -2.029  1.00  0.00     0.291 C 
HETATM    5  O   LIG L   1      41.622  -4.421  -2.998  1.00  0.00    -0.348 OA
HETATM    6  C   LIG L   1      42.945  -4.712  -3.451  1.00  0.00     0.179 C 
ENDROOT
BRANCH   4   7
HETATM    7  O   LIG L   1      39.887  -4.867  -1.553  1.00  0.00    -0.355 OA
BRANCH   7   8
HETATM    8  C   LIG L   1      39.681  -3.514  -1.934  1.00  0.00     0.198 C 
BRANCH   8   9
HETATM    9  C   LIG L   1      39.106  -2.751  -0.784  1.00  0.00    -0.005 C 
HETATM   10  C   LIG L   1      39.889  -2.227   0.170  1.00  0.00    -0.029 C 
BRANCH  10  11
HETATM   11  C   LIG L   1      39.389  -1.429   1.337  1.00  0.00     0.027 C 
BRANCH  11  12
HETATM   12  C   LIG L   1      40.255  -0.183   1.541  1.00  0.00     0.004 C 
BRANCH  12  13
HETATM   13  C   LIG L   1      40.703   0.421   0.213  1.00  0.00     0.000 C 
BRANCH  13  14
HETATM   14  C   LIG L   1      39.783   1.573  -0.192  1.00  0.00     0.000 C 
BRANCH  14  15
HETATM   15  C   LIG L   1      39.259   2.319   1.033  1.00  0.00     0.000 C 
BRANCH  15  16
HETATM   16  C   LIG L   1      38.650   3.666   0.640  1.00  0.00    -0.000 C 
BRANCH  16  17
HETATM   17  C   LIG L   1      39.575   4.821   1.022  1.00  0.00    -0.005 C 
HETATM   18  C   LIG L   1      40.358   4.510   2.286  1.00  0.00     0.005 C 
ENDBRANCH  16  17
ENDBRANCH  15  16
ENDBRANCH  14  15
ENDBRANCH  13  14
ENDBRANCH  12  13
ENDBRANCH  11  12
ENDBRANCH  10  11
ENDBRANCH   8   9
ENDBRANCH   7   8
ENDBRANCH   4   7
BRANCH   3  19
HETATM   19  O   LIG L   1      40.467  -7.706  -1.747  1.00  0.00    -0.388 OA
HETATM   20  H   LIG L   1      39.647  -8.083  -2.107  1.00  0.00     0.210 HD
ENDBRANCH   3  19
BRANCH   2  21
HETATM   21  O   LIG L   1      42.348  -8.429  -3.849  1.00  0.00    -0.390 OA
HETATM   22  H   LIG L   1      43.127  -8.478  -4.433  1.00  0.00     0.210 HD
ENDBRANCH   2  21
BRANCH   6  23
HETATM   23  C   LIG L   1      43.331  -3.609  -4.453  1.00  0.00     0.198 C 
BRANCH  23  24
HETATM   24  O   LIG L   1      42.783  -2.331  -4.165  1.00  0.00    -0.398 OA
HETATM   25  H   LIG L   1      42.043  -2.163  -4.776  1.00  0.00     0.209 HD
ENDBRANCH  23  24
ENDBRANCH   6  23
BRANCH   1  26
HETATM   26  O   LIG L   1      44.410  -6.486  -4.241  1.00  0.00    -0.390 OA
HETATM   27  H   LIG L   1      44.507  -7.365  -3.820  1.00  0.00     0.210 HD
ENDBRANCH   1  26
TORSDOF 15
ENDMDL
