REMARK AutoDockVina VirtualScreeningResult  Sat Mar  5 21:34:31 2016
USER  AD>  4 of 9 MODELS
USER  AD>  ligand efficiency  -0.3692
USER  AD>  -4.80,  1.730,  3.960
USER  AD> macro_close_ats: 6
USER  AD> hepi:A:HIS266:NE2
USER  AD> hepi:A:LYS192:H
USER  AD> hepi:A:LYS192:H
USER  AD> hepi:A:ASP261:CG
USER  AD> hepi:A:SER10:OG
USER  AD> hepi:A:LYS192:NZ

USER  AD> lig_close_ats: 5
USER  AD> h11_abm_m4_model1: :LIG1:O,C,O,H,H
MODEL 4
REMARK VINA RESULT:      -4.8      1.730      3.960
REMARK  6 active torsions:
REMARK  status: ('A' for Active; 'I' for Inactive)
REMARK    1  A    between atoms: C_1  and  O_7 
REMARK    2  A    between atoms: C_2  and  O_10 
REMARK    3  A    between atoms: C_3  and  O_12 
REMARK    4  A    between atoms: C_4  and  O_11 
REMARK    5  A    between atoms: C_6  and  C_8 
REMARK    6  A    between atoms: C_8  and  O_9 
ROOT
HETATM    1  C   LIG L   1      41.376   5.505   0.778  1.00  0.00     0.180 C 
HETATM    2  C   LIG L   1      40.021   4.864   1.077  1.00  0.00     0.183 C 
HETATM    3  C   LIG L   1      40.184   3.482   1.718  1.00  0.00     0.204 C 
HETATM    4  C   LIG L   1      41.183   2.621   0.917  1.00  0.00     0.290 C 
HETATM    5  O   LIG L   1      42.406   3.322   0.657  1.00  0.00    -0.349 OA
HETATM    6  C   LIG L   1      42.203   4.536  -0.081  1.00  0.00     0.179 C 
ENDROOT
BRANCH   6   7
HETATM    7  C   LIG L   1      43.568   5.123  -0.456  1.00  0.00     0.198 C 
BRANCH   7   8
HETATM    8  O   LIG L   1      44.575   4.671   0.440  1.00  0.00    -0.398 OA
HETATM    9  H   LIG L   1      44.947   5.454   0.889  1.00  0.00     0.209 HD
ENDBRANCH   7   8
ENDBRANCH   6   7
BRANCH   1  10
HETATM   10  O   LIG L   1      42.015   5.777   2.040  1.00  0.00    -0.390 OA
HETATM   11  H   LIG L   1      42.961   5.548   1.947  1.00  0.00     0.210 HD
ENDBRANCH   1  10
BRANCH   2  12
HETATM   12  O   LIG L   1      39.262   5.696   1.970  1.00  0.00    -0.390 OA
HETATM   13  H   LIG L   1      38.871   6.397   1.407  1.00  0.00     0.210 HD
ENDBRANCH   2  12
BRANCH   4  14
HETATM   14  O   LIG L   1      41.488   1.464   1.701  1.00  0.00    -0.363 OA
HETATM   15  C   LIG L   1      41.337   0.262   0.963  1.00  0.00     0.204 C 
ENDBRANCH   4  14
BRANCH   3  16
HETATM   16  O   LIG L   1      38.889   2.858   1.770  1.00  0.00    -0.388 OA
HETATM   17  H   LIG L   1      38.976   2.138   2.424  1.00  0.00     0.210 HD
ENDBRANCH   3  16
TORSDOF 6
ENDMDL
