REMARK  0 active torsions:
REMARK  status: ('A' for Active; 'I' for Inactive)
ROOT
ATOM      1  C   UNN dAMED      -3.723  -1.329  -0.485  0.00  0.00     0.013 C 
ATOM      2  C   UNN dAMED      -2.573  -1.144  -1.136  0.00  0.00     0.057 C 
ATOM      3  C   UNN dAMED      -4.112  -0.353   0.624  0.00  0.00     0.004 C 
ATOM      4  N   UNN dAMED      -1.799   0.042  -0.948  0.00  0.00    -0.192 NA
ATOM      5  C   UNN dAMED      -0.493  -0.214  -1.250  0.00  0.00     0.076 A 
ATOM      6  C   UNN dAMED      -1.861   0.440   0.350  0.00  0.00     0.128 A 
ATOM      7  C   UNN dAMED       0.196   0.217  -0.128  0.00  0.00     0.094 A 
ATOM      8  C   UNN dAMED      -3.121   0.355   1.155  0.00  0.00     0.032 C 
ATOM      9  N   UNN dAMED      -0.669   0.605   0.874  0.00  0.00    -0.233 NA
ATOM     10  C   UNN dAMED       1.633   0.215   0.004  0.00  0.00     0.019 A 
ATOM     11  C   UNN dAMED       2.429   0.790  -0.989  0.00  0.00     0.002 A 
ATOM     12  C   UNN dAMED       3.818   0.790  -0.868  0.00  0.00     0.000 A 
ATOM     13  C   UNN dAMED       4.420   0.224   0.253  0.00  0.00     0.000 A 
ATOM     14  C   UNN dAMED       3.632  -0.344   1.252  0.00  0.00     0.000 A 
ATOM     15  C   UNN dAMED       2.241  -0.349   1.127  0.00  0.00     0.002 A 
ENDROOT
TORSDOF 0
