REMARK  2 active torsions:
REMARK  status: ('A' for Active; 'I' for Inactive)
REMARK    1  A    between atoms: C_5  and  N_9 
REMARK    2  A    between atoms: N_9  and  C_10 
ROOT
ATOM      1  C   UNN dAMED      -1.038  -3.363  -1.587  0.00  0.00     0.151 C 
ATOM      2  C   UNN dAMED      -0.661  -3.312  -0.109  0.00  0.00     0.124 C 
ATOM      3  N   UNN dAMED      -2.007  -2.447  -2.057  0.00  0.00    -0.251 NA
ATOM      4  N   UNN dAMED      -0.122  -2.100   0.484  0.00  0.00    -0.372 N 
ATOM      5  C   UNN dAMED      -1.766  -1.185  -1.930  0.00  0.00     0.155 C 
ATOM      6  C   UNN dAMED      -0.421  -0.700  -1.425  0.00  0.00     0.055 C 
ATOM      7  H   UNN dAMED       0.413  -2.172   1.346  0.00  0.00     0.160 HD
ATOM      8  C   UNN dAMED       0.180  -0.982  -0.258  0.00  0.00     0.056 C 
ATOM      9  C   UNN dAMED       1.384  -0.199   0.043  0.00  0.00     0.015 A 
ATOM     10  C   UNN dAMED       2.180  -0.397   1.171  0.00  0.00     0.001 A 
ATOM     11  C   UNN dAMED       3.337   0.357   1.362  0.00  0.00     0.000 A 
ATOM     12  C   UNN dAMED       3.706   1.318   0.424  0.00  0.00     0.000 A 
ATOM     13  C   UNN dAMED       2.920   1.522  -0.706  0.00  0.00     0.000 A 
ATOM     14  C   UNN dAMED       1.765   0.764  -0.894  0.00  0.00     0.001 A 
ENDROOT
BRANCH   5  15
ATOM     15  N   UNN dAMED      -2.679  -0.295  -2.293  0.00  0.00    -0.257 NA
BRANCH  15  16
ATOM     16  C   UNN dAMED      -3.517  -0.017  -1.137  0.00  0.00     0.086 C 
ATOM     17  C   UNN dAMED      -2.880  -1.042   0.262  0.00  0.00     0.024 C 
ATOM     18  C   UNN dAMED      -2.880  -1.042   0.262  0.00  0.00     0.024 C 
ATOM     19  C   UNN dAMED      -2.880  -1.042   0.262  0.00  0.00     0.024 C 
ENDBRANCH  15  16
ENDBRANCH   5  15
TORSDOF 2
