REMARK  0 active torsions:
REMARK  status: ('A' for Active; 'I' for Inactive)
ROOT
ATOM      1  N   UNN dAMED       4.958  -0.213  -0.408  0.00  0.00    -0.005 NA
ATOM      2  N   UNN dAMED       4.924   0.838   0.398  0.00  0.00     0.018 NA
ATOM      3  H   UNN dAMED       3.446  -1.333  -1.194  0.00  0.00     0.185 HD
ATOM      4  N   UNN dAMED       3.675  -0.546  -0.599  0.00  0.00    -0.268 N 
ATOM      5  N   UNN dAMED       3.630   1.174   0.715  0.00  0.00    -0.142 NA
ATOM      6  N   UNN dAMED      -3.616  -0.881   0.700  0.00  0.00    -0.142 NA
ATOM      7  H   UNN dAMED      -3.469   1.993  -0.604  0.00  0.00     0.185 HD
ATOM      8  N   UNN dAMED      -3.688   1.091  -0.197  0.00  0.00    -0.268 N 
ATOM      9  N   UNN dAMED      -4.917  -0.463   0.544  0.00  0.00     0.018 NA
ATOM     10  N   UNN dAMED      -4.967   0.744  -0.002  0.00  0.00    -0.005 NA
ATOM     11  C   UNN dAMED      -2.857   0.093   0.235  0.00  0.00     0.169 A 
ATOM     12  C   UNN dAMED      -1.412   0.150   0.184  0.00  0.00     0.036 A 
ATOM     13  C   UNN dAMED      -0.707  -0.607  -0.751  0.00  0.00     0.003 A 
ATOM     14  C   UNN dAMED       0.689  -0.560  -0.787  0.00  0.00     0.003 A 
ATOM     15  C   UNN dAMED      -0.709   0.945   1.089  0.00  0.00     0.003 A 
ATOM     16  C   UNN dAMED       1.399   0.238   0.114  0.00  0.00     0.036 A 
ATOM     17  C   UNN dAMED       0.685   0.989   1.051  0.00  0.00     0.003 A 
ATOM     18  C   UNN dAMED       2.852   0.308   0.090  0.00  0.00     0.169 A 
ENDROOT
TORSDOF 0
