REMARK  4 active torsions:
REMARK  status: ('A' for Active; 'I' for Inactive)
REMARK    1  A    between atoms: C_2  and  C_14 
REMARK    2  A    between atoms: N_4  and  C_18 
REMARK    3  A    between atoms: C_5  and  C_17 
REMARK    4  A    between atoms: C_6  and  C_18 
ROOT
ATOM      1  N   UNN dAMED       3.422  -0.143   0.170  0.00  0.00    -0.232 NA
ATOM      2  C   UNN dAMED       2.395   0.661   0.324  0.00  0.00     0.119 A 
ATOM      3  C   UNN dAMED       2.904  -1.406   0.350  0.00  0.00     0.110 A 
ATOM      4  N   UNN dAMED       1.260  -0.026   0.618  0.00  0.00    -0.194 NA
ATOM      5  C   UNN dAMED       1.552  -1.358   0.623  0.00  0.00     0.075 A 
ENDROOT
BRANCH   4   6
ATOM      6  C   UNN dAMED       0.232   0.201  -0.353  0.00  0.00     0.058 C 
BRANCH   6   7
ATOM      7  C   UNN dAMED      -0.388   1.545  -0.668  0.00  0.00     0.033 A 
ATOM      8  C   UNN dAMED      -1.231   2.194   0.230  0.00  0.00     0.059 A 
ATOM      9 CL   UNN dAMED      -1.560   1.505   1.766  0.00  0.00    -0.082 Cl
ATOM     10  C   UNN dAMED      -1.832   3.403  -0.113  0.00  0.00     0.011 A 
ATOM     11  C   UNN dAMED      -1.595   3.965  -1.366  0.00  0.00     0.002 A 
ATOM     12  C   UNN dAMED      -0.766   3.315  -2.277  0.00  0.00     0.011 A 
ATOM     13  C   UNN dAMED      -0.170   2.109  -1.923  0.00  0.00     0.059 A 
ATOM     14 CL   UNN dAMED       0.831   1.294  -3.053  0.00  0.00    -0.082 Cl
ENDBRANCH   6   7
ENDBRANCH   4   6
BRANCH   2  15
ATOM     15  C   UNN dAMED       2.362   2.026  -0.297  0.00  0.00    -0.015 C 
ATOM     16  C   UNN dAMED       2.271   2.179  -1.819  0.00  0.00     0.029 C 
ATOM     17  C   UNN dAMED       2.333   3.268   0.600  0.00  0.00     0.029 C 
ENDBRANCH   2  15
BRANCH   5  18
ATOM     18  C   UNN dAMED       0.615  -2.368   0.012  0.00  0.00     0.222 C 
ATOM     19  O   UNN dAMED      -0.609  -2.626   0.571  0.00  0.00    -0.214 OA
ENDBRANCH   5  18
TORSDOF 4
