REMARK  1 active torsions:
REMARK  status: ('A' for Active; 'I' for Inactive)
REMARK    1  A    between atoms: C_4  and  P_18 
ROOT
ATOM      1  O   UNN dAMED      -0.238  -0.718   0.095  0.00  0.00    -0.307 OA
ATOM      2  C   UNN dAMED      -1.239   1.278  -0.114  0.00  0.00     0.036 A 
ATOM      3  C   UNN dAMED      -1.438  -0.076   0.018  0.00  0.00     0.100 A 
ATOM      4  C   UNN dAMED       0.164   1.476  -0.142  0.00  0.00     0.116 A 
ATOM      5  C   UNN dAMED      -2.612  -0.915   0.080  0.00  0.00     0.023 A 
ATOM      6  C   UNN dAMED      -2.838  -1.886  -0.898  0.00  0.00     0.002 A 
ATOM      7  C   UNN dAMED      -3.973  -2.694  -0.840  0.00  0.00     0.000 A 
ATOM      8  C   UNN dAMED      -4.894  -2.527   0.190  0.00  0.00     0.000 A 
ATOM      9  C   UNN dAMED      -3.541  -0.751   1.108  0.00  0.00     0.002 A 
ATOM     10  C   UNN dAMED       0.750   0.229  -0.008  0.00  0.00     0.109 A 
ATOM     11  C   UNN dAMED       2.110  -0.288   0.045  0.00  0.00     0.023 A 
ATOM     12  C   UNN dAMED      -4.680  -1.553   1.163  0.00  0.00     0.000 A 
ATOM     13  C   UNN dAMED       2.367  -1.653  -0.113  0.00  0.00     0.002 A 
ATOM     14  C   UNN dAMED       3.196   0.564   0.255  0.00  0.00     0.002 A 
ATOM     15  C   UNN dAMED       4.503   0.082   0.285  0.00  0.00     0.000 A 
ATOM     16  C   UNN dAMED       3.670  -2.149  -0.063  0.00  0.00     0.000 A 
ATOM     17  C   UNN dAMED       4.739  -1.279   0.129  0.00  0.00     0.000 A 
ENDROOT
BRANCH   4  18
ATOM     18  P   UNN dAMED       0.962   3.083  -0.291  0.00  0.00     0.299 P 
ATOM     19  O   UNN dAMED       1.952   2.733  -1.385  0.00  0.00    -0.636 OA
ATOM     20  O   UNN dAMED       1.456   3.184   1.141  0.00  0.00    -0.636 OA
ATOM     21  O   UNN dAMED      -0.251   3.905  -0.684  0.00  0.00    -0.636 OA
ENDBRANCH   4  18
TORSDOF 1
