REMARK  0 active torsions:
REMARK  status: ('A' for Active; 'I' for Inactive)
ROOT
ATOM      1  C   UNN dAMED       2.751  -2.088  -0.325  0.00  0.00     0.001 C 
ATOM      2  O   UNN dAMED       0.016  -1.428  -0.814  0.00  0.00    -0.309 OA
ATOM      3  O   UNN dAMED       0.052  -1.326   1.495  0.00  0.00    -0.260 OA
ATOM      4  N   UNN dAMED      -3.640  -1.047  -0.760  0.00  0.00     0.137 N 
ATOM      5  O   UNN dAMED      -0.075   1.844   0.592  0.00  0.00    -0.295 OA
ATOM      6  O   UNN dAMED      -0.013   2.648  -1.509  0.00  0.00    -0.262 OA
ATOM      7  C   UNN dAMED       2.792   1.399  -0.454  0.00  0.00     0.042 C 
ATOM      8  C   UNN dAMED       2.038   2.657  -0.246  0.00  0.00     0.204 C 
ATOM      9  C   UNN dAMED       2.686   0.205   0.622  0.00  0.00     0.034 C 
ATOM     10  C   UNN dAMED       0.566   2.393  -0.463  0.00  0.00     0.300 C 
ATOM     11  C   UNN dAMED       2.044  -1.097   0.227  0.00  0.00     0.026 C 
ATOM     12  C   UNN dAMED       0.598  -1.316   0.401  0.00  0.00     0.290 C 
ATOM     13  C   UNN dAMED      -1.402   1.791   0.176  0.00  0.00     0.175 C 
ATOM     14  C   UNN dAMED      -2.150   0.487   0.194  0.00  0.00     0.007 C 
ATOM     15  C   UNN dAMED      -2.285  -0.439  -1.003  0.00  0.00     0.289 C 
ATOM     16  C   UNN dAMED      -3.203   0.492   1.011  0.00  0.00     0.004 C 
ATOM     17  C   UNN dAMED      -1.388  -1.680  -0.865  0.00  0.00     0.183 C 
ATOM     18  C   UNN dAMED      -1.989  -2.362   0.377  0.00  0.00     0.058 C 
ATOM     19  C   UNN dAMED      -4.166  -0.562   0.522  0.00  0.00     0.276 C 
ATOM     20  C   UNN dAMED      -3.491  -2.115   0.253  0.00  0.00     0.252 C 
ATOM     21  C   UNN dAMED       2.081  -3.391  -0.662  0.00  0.00     0.018 C 
ATOM     22  C   UNN dAMED       2.701   0.377   0.468  0.00  0.00     0.003 C 
ATOM     23  O   UNN dAMED       2.323   3.133   0.937  0.00  0.00    -0.216 OA
ATOM     24  C   UNN dAMED       2.457   3.672  -1.303  0.00  0.00     0.043 C 
ENDROOT
TORSDOF 0
