REMARK  0 active torsions:
REMARK  status: ('A' for Active; 'I' for Inactive)
ROOT
ATOM      1 CL   UNN dAMED      -7.011   2.094   0.729  0.00  0.00    -0.082 Cl
ATOM      2  C   UNN dAMED      -5.712   1.008   0.437  0.00  0.00     0.058 A 
ATOM      3  C   UNN dAMED      -5.996  -0.328   0.158  0.00  0.00     0.013 A 
ATOM      4  C   UNN dAMED      -4.399   1.486   0.483  0.00  0.00     0.013 A 
ATOM      5  C   UNN dAMED      -4.977  -1.252  -0.091  0.00  0.00     0.026 A 
ATOM      6  C   UNN dAMED      -3.360   0.576   0.235  0.00  0.00     0.026 A 
ATOM      7  C   UNN dAMED      -3.677  -0.748  -0.042  0.00  0.00     0.100 A 
ATOM      8  C   UNN dAMED      -1.947   0.647   0.185  0.00  0.00     0.028 A 
ATOM      9  O   UNN dAMED      -2.541  -1.472  -0.259  0.00  0.00    -0.306 OA
ATOM     10  C   UNN dAMED      -1.483  -0.618  -0.121  0.00  0.00     0.118 A 
ATOM     11  C   UNN dAMED       0.951  -0.076  -0.397  0.00  0.00     0.058 A 
ATOM     12  C   UNN dAMED      -0.057  -1.001  -0.284  0.00  0.00     0.111 A 
ATOM     13  N   UNN dAMED       0.357  -2.321  -0.341  0.00  0.00    -0.236 NA
ATOM     14  S   UNN dAMED       2.455  -0.837  -0.582  0.00  0.00    -0.066 SA
ATOM     15  C   UNN dAMED       1.670  -2.377  -0.497  0.00  0.00     0.111 A 
ATOM     16  C   UNN dAMED       2.448  -3.611  -0.634  0.00  0.00     0.024 A 
ATOM     17  C   UNN dAMED       1.902  -4.696  -1.328  0.00  0.00     0.003 A 
ATOM     18  C   UNN dAMED       3.724  -3.749  -0.074  0.00  0.00     0.003 A 
ATOM     19  C   UNN dAMED       4.450  -4.932  -0.227  0.00  0.00     0.011 A 
ATOM     20  C   UNN dAMED       2.618  -5.885  -1.477  0.00  0.00     0.011 A 
ATOM     21  C   UNN dAMED       3.891  -5.994  -0.930  0.00  0.00     0.058 A 
ATOM     22 CL   UNN dAMED       4.783  -7.447  -1.128  0.00  0.00    -0.082 Cl
ENDROOT
TORSDOF 0
