REMARK  8 active torsions:
REMARK  status: ('A' for Active; 'I' for Inactive)
REMARK    1  A    between atoms: N_1  and  C_2 
REMARK    2  A    between atoms: N_1  and  C_12 
REMARK    3  A    between atoms: N_1  and  C_14 
REMARK    4  A    between atoms: C_2  and  O_4 
REMARK    5  A    between atoms: O_4  and  C_5 
REMARK    6  A    between atoms: N_6  and  C_16 
REMARK    7  A    between atoms: C_16  and  C_17 
REMARK    8  A    between atoms: C_17  and  C_18 
ROOT
ATOM      1  C   UNN dAMED       0.460  -0.839  -0.009  0.00  0.00     0.169 C 
ATOM      2  N   UNN dAMED       1.793  -0.642  -0.096  0.00  0.00    -0.285 N 
ATOM      3  C   UNN dAMED       0.042  -2.059   0.311  0.00  0.00     0.058 C 
ATOM      4  C   UNN dAMED       2.739  -1.629  -0.114  0.00  0.00     0.203 C 
ATOM      5  S   UNN dAMED       4.313  -1.216  -0.545  0.00  0.00    -0.038 SA
ATOM      6  N   UNN dAMED       2.357  -2.914   0.225  0.00  0.00    -0.223 NA
ATOM      7  C   UNN dAMED       1.101  -3.130   0.466  0.00  0.00     0.065 C 
ATOM      8  C   UNN dAMED       0.631  -4.507   0.832  0.00  0.00     0.052 C 
ENDROOT
BRANCH   1   9
ATOM      9  O   UNN dAMED      -0.404   0.236  -0.212  0.00  0.00    -0.266 OA
BRANCH   9  10
ATOM     10  C   UNN dAMED      -1.726   0.025   0.072  0.00  0.00     0.224 C 
ATOM     11  S   UNN dAMED      -2.528  -1.428  -0.086  0.00  0.00    -0.032 SA
BRANCH  10  12
ATOM     12  N   UNN dAMED      -2.356   1.160   0.497  0.00  0.00    -0.303 N 
BRANCH  12  13
ATOM     13  C   UNN dAMED      -3.718   0.812   0.598  0.00  0.00     0.109 C 
ATOM     14  C   UNN dAMED      -4.164  -0.276   1.582  0.00  0.00     0.027 C 
ENDBRANCH  12  13
BRANCH  12  15
ATOM     15  C   UNN dAMED      -1.342   1.973   1.041  0.00  0.00     0.052 C 
ATOM     16  C   UNN dAMED      -1.599   3.462   1.280  0.00  0.00     0.051 C 
ENDBRANCH  12  15
ENDBRANCH  10  12
ENDBRANCH   9  10
ENDBRANCH   1   9
BRANCH   2  17
ATOM     17  C   UNN dAMED       2.189   0.516  -0.808  0.00  0.00     0.110 C 
BRANCH  17  18
ATOM     18  C   UNN dAMED       2.427   1.834  -0.069  0.00  0.00     0.025 C 
BRANCH  18  19
ATOM     19  C   UNN dAMED       3.122   1.830   1.296  0.00  0.00     0.002 C 
ATOM     20  C   UNN dAMED       2.912   0.657   2.259  0.00  0.00     0.000 C 
ENDBRANCH  18  19
ENDBRANCH  17  18
ENDBRANCH   2  17
TORSDOF 8
