REMARK  2 active torsions:
REMARK  status: ('A' for Active; 'I' for Inactive)
REMARK    1  A    between atoms: C_6  and  O_21 
REMARK    2  A    between atoms: C_20  and  N_24 
ROOT
ATOM      1  C   UNN dAMED      -5.739  -1.120   0.528  0.00  0.00     0.000 A 
ATOM      2  C   UNN dAMED      -6.406  -0.199  -0.276  0.00  0.00     0.002 A 
ATOM      3  C   UNN dAMED      -4.369  -0.990   0.753  0.00  0.00     0.004 A 
ATOM      4  C   UNN dAMED      -5.705   0.851  -0.863  0.00  0.00     0.024 A 
ATOM      5  C   UNN dAMED      -3.659   0.060   0.171  0.00  0.00     0.048 A 
ATOM      6  C   UNN dAMED      -4.338   0.965  -0.639  0.00  0.00     0.096 A 
ATOM      7  C   UNN dAMED      -2.148   0.117   0.334  0.00  0.00     0.144 A 
ATOM      8  O   UNN dAMED      -1.326  -0.768  -0.371  0.00  0.00    -0.285 OA
ATOM      9  C   UNN dAMED      -1.350   1.198   1.007  0.00  0.00     0.237 A 
ATOM     10  C   UNN dAMED      -0.065  -0.290  -0.163  0.00  0.00     0.202 A 
ATOM     11  C   UNN dAMED      -0.085   0.947   0.656  0.00  0.00     0.140 A 
ATOM     12  H   UNN dAMED       1.163   2.360   1.470  0.00  0.00     0.166 HD
ATOM     13  N   UNN dAMED       0.986  -0.877  -0.633  0.00  0.00    -0.219 NA
ATOM     14  N   UNN dAMED       1.119   1.530   0.894  0.00  0.00    -0.347 N 
ATOM     15  C   UNN dAMED       2.227  -0.263  -0.332  0.00  0.00     0.101 A 
ATOM     16  C   UNN dAMED       2.303   0.940   0.420  0.00  0.00     0.075 A 
ATOM     17  C   UNN dAMED       3.401  -0.862  -0.787  0.00  0.00     0.044 A 
ATOM     18  C   UNN dAMED       3.544   1.538   0.670  0.00  0.00     0.020 A 
ATOM     19  C   UNN dAMED       4.715   0.947   0.208  0.00  0.00     0.025 A 
ATOM     20  C   UNN dAMED       4.613  -0.243  -0.503  0.00  0.00     0.128 A 
ATOM     21  O   UNN dAMED      -1.918   2.064   1.718  0.00  0.00    -0.283 OA
ENDROOT
BRANCH   6  22
ATOM     22  O   UNN dAMED      -3.660   1.986  -1.233  0.00  0.00    -0.328 OA
ATOM     23  C   UNN dAMED      -4.629   2.955  -1.508  0.00  0.00     0.181 C 
ENDBRANCH   6  22
BRANCH  20  24
ATOM     24  N   UNN dAMED       5.820  -0.882  -0.936  0.00  0.00    -0.114 N 
ATOM     25  O   UNN dAMED       6.413  -1.580  -0.104  0.00  0.00    -0.532 OA
ATOM     26  O   UNN dAMED       6.171  -0.684  -2.106  0.00  0.00    -0.532 OA
ENDBRANCH  20  24
TORSDOF 2
