REMARK  6 active torsions:
REMARK  status: ('A' for Active; 'I' for Inactive)
REMARK    1  A    between atoms: C_2  and  C_19 
REMARK    2  A    between atoms: N_5  and  C_19 
REMARK    3  A    between atoms: N_9  and  C_20 
REMARK    4  A    between atoms: N_11  and  C_21 
REMARK    5  A    between atoms: C_12  and  C_20 
REMARK    6  A    between atoms: C_16  and  C_21 
ROOT
ATOM      1  O   UNN dAMED      -0.588   0.789  -1.986  0.00  0.00    -0.246 OA
ATOM      2  N   UNN dAMED      -0.765   3.064  -1.555  0.00  0.00    -0.213 N 
ATOM      3  C   UNN dAMED      -0.972   1.713  -1.272  0.00  0.00     0.342 C 
ATOM      4  O   UNN dAMED      -1.695   5.178  -1.776  0.00  0.00    -0.246 OA
ATOM      5  C   UNN dAMED      -1.564   4.134  -1.141  0.00  0.00     0.342 C 
ATOM      6  N   UNN dAMED      -1.831   1.548  -0.183  0.00  0.00    -0.232 N 
ATOM      7  C   UNN dAMED      -2.708   2.499   0.344  0.00  0.00     0.338 C 
ATOM      8  N   UNN dAMED      -2.347   3.793  -0.036  0.00  0.00    -0.232 N 
ATOM      9  O   UNN dAMED      -3.770   2.219   0.896  0.00  0.00    -0.246 OA
ENDROOT
BRANCH   2  10
ATOM     10  C   UNN dAMED      -0.303   3.246  -2.891  0.00  0.00     0.094 C 
BRANCH  10  11
ATOM     11  C   UNN dAMED      -1.251   3.197  -4.102  0.00  0.00     0.184 A 
ATOM     12  O   UNN dAMED      -2.634   3.097  -3.942  0.00  0.00    -0.345 OA
ATOM     13  C   UNN dAMED      -2.043   1.924  -4.407  0.00  0.00     0.178 A 
ENDBRANCH  10  11
ENDBRANCH   2  10
BRANCH   8  14
ATOM     14  C   UNN dAMED      -3.451   4.679   0.083  0.00  0.00     0.147 C 
BRANCH  14  15
ATOM     15  C   UNN dAMED      -4.874   4.115   0.152  0.00  0.00     0.168 A 
ATOM     16  O   UNN dAMED      -5.684   4.138  -0.983  0.00  0.00    -0.349 OA
ATOM     17  C   UNN dAMED      -6.076   5.048  -0.002  0.00  0.00     0.174 A 
ENDBRANCH  14  15
ENDBRANCH   8  14
BRANCH   6  18
ATOM     18  C   UNN dAMED      -2.426   0.259  -0.205  0.00  0.00     0.147 C 
BRANCH  18  19
ATOM     19  C   UNN dAMED      -3.610  -0.057   0.718  0.00  0.00     0.168 A 
ATOM     20  O   UNN dAMED      -3.474  -1.023   1.714  0.00  0.00    -0.349 OA
ATOM     21  C   UNN dAMED      -3.536   0.278   2.208  0.00  0.00     0.174 A 
ENDBRANCH  18  19
ENDBRANCH   6  18
TORSDOF 6
