REMARK  1 active torsions:
REMARK  status: ('A' for Active; 'I' for Inactive)
REMARK    1  A    between atoms: C_10  and  C_17 
ROOT
ATOM      1  N   UNN dAMED      -2.590   0.769  -1.182  0.00  0.00    -0.184 NA
ATOM      2  N   UNN dAMED      -3.126  -0.526   0.751  0.00  0.00    -0.223 NA
ATOM      3  N   UNN dAMED      -0.783  -0.122   0.047  0.00  0.00    -0.287 N 
ATOM      4  C   UNN dAMED      -1.318   0.586  -0.997  0.00  0.00     0.222 C 
ATOM      5  C   UNN dAMED       1.046  -1.259   1.187  0.00  0.00     0.017 A 
ATOM      6  C   UNN dAMED       0.580  -0.377   0.204  0.00  0.00     0.063 A 
ATOM      7  C   UNN dAMED       2.406  -1.503   1.364  0.00  0.00     0.001 A 
ATOM      8  C   UNN dAMED       3.333  -0.859   0.554  0.00  0.00    -0.002 A 
ATOM      9  C   UNN dAMED       1.535   0.261  -0.597  0.00  0.00     0.015 A 
ATOM     10  C   UNN dAMED       2.899   0.018  -0.433  0.00  0.00     0.018 A 
ATOM     11  C   UNN dAMED      -1.707  -0.820   0.907  0.00  0.00     0.158 C 
ATOM     12  C   UNN dAMED      -3.454   0.217  -0.255  0.00  0.00     0.237 C 
ATOM     13  N   UNN dAMED      -4.841   0.491  -0.431  0.00  0.00    -0.060 NA
ATOM     14  N   UNN dAMED      -0.419   1.179  -1.928  0.00  0.00    -0.061 NA
ATOM     15  C   UNN dAMED      -1.290  -0.623   2.374  0.00  0.00     0.048 C 
ATOM     16  C   UNN dAMED      -1.479  -2.338   0.795  0.00  0.00     0.048 C 
ENDROOT
BRANCH  10  17
ATOM     17  C   UNN dAMED       3.898   0.860  -1.173  0.00  0.00     0.365 C 
ATOM     18  N   UNN dAMED       4.021   2.273  -0.857  0.00  0.00     0.623 N 
ENDBRANCH  10  17
TORSDOF 1
