REMARK  1 active torsions:
REMARK  status: ('A' for Active; 'I' for Inactive)
REMARK    1  A    between atoms: C_11  and  C_15 
ROOT
ATOM      1  O   UNN dAMED      -3.520   1.551  -0.335  0.00  0.00    -0.246 OA
ATOM      2  N   UNN dAMED      -2.453  -0.487   0.021  0.00  0.00    -0.246 N 
ATOM      3  O   UNN dAMED      -1.453  -2.584  -0.112  0.00  0.00    -0.265 OA
ATOM      4  N   UNN dAMED      -1.241   1.503   0.081  0.00  0.00    -0.263 N 
ATOM      5  N   UNN dAMED       1.165  -1.015   0.023  0.00  0.00    -0.333 N 
ATOM      6  H   UNN dAMED       1.512  -1.964  -0.008  0.00  0.00     0.168 HD
ATOM      7  N   UNN dAMED       1.196   1.231   0.060  0.00  0.00    -0.210 NA
ATOM      8  C   UNN dAMED      -1.366  -1.366  -0.007  0.00  0.00     0.283 C 
ATOM      9  C   UNN dAMED      -0.140  -0.616   0.040  0.00  0.00     0.149 A 
ATOM     10  C   UNN dAMED      -0.083   0.762   0.069  0.00  0.00     0.169 A 
ATOM     11  C   UNN dAMED       1.916   0.130   0.041  0.00  0.00     0.135 A 
ATOM     12  C   UNN dAMED      -2.496   0.918  -0.087  0.00  0.00     0.335 C 
ATOM     13  C   UNN dAMED      -3.663  -1.102  -0.394  0.00  0.00     0.139 C 
ATOM     14  C   UNN dAMED      -1.118   2.759  -0.568  0.00  0.00     0.137 C 
ENDROOT
BRANCH  11  15
ATOM     15  C   UNN dAMED       3.415   0.130   0.020  0.00  0.00    -0.010 C 
ATOM     16  C   UNN dAMED       4.167   1.429  -0.287  0.00  0.00     0.029 C 
ATOM     17  C   UNN dAMED       4.182  -1.085   0.551  0.00  0.00     0.029 C 
ENDBRANCH  11  15
TORSDOF 1
