REMARK  4 active torsions:
REMARK  status: ('A' for Active; 'I' for Inactive)
REMARK    1  A    between atoms: O_1  and  C_10 
REMARK    2  A    between atoms: O_1  and  C_12 
REMARK    3  A    between atoms: C_4  and  N_9 
REMARK       I    between atoms: N_9  and  C_10 
REMARK    4  A    between atoms: C_12  and  C_13 
ROOT
ATOM      1  C   UNN dAMED      -1.535  -4.392  -4.075  0.00  0.00    -0.075 C 
ATOM      2  C   UNN dAMED      -1.914  -4.024  -2.722  0.00  0.00     0.110 C 
ATOM      3  C   UNN dAMED      -1.232  -4.698  -5.195  0.00  0.00    -0.014 C 
ENDROOT
BRANCH   2   4
ATOM      4  C   UNN dAMED      -0.850  -3.888  -1.629  0.00  0.00     0.168 C 
BRANCH   4   5
ATOM      5  O   UNN dAMED      -1.051  -2.998  -0.571  0.00  0.00    -0.282 OA
BRANCH   5   6
ATOM      6  C   UNN dAMED      -0.974  -1.760  -1.141  0.00  0.00     0.388 C 
ATOM      7  N   UNN dAMED      -2.176  -1.191  -1.210  0.00  0.00    -0.186 NA
ATOM      8  O   UNN dAMED       0.078  -1.343  -1.614  0.00  0.00    -0.236 OA
BRANCH   7   9
ATOM      9  C   UNN dAMED      -2.403  -0.310  -0.212  0.00  0.00     0.087 A 
ATOM     10  C   UNN dAMED      -2.327   1.070  -0.436  0.00  0.00     0.019 A 
ATOM     11  C   UNN dAMED      -2.645   1.991   0.563  0.00  0.00     0.002 A 
ATOM     12  C   UNN dAMED      -3.061   1.543   1.812  0.00  0.00     0.000 A 
ATOM     13  C   UNN dAMED      -3.171   0.178   2.054  0.00  0.00     0.002 A 
ATOM     14  C   UNN dAMED      -2.855  -0.733   1.046  0.00  0.00     0.019 A 
ENDBRANCH   7   9
ENDBRANCH   5   6
ENDBRANCH   4   5
ENDBRANCH   2   4
TORSDOF 4
