REMARK  4 active torsions:
REMARK  status: ('A' for Active; 'I' for Inactive)
REMARK    1  A    between atoms: C_1  and  C_6 
REMARK       I    between atoms: C_1  and  N_20 
REMARK    2  A    between atoms: C_3  and  C_8 
REMARK       I    between atoms: C_8  and  N_10 
REMARK    3  A    between atoms: N_10  and  C_11 
REMARK    4  A    between atoms: C_16  and  N_20 
ROOT
ATOM      1  C   UNN dAMED      -0.603   0.261  -0.946  0.00  0.00     0.005 A 
ATOM      2  C   UNN dAMED      -1.135  -0.437   0.141  0.00  0.00     0.058 A 
ATOM      3  C   UNN dAMED       0.731   0.047  -1.315  0.00  0.00     0.005 A 
ATOM      4  C   UNN dAMED      -0.345  -1.314   0.878  0.00  0.00     0.005 A 
ATOM      5  C   UNN dAMED       1.522  -0.853  -0.593  0.00  0.00     0.058 A 
ATOM      6  C   UNN dAMED       0.979  -1.520   0.508  0.00  0.00     0.005 A 
ENDROOT
BRANCH   2   7
ATOM      7  C   UNN dAMED      -2.544  -0.262   0.544  0.00  0.00     0.275 C 
ATOM      8  O   UNN dAMED      -2.879   0.808   1.044  0.00  0.00    -0.266 OA
ATOM      9  N   UNN dAMED      -3.324  -1.306   0.270  0.00  0.00    -0.238 NA
BRANCH   9  10
ATOM     10  C   UNN dAMED      -3.754  -1.962   1.491  0.00  0.00     0.088 C 
ATOM     11  C   UNN dAMED      -2.597  -1.885   2.575  0.00  0.00     0.025 C 
ATOM     12  C   UNN dAMED      -3.667  -3.473   1.327  0.00  0.00     0.025 C 
ATOM     13  C   UNN dAMED      -3.906  -0.926   2.627  0.00  0.00     0.025 C 
ENDBRANCH   9  10
ENDBRANCH   2   7
BRANCH   5  14
ATOM     14  C   UNN dAMED       2.935  -1.106  -0.997  0.00  0.00     0.275 C 
ATOM     15  O   UNN dAMED       3.511  -0.279  -1.699  0.00  0.00    -0.266 OA
ATOM     16  N   UNN dAMED       3.473  -2.230  -0.521  0.00  0.00    -0.238 NA
BRANCH  16  17
ATOM     17  C   UNN dAMED       3.381  -3.271  -1.532  0.00  0.00     0.088 C 
ATOM     18  C   UNN dAMED       4.357  -4.722  -0.939  0.00  0.00     0.025 C 
ATOM     19  C   UNN dAMED       4.357  -4.721  -0.939  0.00  0.00     0.025 C 
ATOM     20  C   UNN dAMED       4.357  -4.722  -0.939  0.00  0.00     0.025 C 
ENDBRANCH  16  17
ENDBRANCH   5  14
TORSDOF 4
