REMARK  4 active torsions:
REMARK  status: ('A' for Active; 'I' for Inactive)
REMARK    1  A    between atoms: C_3  and  C_23 
REMARK    2  A    between atoms: C_8  and  N_24 
REMARK    3  A    between atoms: C_9  and  N_24 
REMARK    4  A    between atoms: C_23  and  C_26 
ROOT
ATOM      1  O   UNN dAMED      -1.412   2.334  -0.106  0.00  0.00    -0.286 OA
ATOM      2  O   UNN dAMED      -4.360  -2.083   0.206  0.00  0.00    -0.286 OA
ATOM      3  C   UNN dAMED       0.078  -0.117   0.004  0.00  0.00     0.085 A 
ATOM      4  C   UNN dAMED       0.654  -1.375   0.176  0.00  0.00     0.022 A 
ATOM      5  C   UNN dAMED      -1.340  -0.054  -0.014  0.00  0.00     0.063 A 
ATOM      6  C   UNN dAMED      -2.024   1.273  -0.136  0.00  0.00     0.197 A 
ATOM      7  C   UNN dAMED      -3.479   1.331  -0.295  0.00  0.00     0.042 A 
ATOM      8  C   UNN dAMED      -4.092   2.566  -0.520  0.00  0.00     0.003 A 
ATOM      9  C   UNN dAMED      -5.475   2.645  -0.663  0.00  0.00     0.000 A 
ATOM     10  C   UNN dAMED      -0.122  -2.526   0.245  0.00  0.00     0.044 A 
ATOM     11  C   UNN dAMED      -2.122  -1.243   0.067  0.00  0.00     0.082 A 
ATOM     12  C   UNN dAMED      -4.245   0.182  -0.211  0.00  0.00     0.042 A 
ATOM     13  C   UNN dAMED      -6.247   1.490  -0.574  0.00  0.00     0.000 A 
ATOM     14  C   UNN dAMED      -1.523  -2.538   0.177  0.00  0.00     0.199 A 
ATOM     15  C   UNN dAMED      -3.620  -1.122   0.032  0.00  0.00     0.199 A 
ATOM     16  C   UNN dAMED      -5.633   0.261  -0.347  0.00  0.00     0.003 A 
ATOM     17  O   UNN dAMED      -2.137  -3.657   0.211  0.00  0.00    -0.286 OA
ENDROOT
BRANCH   3  18
ATOM     18  N   UNN dAMED       0.901   0.955  -0.094  0.00  0.00    -0.245 NA
BRANCH  18  19
ATOM     19  C   UNN dAMED       1.405   1.207  -1.330  0.00  0.00     0.081 A 
ATOM     20  C   UNN dAMED       0.824   0.782  -2.538  0.00  0.00     0.019 A 
ATOM     21  C   UNN dAMED       1.361   1.116  -3.780  0.00  0.00    -0.003 A 
ATOM     22  C   UNN dAMED       2.493   1.918  -3.842  0.00  0.00    -0.019 A 
ATOM     23  C   UNN dAMED       3.090   2.369  -2.671  0.00  0.00    -0.003 A 
ATOM     24  C   UNN dAMED       2.547   2.012  -1.436  0.00  0.00     0.019 A 
BRANCH  22  25
ATOM     25  C   UNN dAMED       3.045   2.327  -5.177  0.00  0.00     0.062 C 
BRANCH  25  26
ATOM     26  C   UNN dAMED       2.777   1.453  -6.407  0.00  0.00     0.187 C 
ATOM     27  O   UNN dAMED       3.576   1.559  -7.511  0.00  0.00    -0.220 OA
ENDBRANCH  25  26
ENDBRANCH  22  25
ENDBRANCH  18  19
ENDBRANCH   3  18
TORSDOF 4
