REMARK  0 active torsions:
REMARK  status: ('A' for Active; 'I' for Inactive)
ROOT
ATOM      1  N   UNN dAMED       2.828  -1.317  -0.777  0.00  0.00    -0.242 NA
ATOM      2  N   UNN dAMED       0.185  -0.362  -0.476  0.00  0.00    -0.139 NA
ATOM      3  S   UNN dAMED       0.788   1.471   1.192  0.00  0.00    -0.042 SA
ATOM      4  N   UNN dAMED      -1.017   0.200  -0.080  0.00  0.00    -0.139 NA
ATOM      5  N   UNN dAMED      -1.719   3.269   1.581  0.00  0.00    -0.242 NA
ATOM      6  C   UNN dAMED      -0.856   1.179   0.787  0.00  0.00     0.151 A 
ATOM      7  C   UNN dAMED      -1.932   1.942   1.407  0.00  0.00     0.107 A 
ATOM      8  C   UNN dAMED      -3.118   1.311   1.756  0.00  0.00     0.021 A 
ATOM      9  C   UNN dAMED      -4.133   2.080   2.315  0.00  0.00     0.003 A 
ATOM     10  C   UNN dAMED      -2.724   3.980   2.143  0.00  0.00     0.099 A 
ATOM     11  C   UNN dAMED      -3.941   3.439   2.521  0.00  0.00     0.021 A 
ATOM     12  C   UNN dAMED       1.226   0.214   0.095  0.00  0.00     0.151 A 
ATOM     13  C   UNN dAMED       2.627  -0.142  -0.134  0.00  0.00     0.107 A 
ATOM     14  C   UNN dAMED       3.675   0.679   0.270  0.00  0.00     0.021 A 
ATOM     15  C   UNN dAMED       4.980   0.274   0.019  0.00  0.00     0.003 A 
ATOM     16  C   UNN dAMED       5.215  -0.926  -0.636  0.00  0.00     0.021 A 
ATOM     17  C   UNN dAMED       4.113  -1.675  -1.013  0.00  0.00     0.099 A 
ENDROOT
TORSDOF 0
