REMARK  2 active torsions:
REMARK  status: ('A' for Active; 'I' for Inactive)
REMARK    1  A    between atoms: C_21  and  O_24 
REMARK    2  A    between atoms: O_24  and  C_25 
ROOT
ATOM      1  O   UNN dAMED       1.179  -2.765  -0.099  0.00  0.00    -0.296 OA
ATOM      2  O   UNN dAMED       4.539  -2.260  -0.195  0.00  0.00    -0.292 OA
ATOM      3  C   UNN dAMED       5.883  -0.391  -0.662  0.00  0.00     0.029 C 
ATOM      4  C   UNN dAMED       4.558  -1.038  -0.291  0.00  0.00     0.166 C 
ATOM      5  C   UNN dAMED       6.020   0.932  -0.930  0.00  0.00    -0.042 C 
ATOM      6  C   UNN dAMED       4.747   1.679  -0.921  0.00  0.00     0.016 C 
ATOM      7  C   UNN dAMED       3.300  -0.212  -0.427  0.00  0.00     0.084 C 
ATOM      8  C   UNN dAMED       3.645   1.220   0.017  0.00  0.00     0.024 C 
ATOM      9  C   UNN dAMED       2.151  -0.676   0.480  0.00  0.00     0.047 C 
ATOM     10  C   UNN dAMED       1.202  -1.553  -0.299  0.00  0.00     0.149 C 
ATOM     11  C   UNN dAMED      -0.089  -0.902  -0.699  0.00  0.00     0.058 C 
ATOM     12  C   UNN dAMED       2.261   1.721   0.367  0.00  0.00    -0.011 C 
ATOM     13  C   UNN dAMED       1.492   0.596   1.064  0.00  0.00     0.019 C 
ATOM     14  C   UNN dAMED      -0.841  -0.314   0.484  0.00  0.00     0.020 C 
ATOM     15  C   UNN dAMED      -0.009   0.845   1.001  0.00  0.00     0.009 C 
ATOM     16  C   UNN dAMED      -2.280   0.015   0.180  0.00  0.00    -0.010 C 
ATOM     17  C   UNN dAMED      -3.001  -1.112  -0.592  0.00  0.00     0.002 C 
ATOM     18  C   UNN dAMED      -4.450  -0.792  -0.953  0.00  0.00     0.030 C 
ATOM     19  C   UNN dAMED      -0.279   2.040   0.094  0.00  0.00    -0.007 C 
ATOM     20  C   UNN dAMED      -2.730   1.356  -0.372  0.00  0.00     0.021 C 
ATOM     21  C   UNN dAMED      -5.085   0.262  -0.049  0.00  0.00     0.124 C 
ATOM     22  C   UNN dAMED      -1.742   2.443   0.027  0.00  0.00    -0.006 C 
ATOM     23  C   UNN dAMED      -4.196   1.511   0.086  0.00  0.00     0.025 C 
ATOM     24  C   UNN dAMED      -3.129  -0.296   1.435  0.00  0.00    -0.001 C 
ATOM     25  C   UNN dAMED       2.746  -1.471   1.647  0.00  0.00     0.007 C 
ATOM     26  C   UNN dAMED       7.333   0.214  -0.971  0.00  0.00     0.026 C 
ENDROOT
BRANCH  21  27
ATOM     27  O   UNN dAMED      -5.779  -0.217   1.071  0.00  0.00    -0.304 OA
BRANCH  27  28
ATOM     28  C   UNN dAMED      -6.300   0.857   1.715  0.00  0.00     0.272 C 
ATOM     29  O   UNN dAMED      -6.197   2.007   1.307  0.00  0.00    -0.264 OA
ATOM     30  C   UNN dAMED      -7.049   0.615   2.997  0.00  0.00     0.106 C 
ENDBRANCH  27  28
ENDBRANCH  21  27
TORSDOF 2
