REMARK  1 active torsions:
REMARK  status: ('A' for Active; 'I' for Inactive)
REMARK    1  A    between atoms: C_10  and  C_11 
ROOT
ATOM      1  C   UNN dAMED      -3.254  -1.221   0.154  0.00  0.00     0.000 A 
ATOM      2  C   UNN dAMED      -3.572   0.065  -0.243  0.00  0.00     0.000 A 
ATOM      3  C   UNN dAMED      -1.919  -1.566   0.338  0.00  0.00     0.003 A 
ATOM      4  C   UNN dAMED      -2.550   0.984  -0.451  0.00  0.00     0.003 A 
ATOM      5  C   UNN dAMED      -0.855  -0.664   0.139  0.00  0.00     0.042 A 
ATOM      6  C   UNN dAMED      -1.189   0.667  -0.273  0.00  0.00     0.042 A 
ATOM      7  C   UNN dAMED      -0.200   1.656  -0.502  0.00  0.00     0.196 A 
ATOM      8  C   UNN dAMED       0.491  -1.090   0.352  0.00  0.00     0.199 A 
ATOM      9  C   UNN dAMED       1.107   1.215  -0.288  0.00  0.00     0.048 A 
ATOM     10  C   UNN dAMED       1.445  -0.080   0.116  0.00  0.00     0.077 A 
ATOM     11  O   UNN dAMED       0.794  -2.278   0.725  0.00  0.00    -0.286 OA
ATOM     12  O   UNN dAMED      -0.431   2.858  -0.869  0.00  0.00    -0.287 OA
ENDROOT
BRANCH  10  13
ATOM     13  C   UNN dAMED       2.908  -0.233   0.273  0.00  0.00     0.177 C 
ATOM     14  O   UNN dAMED       3.464  -1.287   0.535  0.00  0.00    -0.291 OA
ATOM     15  C   UNN dAMED       3.761   0.978   0.013  0.00  0.00     0.077 C 
ENDBRANCH  10  13
TORSDOF 1
