REMARK  4 active torsions:
REMARK  status: ('A' for Active; 'I' for Inactive)
REMARK    1  A    between atoms: C_4  and  C_5 
REMARK    2  A    between atoms: C_5  and  C_6 
REMARK    3  A    between atoms: C_6  and  C_7 
REMARK    4  A    between atoms: C_9  and  C_10 
ROOT
ATOM      1  C   UNN dAMED      -0.167  -0.737  -1.672  0.00  0.00     0.027 C 
ENDROOT
BRANCH   1   2
ATOM      2  C   UNN dAMED      -1.380  -0.939  -0.762  0.00  0.00     0.030 C 
BRANCH   2   3
ATOM      3  C   UNN dAMED      -2.366   0.213  -0.540  0.00  0.00    -0.034 C 
ATOM      4  C   UNN dAMED      -3.471   0.014   0.165  0.00  0.00    -0.048 C 
ATOM      5  C   UNN dAMED      -3.564   1.519  -0.179  0.00  0.00     0.026 C 
ATOM      6  C   UNN dAMED      -4.704  -0.196   0.948  0.00  0.00     0.026 C 
ENDBRANCH   2   3
ENDBRANCH   1   2
BRANCH   1   7
ATOM      7  C   UNN dAMED       0.659   0.498  -1.523  0.00  0.00    -0.039 C 
ATOM      8  C   UNN dAMED       1.944  -0.261  -1.201  0.00  0.00     0.026 C 
ATOM      9  C   UNN dAMED       0.861   1.805  -1.558  0.00  0.00     0.049 C 
BRANCH   9  10
ATOM     10  C   UNN dAMED      -0.269   2.776  -2.041  0.00  0.00     0.266 C 
ATOM     11  O   UNN dAMED      -0.025   3.971  -2.119  0.00  0.00    -0.271 OA
ATOM     12  N   UNN dAMED       0.139   2.014  -0.851  0.00  0.00    -0.057 NA
ENDBRANCH   9  10
ENDBRANCH   1   7
TORSDOF 4
