REMARK  0 active torsions:
REMARK  status: ('A' for Active; 'I' for Inactive)
ROOT
ATOM      1  N   UNN dAMED       1.016   1.103  -0.485  0.00  0.00    -0.230 NA
ATOM      2  O   UNN dAMED      -1.499   2.495  -0.571  0.00  0.00    -0.286 OA
ATOM      3  O   UNN dAMED      -4.080  -2.028   0.448  0.00  0.00    -0.287 OA
ATOM      4  C   UNN dAMED      -2.059   1.423  -0.397  0.00  0.00     0.197 A 
ATOM      5  C   UNN dAMED      -3.560   1.389  -0.347  0.00  0.00     0.045 A 
ATOM      6  C   UNN dAMED      -4.204   0.250  -0.101  0.00  0.00     0.045 A 
ATOM      7  C   UNN dAMED      -3.448  -1.012   0.204  0.00  0.00     0.196 A 
ATOM      8  C   UNN dAMED      -1.310   0.191  -0.132  0.00  0.00     0.053 A 
ATOM      9  C   UNN dAMED      -1.981  -0.995   0.167  0.00  0.00     0.043 A 
ATOM     10  C   UNN dAMED       0.090   0.152  -0.169  0.00  0.00     0.043 A 
ATOM     11  C   UNN dAMED      -1.284  -2.171   0.431  0.00  0.00     0.003 A 
ATOM     12  C   UNN dAMED       0.817  -1.007   0.118  0.00  0.00     0.012 A 
ATOM     13  C   UNN dAMED       0.114  -2.190   0.418  0.00  0.00     0.001 A 
ATOM     14  C   UNN dAMED       2.208  -0.658   0.089  0.00  0.00     0.011 A 
ATOM     15  C   UNN dAMED       3.495   1.404  -0.277  0.00  0.00     0.011 A 
ATOM     16  C   UNN dAMED       4.658   0.679  -0.009  0.00  0.00     0.001 A 
ATOM     17  C   UNN dAMED       2.290   0.701  -0.222  0.00  0.00     0.040 A 
ATOM     18  C   UNN dAMED       4.616  -0.679   0.290  0.00  0.00     0.000 A 
ATOM     19  C   UNN dAMED       3.398  -1.362   0.347  0.00  0.00     0.001 A 
ATOM     20  C   UNN dAMED       0.723   2.315   0.199  0.00  0.00     0.100 C 
ENDROOT
TORSDOF 0
