REMARK  5 active torsions:
REMARK  status: ('A' for Active; 'I' for Inactive)
REMARK    1  A    between atoms: C_3  and  N_7 
REMARK       I    between atoms: N_7  and  C_18 
REMARK    2  A    between atoms: C_13  and  O_17 
REMARK    3  A    between atoms: O_17  and  C_21 
REMARK    4  A    between atoms: C_21  and  C_23 
REMARK    5  A    between atoms: C_23  and  O_24 
ROOT
ATOM      1  O   UNN dAMED      -2.315   1.546  -1.969  0.00  0.00    -0.283 OA
ATOM      2  C   UNN dAMED      -2.211   0.728  -1.061  0.00  0.00     0.231 A 
ATOM      3  C   UNN dAMED      -3.357  -0.179  -0.617  0.00  0.00     0.124 A 
ATOM      4  C   UNN dAMED      -1.837  -1.321   1.033  0.00  0.00     0.205 A 
ATOM      5  C   UNN dAMED      -0.827  -0.385   0.661  0.00  0.00     0.098 A 
ATOM      6  C   UNN dAMED      -0.993   0.574  -0.308  0.00  0.00     0.131 A 
ATOM      7  C   UNN dAMED      -4.306  -1.990   0.732  0.00  0.00     0.036 C 
ATOM      8  O   UNN dAMED      -1.706  -2.211   1.866  0.00  0.00    -0.286 OA
ATOM      9  N   UNN dAMED       0.406  -0.143   1.174  0.00  0.00    -0.228 NA
ATOM     10  C   UNN dAMED       1.264  -1.287   1.047  0.00  0.00     0.081 C 
ATOM     11  C   UNN dAMED       2.627  -0.887   0.483  0.00  0.00     0.051 C 
ATOM     12  C   UNN dAMED       2.402   0.522  -0.012  0.00  0.00     0.164 C 
ATOM     13  C   UNN dAMED       0.997   0.851   0.408  0.00  0.00     0.195 A 
ATOM     14  N   UNN dAMED       0.142   1.324  -0.480  0.00  0.00    -0.249 NA
ATOM     15  C   UNN dAMED      -3.145  -1.116   0.339  0.00  0.00     0.039 A 
ENDROOT
BRANCH  12  16
ATOM     16  O   UNN dAMED       3.411   1.488   0.066  0.00  0.00    -0.299 OA
BRANCH  16  17
ATOM     17  C   UNN dAMED       3.905   1.605  -1.196  0.00  0.00     0.302 C 
ATOM     18  O   UNN dAMED       3.812   0.710  -2.026  0.00  0.00    -0.261 OA
BRANCH  17  19
ATOM     19  C   UNN dAMED       4.355   2.974  -1.648  0.00  0.00     0.238 C 
BRANCH  19  20
ATOM     20  O   UNN dAMED       5.346   3.139  -2.598  0.00  0.00    -0.342 OA
ATOM     21  C   UNN dAMED       5.955   4.064  -3.426  0.00  0.00     0.175 C 
ENDBRANCH  19  20
ENDBRANCH  17  19
ENDBRANCH  16  17
ENDBRANCH  12  16
BRANCH   3  22
ATOM     22  N   UNN dAMED      -4.515   0.138  -1.244  0.00  0.00    -0.209 NA
ATOM     23  C   UNN dAMED      -4.928  -0.842  -2.042  0.00  0.00     0.256 C 
ATOM     24  O   UNN dAMED      -4.594  -1.032  -3.207  0.00  0.00    -0.270 OA
ATOM     25  C   UNN dAMED      -6.043  -1.702  -1.507  0.00  0.00     0.100 C 
ENDBRANCH   3  22
TORSDOF 5
