REMARK  5 active torsions:
REMARK  status: ('A' for Active; 'I' for Inactive)
REMARK    1  A    between atoms: C_7  and  C_13 
REMARK    2  A    between atoms: C_8  and  C_9 
REMARK    3  A    between atoms: C_9  and  O_11 
REMARK    4  A    between atoms: C_13  and  C_14 
REMARK    5  A    between atoms: C_14  and  O_16 
ROOT
ATOM      1  S   UNN dAMED      -1.682  -3.420  -0.071  0.00  0.00    -0.041 SA
ATOM      2  H   UNN dAMED      -3.039  -0.670  -0.025  0.00  0.00     0.168 HD
ATOM      3  N   UNN dAMED      -2.027  -0.688  -0.051  0.00  0.00    -0.327 N 
ATOM      4  H   UNN dAMED       0.974  -1.884  -0.112  0.00  0.00     0.168 HD
ATOM      5  N   UNN dAMED       0.121  -1.338  -0.099  0.00  0.00    -0.333 N 
ATOM      6  C   UNN dAMED      -1.202  -1.837  -0.075  0.00  0.00     0.176 A 
ATOM      7  C   UNN dAMED       0.068   0.037  -0.081  0.00  0.00     0.067 A 
ATOM      8  C   UNN dAMED      -1.215   0.418  -0.056  0.00  0.00     0.134 A 
ENDROOT
BRANCH   7   9
ATOM      9  C   UNN dAMED       1.252   0.961  -0.031  0.00  0.00     0.141 C 
BRANCH   9  10
ATOM     10  C   UNN dAMED       2.124   1.195  -1.240  0.00  0.00     0.278 C 
ATOM     11  O   UNN dAMED       1.663   1.826  -2.184  0.00  0.00    -0.264 OA
BRANCH  10  12
ATOM     12  O   UNN dAMED       3.440   0.867  -1.152  0.00  0.00    -0.299 OA
ATOM     13  C   UNN dAMED       3.814   1.246   0.139  0.00  0.00     0.184 C 
ENDBRANCH  10  12
ENDBRANCH   9  10
ENDBRANCH   7   9
BRANCH   8  14
ATOM     14  C   UNN dAMED      -1.712   1.783  -0.009  0.00  0.00     0.313 C 
ATOM     15  O   UNN dAMED      -1.987   2.385   1.015  0.00  0.00    -0.258 OA
BRANCH  14  16
ATOM     16  O   UNN dAMED      -1.819   2.273  -1.263  0.00  0.00    -0.295 OA
ATOM     17  C   UNN dAMED      -1.420   1.225  -2.096  0.00  0.00     0.185 C 
ENDBRANCH  14  16
ENDBRANCH   8  14
TORSDOF 5
