REMARK  0 active torsions:
REMARK  status: ('A' for Active; 'I' for Inactive)
ROOT
ATOM      1 CL   UNN dAMED      -0.902  -6.081   3.238  0.00  0.00    -0.079 Cl
ATOM      2  O   UNN dAMED      -1.934  -3.270   3.382  0.00  0.00    -0.286 OA
ATOM      3  O   UNN dAMED       0.960  -0.048   0.276  0.00  0.00    -0.278 OA
ATOM      4  O   UNN dAMED       1.821   1.618  -1.061  0.00  0.00    -0.259 OA
ATOM      5  C   UNN dAMED       1.981   0.722  -0.245  0.00  0.00     0.292 A 
ATOM      6  C   UNN dAMED       3.364   0.289   0.150  0.00  0.00     0.025 A 
ATOM      7  C   UNN dAMED       3.133  -0.838   1.115  0.00  0.00     0.069 A 
ATOM      8  C   UNN dAMED       1.623  -0.967   1.124  0.00  0.00     0.081 A 
ATOM      9  C   UNN dAMED       0.985  -2.257   1.593  0.00  0.00    -0.001 A 
ATOM     10  C   UNN dAMED      -0.183  -2.188   2.243  0.00  0.00     0.016 A 
ATOM     11  C   UNN dAMED      -0.866  -3.379   2.791  0.00  0.00     0.202 A 
ATOM     12  C   UNN dAMED       3.910  -2.143   1.011  0.00  0.00     0.011 C 
ATOM     13  C   UNN dAMED       1.714  -3.538   1.351  0.00  0.00     0.040 A 
ATOM     14  C   UNN dAMED      -0.178  -4.665   2.589  0.00  0.00     0.092 A 
ATOM     15  C   UNN dAMED       3.219  -3.347   1.649  0.00  0.00     0.009 C 
ATOM     16  C   UNN dAMED       0.988  -4.743   1.945  0.00  0.00    -0.008 A 
ATOM     17  C   UNN dAMED      -0.808  -0.838   2.458  0.00  0.00     0.034 C 
ATOM     18  C   UNN dAMED       2.108  -3.633  -0.138  0.00  0.00     0.009 C 
ATOM     19  C   UNN dAMED       4.484   1.309   0.376  0.00  0.00     0.032 C 
ENDROOT
TORSDOF 0
