REMARK  1 active torsions:
REMARK  status: ('A' for Active; 'I' for Inactive)
REMARK    1  A    between atoms: C_17  and  C_23 
REMARK       I    between atoms: C_23  and  N_36 
ROOT
ATOM      1  C   UNN dAMED      -5.562  -0.523  -1.174  0.00  0.00     0.099 C 
ATOM      2  C   UNN dAMED      -6.149   0.709  -0.586  0.00  0.00     0.181 C 
ATOM      3  C   UNN dAMED      -5.232   1.735   0.035  0.00  0.00     0.052 C 
ATOM      4  C   UNN dAMED      -3.740   1.652  -0.216  0.00  0.00     0.033 C 
ATOM      5  C   UNN dAMED      -3.280   0.231  -0.392  0.00  0.00     0.030 C 
ATOM      6  C   UNN dAMED      -4.241  -0.721  -1.201  0.00  0.00    -0.010 C 
ATOM      7  C   UNN dAMED      -3.013   2.166   1.035  0.00  0.00    -0.004 C 
ATOM      8  C   UNN dAMED      -1.533   1.803   1.176  0.00  0.00     0.003 C 
ATOM      9  C   UNN dAMED      -1.123   0.344   0.957  0.00  0.00     0.015 C 
ATOM     10  C   UNN dAMED      -1.866  -0.135  -0.258  0.00  0.00    -0.039 C 
ATOM     11  C   UNN dAMED       0.374   0.312   0.721  0.00  0.00     0.004 C 
ATOM     12  C   UNN dAMED       0.873  -1.018   0.218  0.00  0.00     0.078 C 
ATOM     13  C   UNN dAMED       0.248  -1.130  -1.146  0.00  0.00     0.166 C 
ATOM     14  C   UNN dAMED      -1.220  -0.779  -1.241  0.00  0.00     0.029 C 
ATOM     15  C   UNN dAMED       1.155   0.657   2.109  0.00  0.00     0.001 C 
ATOM     16  C   UNN dAMED       2.535   0.022   2.269  0.00  0.00     0.008 C 
ATOM     17  C   UNN dAMED       3.286  -0.279   0.987  0.00  0.00     0.067 C 
ATOM     18  C   UNN dAMED       2.384  -1.173   0.125  0.00  0.00     0.028 C 
ATOM     19  C   UNN dAMED       4.611  -1.030   0.961  0.00  0.00     0.008 C 
ATOM     20  C   UNN dAMED       5.203  -1.342  -0.429  0.00  0.00     0.001 C 
ATOM     21  C   UNN dAMED       4.194  -1.688  -1.650  0.00  0.00    -0.000 C 
ATOM     22  C   UNN dAMED       2.862  -1.136  -1.333  0.00  0.00    -0.005 C 
ATOM     23  C   UNN dAMED      -6.413  -1.482  -1.794  0.00  0.00     0.104 C 
ATOM     24  N   UNN dAMED      -7.128  -2.255  -2.297  0.00  0.00    -0.191 NA
ATOM     25  C   UNN dAMED       1.166   0.662   2.129  0.00  0.00     0.000 C 
ATOM     26  C   UNN dAMED      -5.480   1.763   1.660  0.00  0.00     0.007 C 
ATOM     27  C   UNN dAMED      -5.488   1.771   1.658  0.00  0.00     0.007 C 
ATOM     28  C   UNN dAMED      -1.470  -0.574   2.133  0.00  0.00     0.004 C 
ATOM     29  C   UNN dAMED       5.220  -2.892  -1.293  0.00  0.00    -0.000 C 
ATOM     30  C   UNN dAMED       5.566  -2.416  -1.907  0.00  0.00    -0.000 C 
ATOM     31  O   UNN dAMED      -7.366   0.858  -0.542  0.00  0.00    -0.291 OA
ATOM     32  O   UNN dAMED       0.760  -1.729  -2.086  0.00  0.00    -0.292 OA
ATOM     33  C   UNN dAMED      -3.745  -0.177  -1.869  0.00  0.00     0.008 C 
ENDROOT
BRANCH  17  34
ATOM     34  C   UNN dAMED       3.571   1.027   0.295  0.00  0.00     0.241 C 
ATOM     35  O   UNN dAMED       4.453   1.237  -0.521  0.00  0.00    -0.272 OA
ATOM     36  N   UNN dAMED       2.841   2.104   0.787  0.00  0.00    -0.258 N 
ATOM     37  C   UNN dAMED       2.361   2.270   2.064  0.00  0.00     0.105 A 
ATOM     38  C   UNN dAMED       2.462   3.216   0.075  0.00  0.00     0.185 A 
ATOM     39  C   UNN dAMED       1.640   3.439   2.028  0.00  0.00     0.120 A 
ATOM     40  N   UNN dAMED       1.721   4.030   0.791  0.00  0.00    -0.222 NA
ENDBRANCH  17  34
TORSDOF 1
