REMARK  0 active torsions:
REMARK  status: ('A' for Active; 'I' for Inactive)
ROOT
ATOM      1  C   UNN dAMED      -5.315  -0.383  -1.362  0.00  0.00     0.003 A 
ATOM      2  C   UNN dAMED      -6.088  -0.439  -0.199  0.00  0.00     0.042 A 
ATOM      3  C   UNN dAMED      -3.931  -0.364  -1.268  0.00  0.00     0.002 A 
ATOM      4  C   UNN dAMED      -5.545  -0.477   1.096  0.00  0.00     0.196 A 
ATOM      5  C   UNN dAMED      -3.338  -0.409  -0.013  0.00  0.00     0.029 A 
ATOM      6  C   UNN dAMED      -4.141  -0.459   1.132  0.00  0.00     0.044 A 
ATOM      7  C   UNN dAMED      -1.830  -0.319   0.132  0.00  0.00     0.142 A 
ATOM      8  O   UNN dAMED      -1.186   0.921   0.163  0.00  0.00    -0.285 OA
ATOM      9  C   UNN dAMED      -0.854  -1.452   0.009  0.00  0.00     0.237 A 
ATOM     10  C   UNN dAMED       0.141   0.607   0.110  0.00  0.00     0.202 A 
ATOM     11  C   UNN dAMED       0.345  -0.860  -0.000  0.00  0.00     0.140 A 
ATOM     12  H   UNN dAMED       1.827  -2.277  -0.097  0.00  0.00     0.166 HD
ATOM     13  N   UNN dAMED       1.069   1.504   0.160  0.00  0.00    -0.219 NA
ATOM     14  N   UNN dAMED       1.633  -1.285  -0.066  0.00  0.00    -0.347 N 
ATOM     15  C   UNN dAMED       2.690  -0.362  -0.002  0.00  0.00     0.074 A 
ATOM     16  C   UNN dAMED       2.401   1.021   0.103  0.00  0.00     0.099 A 
ATOM     17  C   UNN dAMED       3.451   1.938   0.154  0.00  0.00     0.016 A 
ATOM     18  C   UNN dAMED       4.017  -0.789  -0.070  0.00  0.00     0.014 A 
ATOM     19  C   UNN dAMED       5.054   0.140  -0.021  0.00  0.00    -0.024 A 
ATOM     20  C   UNN dAMED       4.771   1.500   0.094  0.00  0.00    -0.024 A 
ATOM     21  O   UNN dAMED      -6.263  -0.522   2.146  0.00  0.00    -0.287 OA
ATOM     22  O   UNN dAMED      -1.257  -2.641  -0.031  0.00  0.00    -0.283 OA
ATOM     23  C   UNN dAMED       6.481  -0.325  -0.090  0.00  0.00     0.031 C 
ATOM     24  C   UNN dAMED       5.894   2.496   0.159  0.00  0.00     0.031 C 
ENDROOT
TORSDOF 0
