REMARK  3 active torsions:
REMARK  status: ('A' for Active; 'I' for Inactive)
REMARK    1  A    between atoms: C_3  and  C_17 
REMARK    2  A    between atoms: C_8  and  N_13 
REMARK    3  A    between atoms: N_13  and  C_14 
REMARK       I    between atoms: N_16  and  C_17 
ROOT
ATOM      1  C   UNN dAMED      -1.820   2.293   0.561  0.00  0.00     0.225 C 
ATOM      2  S   UNN dAMED      -2.236   2.381   2.206  0.00  0.00    -0.037 SA
ATOM      3  N   UNN dAMED      -1.757   3.376  -0.237  0.00  0.00    -0.179 NA
ATOM      4  C   UNN dAMED      -0.635   4.107  -0.117  0.00  0.00     0.281 C 
ATOM      5  O   UNN dAMED       0.321   3.962   0.641  0.00  0.00    -0.265 OA
ENDROOT
BRANCH   1   6
ATOM      6  N   UNN dAMED      -1.556   1.147  -0.100  0.00  0.00    -0.198 NA
BRANCH   6   7
ATOM      7  C   UNN dAMED      -2.629   0.342  -0.304  0.00  0.00     0.165 A 
ATOM      8  N   UNN dAMED      -3.536   0.738  -1.233  0.00  0.00    -0.225 NA
ATOM      9  C   UNN dAMED      -4.563  -0.102  -1.507  0.00  0.00     0.101 A 
ATOM     10  C   UNN dAMED      -4.735  -1.343  -0.919  0.00  0.00     0.021 A 
ATOM     11  C   UNN dAMED      -3.795  -1.736   0.021  0.00  0.00     0.005 A 
ATOM     12  C   UNN dAMED      -2.730  -0.894   0.332  0.00  0.00     0.039 A 
ENDBRANCH   6   7
ENDBRANCH   1   6
BRANCH   4  13
ATOM     13  C   UNN dAMED      -0.606   5.275  -1.021  0.00  0.00     0.058 A 
ATOM     14  C   UNN dAMED      -0.410   6.549  -0.488  0.00  0.00     0.005 A 
ATOM     15  C   UNN dAMED      -0.446   7.658  -1.333  0.00  0.00     0.000 A 
ATOM     16  C   UNN dAMED      -0.696   7.492  -2.694  0.00  0.00     0.000 A 
ATOM     17  C   UNN dAMED      -0.870   6.215  -3.224  0.00  0.00     0.000 A 
ATOM     18  C   UNN dAMED      -0.811   5.101  -2.391  0.00  0.00     0.005 A 
ENDBRANCH   4  13
TORSDOF 3
