REMARK  3 active torsions:
REMARK  status: ('A' for Active; 'I' for Inactive)
REMARK    1  A    between atoms: N_3  and  C_19 
REMARK    2  A    between atoms: C_9  and  N_18 
REMARK    3  A    between atoms: C_13  and  N_18 
ROOT
ATOM      1 CL   UNN dAMED      -1.702   0.722  -7.461  0.00  0.00    -0.082 Cl
ATOM      2  N   UNN dAMED       0.413  -2.244  -3.979  0.00  0.00    -0.244 NA
ATOM      3  C   UNN dAMED      -0.564  -0.774  -5.534  0.00  0.00     0.031 A 
ATOM      4  C   UNN dAMED      -0.985   0.496  -5.919  0.00  0.00     0.059 A 
ATOM      5  C   UNN dAMED       0.022  -1.001  -4.296  0.00  0.00     0.084 A 
ATOM      6  C   UNN dAMED       0.185   0.092  -3.416  0.00  0.00     0.035 A 
ATOM      7  C   UNN dAMED      -0.830   1.576  -5.068  0.00  0.00     0.012 A 
ATOM      8  C   UNN dAMED       0.778  -0.134  -2.154  0.00  0.00     0.084 A 
ATOM      9  C   UNN dAMED       0.981  -2.435  -2.770  0.00  0.00     0.101 A 
ATOM     10  C   UNN dAMED       1.181  -1.431  -1.841  0.00  0.00     0.040 A 
ATOM     11  C   UNN dAMED      -0.248   1.369  -3.823  0.00  0.00     0.004 A 
ENDROOT
BRANCH   8  12
ATOM     12  N   UNN dAMED       0.965   0.847  -1.251  0.00  0.00    -0.254 NA
BRANCH  12  13
ATOM     13  C   UNN dAMED       1.585   0.558   0.031  0.00  0.00     0.041 C 
ATOM     14  C   UNN dAMED       2.332  -0.752   0.251  0.00  0.00     0.077 C 
ATOM     15  C   UNN dAMED       3.011  -0.891   1.618  0.00  0.00     0.256 C 
ATOM     16  N   UNN dAMED       2.262  -0.530   2.811  0.00  0.00     0.138 N 
ATOM     17  C   UNN dAMED       1.782   0.841   2.589  0.00  0.00     0.256 C 
ATOM     18  C   UNN dAMED       0.999   1.149   1.308  0.00  0.00     0.077 C 
BRANCH  16  19
ATOM     19  C   UNN dAMED       2.902  -0.360   4.105  0.00  0.00     0.250 C 
ATOM     20  C   UNN dAMED       3.756   0.883   4.378  0.00  0.00     0.037 C 
ENDBRANCH  16  19
ENDBRANCH  12  13
ENDBRANCH   8  12
TORSDOF 3
