REMARK  3 active torsions:
REMARK  status: ('A' for Active; 'I' for Inactive)
REMARK    1  A    between atoms: C_3  and  C_7 
REMARK    2  A    between atoms: C_8  and  C_9 
REMARK    3  A    between atoms: C_9  and  C_13 
ROOT
ATOM      1  C   UNN dAMED       0.426   0.721  -0.623  0.00  0.00     0.013 C 
ATOM      2  C   UNN dAMED      -0.595  -0.100  -0.909  0.00  0.00     0.107 C 
ATOM      3  C   UNN dAMED      -0.402  -1.501  -1.071  0.00  0.00     0.104 C 
ATOM      4  N   UNN dAMED      -0.246  -2.643  -1.203  0.00  0.00    -0.191 NA
ENDROOT
BRANCH   2   5
ATOM      5  C   UNN dAMED      -1.920   0.542  -1.099  0.00  0.00     0.205 C 
ATOM      6  O   UNN dAMED      -2.050   1.758  -1.044  0.00  0.00    -0.286 OA
BRANCH   5   7
ATOM      7  C   UNN dAMED      -3.085  -0.304  -1.349  0.00  0.00     0.040 A 
ATOM      8  C   UNN dAMED      -3.746  -0.891  -0.273  0.00  0.00     0.003 A 
ATOM      9  C   UNN dAMED      -4.884  -1.655  -0.517  0.00  0.00     0.000 A 
ATOM     10  C   UNN dAMED      -5.359  -1.807  -1.819  0.00  0.00     0.000 A 
ATOM     11  C   UNN dAMED      -4.697  -1.197  -2.885  0.00  0.00     0.000 A 
ATOM     12  C   UNN dAMED      -3.554  -0.437  -2.653  0.00  0.00     0.003 A 
ENDBRANCH   5   7
ENDBRANCH   2   5
BRANCH   1  13
ATOM     13  C   UNN dAMED       1.861   0.320  -0.351  0.00  0.00     0.001 A 
ATOM     14  C   UNN dAMED       2.768   0.236  -1.408  0.00  0.00     0.001 A 
ATOM     15  C   UNN dAMED       4.133   0.118  -1.152  0.00  0.00     0.010 A 
ATOM     16  C   UNN dAMED       4.594   0.101   0.162  0.00  0.00     0.068 A 
ATOM     17  C   UNN dAMED       3.693   0.193   1.221  0.00  0.00     0.010 A 
ATOM     18  C   UNN dAMED       5.992  -0.001   0.425  0.00  0.00     0.101 C 
ATOM     19  C   UNN dAMED       2.329   0.308   0.963  0.00  0.00     0.001 A 
ATOM     20  N   UNN dAMED       7.129  -0.081   0.640  0.00  0.00    -0.191 NA
ENDBRANCH   1  13
TORSDOF 3
