REMARK  2 active torsions:
REMARK  status: ('A' for Active; 'I' for Inactive)
REMARK    1  A    between atoms: C_7  and  C_10 
REMARK    2  A    between atoms: C_7  and  C_13 
ROOT
ATOM      1  S   UNN dAMED      -3.658  -0.806  -0.577  0.00  0.00    -0.038 SA
ATOM      2  H   UNN dAMED      -2.103   1.343  -1.091  0.00  0.00     0.171 HD
ATOM      3  N   UNN dAMED      -1.474   0.675  -0.655  0.00  0.00    -0.301 N 
ATOM      4  N   UNN dAMED      -1.219  -1.501   0.307  0.00  0.00    -0.209 NA
ATOM      5  O   UNN dAMED       0.294   2.147  -0.842  0.00  0.00    -0.272 OA
ATOM      6  C   UNN dAMED      -0.157   1.060  -0.490  0.00  0.00     0.241 A 
ATOM      7  C   UNN dAMED       0.696   0.030   0.167  0.00  0.00     0.119 A 
ATOM      8  C   UNN dAMED       0.031  -1.254   0.525  0.00  0.00     0.138 A 
ATOM      9  C   UNN dAMED      -2.017  -0.548  -0.281  0.00  0.00     0.201 A 
ATOM     10  N   UNN dAMED       0.824  -2.271   1.129  0.00  0.00    -0.084 NA
ENDROOT
BRANCH   7  11
ATOM     11  C   UNN dAMED       1.955  -0.245  -0.674  0.00  0.00     0.016 C 
ATOM     12  C   UNN dAMED       2.024  -1.498  -1.549  0.00  0.00     0.001 C 
ENDBRANCH   7  11
BRANCH   7  13
ATOM     13  C   UNN dAMED       1.416   0.624   1.391  0.00  0.00     0.016 C 
ATOM     14  C   UNN dAMED       0.621   1.369   2.467  0.00  0.00     0.001 C 
ENDBRANCH   7  13
TORSDOF 2
