REMARK  4 active torsions:
REMARK  status: ('A' for Active; 'I' for Inactive)
REMARK    1  A    between atoms: C_6  and  C_11 
REMARK    2  A    between atoms: C_8  and  S_9 
REMARK    3  A    between atoms: C_11  and  O_12 
REMARK    4  A    between atoms: O_12  and  C_13 
ROOT
ATOM      1  O   UNN dAMED      -1.248  -3.183   0.571  0.00  0.00    -0.265 OA
ATOM      2  N   UNN dAMED      -1.879  -1.036   0.036  0.00  0.00    -0.185 NA
ATOM      3  N   UNN dAMED      -0.041   0.477  -0.251  0.00  0.00    -0.335 N 
ATOM      4  H   UNN dAMED       0.252   1.425  -0.460  0.00  0.00     0.168 HD
ATOM      5  C   UNN dAMED       0.518  -1.655   0.372  0.00  0.00     0.078 A 
ATOM      6  C   UNN dAMED       0.930  -0.423   0.073  0.00  0.00     0.070 A 
ATOM      7  C   UNN dAMED      -0.956  -2.021   0.320  0.00  0.00     0.282 A 
ATOM      8  C   UNN dAMED      -1.370   0.129  -0.229  0.00  0.00     0.171 A 
ENDROOT
BRANCH   6   9
ATOM      9  C   UNN dAMED       2.362   0.001   0.218  0.00  0.00     0.186 C 
BRANCH   9  10
ATOM     10  O   UNN dAMED       2.913   0.235   1.547  0.00  0.00    -0.348 OA
BRANCH  10  11
ATOM     11  C   UNN dAMED       2.593  -0.026   0.152  0.00  0.00     0.143 C 
ATOM     12  C   UNN dAMED       1.465   0.745  -0.537  0.00  0.00     0.035 C 
ENDBRANCH  10  11
ENDBRANCH   9  10
ENDBRANCH   6   9
BRANCH   8  13
ATOM     13  S   UNN dAMED      -2.492   1.436  -0.594  0.00  0.00    -0.076 SA
ATOM     14  C   UNN dAMED      -3.873   0.366  -0.984  0.00  0.00     0.077 C 
ENDBRANCH   8  13
TORSDOF 4
