REMARK  7 active torsions:
REMARK  status: ('A' for Active; 'I' for Inactive)
REMARK    1  A    between atoms: C_5  and  C_20 
REMARK    2  A    between atoms: C_15  and  N_16 
REMARK    3  A    between atoms: N_16  and  C_19 
REMARK    4  A    between atoms: C_17  and  C_19 
REMARK    5  A    between atoms: C_17  and  O_21 
REMARK    6  A    between atoms: C_19  and  C_20 
REMARK    7  A    between atoms: O_21  and  C_22 
ROOT
ATOM      1  C   UNN dAMED       0.018  -0.377   1.269  0.00  0.00     0.130 C 
ENDROOT
BRANCH   1   2
ATOM      2  N   UNN dAMED      -0.915  -1.361   0.733  0.00  0.00    -0.204 NA
BRANCH   2   3
ATOM      3  C   UNN dAMED      -2.132  -0.960   0.317  0.00  0.00     0.275 A 
ATOM      4  O   UNN dAMED      -2.280   0.215  -0.384  0.00  0.00    -0.273 OA
ATOM      5  C   UNN dAMED      -3.621   0.324  -0.599  0.00  0.00     0.121 A 
ATOM      6  C   UNN dAMED      -4.283   1.353  -1.258  0.00  0.00     0.026 A 
ATOM      7  C   UNN dAMED      -4.228  -0.783  -0.033  0.00  0.00     0.108 A 
ATOM      8  C   UNN dAMED      -5.672   1.204  -1.323  0.00  0.00     0.002 A 
ATOM      9  C   UNN dAMED      -6.327   0.103  -0.766  0.00  0.00     0.002 A 
ATOM     10  C   UNN dAMED      -5.620  -0.912  -0.111  0.00  0.00     0.021 A 
ATOM     11  N   UNN dAMED      -3.274  -1.590   0.538  0.00  0.00    -0.203 NA
ENDBRANCH   2   3
ENDBRANCH   1   2
BRANCH   1  12
ATOM     12  C   UNN dAMED       1.129   0.155   0.402  0.00  0.00     0.310 C 
ATOM     13  O   UNN dAMED       1.047   1.304  -0.014  0.00  0.00    -0.258 OA
BRANCH  12  14
ATOM     14  O   UNN dAMED       2.200  -0.643   0.148  0.00  0.00    -0.298 OA
BRANCH  14  15
ATOM     15  C   UNN dAMED       3.070   0.154  -0.599  0.00  0.00     0.152 C 
ATOM     16  C   UNN dAMED       3.305   1.614  -0.198  0.00  0.00     0.035 C 
ENDBRANCH  14  15
ENDBRANCH  12  14
ENDBRANCH   1  12
BRANCH   1  17
ATOM     17  C   UNN dAMED      -0.312   0.339   2.585  0.00  0.00     0.078 C 
BRANCH  17  18
ATOM     18  C   UNN dAMED       0.376  -0.074   3.855  0.00  0.00    -0.016 A 
ATOM     19  C   UNN dAMED       0.969  -1.325   3.941  0.00  0.00    -0.001 A 
ATOM     20  C   UNN dAMED       1.542  -1.733   5.147  0.00  0.00     0.042 A 
ATOM     21  C   UNN dAMED       1.552  -0.941   6.308  0.00  0.00     0.196 A 
ATOM     22  C   UNN dAMED       0.944   0.317   6.157  0.00  0.00     0.042 A 
ATOM     23  O   UNN dAMED       2.066  -1.334   7.404  0.00  0.00    -0.287 OA
ATOM     24  C   UNN dAMED       0.362   0.756   4.965  0.00  0.00    -0.001 A 
ENDBRANCH  17  18
ENDBRANCH   1  17
TORSDOF 7
