REMARK  5 active torsions:
REMARK  status: ('A' for Active; 'I' for Inactive)
REMARK    1  A    between atoms: C_1  and  C_8 
REMARK    2  A    between atoms: C_2  and  C_10 
REMARK    3  A    between atoms: O_3  and  C_10 
REMARK    4  A    between atoms: O_3  and  C_12 
REMARK       I    between atoms: C_5  and  N_7 
REMARK       I    between atoms: N_7  and  C_8 
REMARK    5  A    between atoms: C_12  and  C_13 
ROOT
ATOM      1  C   UNN dAMED      -0.592   0.945  -0.136  0.00  0.00     0.082 C 
ATOM      2  C   UNN dAMED       0.710   0.646  -0.226  0.00  0.00     0.088 C 
ENDROOT
BRANCH   1   3
ATOM      3  C   UNN dAMED      -1.610  -0.023   0.345  0.00  0.00     0.271 C 
ATOM      4  N   UNN dAMED      -2.234  -0.611  -0.674  0.00  0.00    -0.157 NA
ATOM      5  C   UNN dAMED      -2.000  -1.921  -0.627  0.00  0.00     0.357 C 
ATOM      6  N   UNN dAMED      -0.670  -2.343  -0.918  0.00  0.00    -0.038 NA
ATOM      7  O   UNN dAMED      -2.822  -2.795  -0.381  0.00  0.00    -0.248 OA
ATOM      8  O   UNN dAMED      -1.881  -0.093   1.540  0.00  0.00    -0.266 OA
ENDBRANCH   1   3
BRANCH   2   9
ATOM      9  C   UNN dAMED       1.255  -0.668   0.141  0.00  0.00     0.284 C 
ATOM     10  O   UNN dAMED       1.886  -0.895   1.160  0.00  0.00    -0.260 OA
BRANCH   9  11
ATOM     11  O   UNN dAMED       1.060  -1.543  -0.870  0.00  0.00    -0.294 OA
BRANCH  11  12
ATOM     12  C   UNN dAMED       0.018  -1.001  -1.627  0.00  0.00     0.178 C 
BRANCH  12  13
ATOM     13  C   UNN dAMED       0.074  -1.086  -3.154  0.00  0.00     0.006 C 
ATOM     14  C   UNN dAMED       1.254  -1.194  -3.763  0.00  0.00    -0.002 C 
ENDBRANCH  12  13
ENDBRANCH  11  12
ENDBRANCH   9  11
ENDBRANCH   2   9
TORSDOF 5
