REMARK  0 active torsions:
REMARK  status: ('A' for Active; 'I' for Inactive)
ROOT
ATOM      1  N   UNN dAMED       3.708  -0.345  -0.470  0.00  0.00    -0.174 NA
ATOM      2  N   UNN dAMED       2.392   1.297   0.716  0.00  0.00    -0.200 NA
ATOM      3  O   UNN dAMED       2.561  -1.991  -1.632  0.00  0.00    -0.263 OA
ATOM      4  N   UNN dAMED       0.099  -0.953  -0.587  0.00  0.00    -0.147 NA
ATOM      5  N   UNN dAMED      -0.722  -0.104   0.157  0.00  0.00    -0.188 N 
ATOM      6  N   UNN dAMED      -0.045   1.006   0.597  0.00  0.00    -0.162 NA
ATOM      7  H   UNN dAMED      -0.320   1.401   1.491  0.00  0.00     0.157 HD
ATOM      8  C   UNN dAMED       2.581  -1.004  -0.910  0.00  0.00     0.303 A 
ATOM      9  C   UNN dAMED       1.292  -0.462  -0.444  0.00  0.00     0.190 A 
ATOM     10  C   UNN dAMED       1.278   0.771   0.362  0.00  0.00     0.162 A 
ATOM     11  C   UNN dAMED      -2.785  -1.394   0.222  0.00  0.00     0.020 A 
ATOM     12  C   UNN dAMED      -2.121  -0.180   0.010  0.00  0.00     0.096 A 
ATOM     13  C   UNN dAMED      -4.176  -1.473   0.156  0.00  0.00     0.002 A 
ATOM     14  C   UNN dAMED      -4.927  -0.331  -0.102  0.00  0.00     0.000 A 
ATOM     15  C   UNN dAMED      -2.892   0.959  -0.245  0.00  0.00     0.020 A 
ATOM     16  C   UNN dAMED      -4.285   0.887  -0.299  0.00  0.00     0.002 A 
ATOM     17  C   UNN dAMED       3.574   0.713   0.283  0.00  0.00     0.241 A 
ATOM     18  N   UNN dAMED       4.778   1.346   0.714  0.00  0.00    -0.059 NA
ENDROOT
TORSDOF 0
