REMARK  0 active torsions:
REMARK  status: ('A' for Active; 'I' for Inactive)
ROOT
ATOM      1  O   UNN dAMED       0.481   2.229  -0.758  0.00  0.00    -0.286 OA
ATOM      2  O   UNN dAMED      -0.075  -2.362  -0.576  0.00  0.00    -0.286 OA
ATOM      3  N   UNN dAMED      -2.745   0.383  -1.130  0.00  0.00    -0.244 NA
ATOM      4  C   UNN dAMED       0.628   1.103  -0.319  0.00  0.00     0.200 A 
ATOM      5  C   UNN dAMED      -0.399   0.013  -0.499  0.00  0.00     0.095 A 
ATOM      6  C   UNN dAMED       1.928   0.454  -0.079  0.00  0.00     0.042 A 
ATOM      7  C   UNN dAMED       3.170   1.043   0.026  0.00  0.00     0.003 A 
ATOM      8  C   UNN dAMED       4.258   0.187   0.211  0.00  0.00     0.000 A 
ATOM      9  C   UNN dAMED       0.339  -1.272  -0.223  0.00  0.00     0.200 A 
ATOM     10  C   UNN dAMED      -1.854   0.208  -0.126  0.00  0.00     0.088 A 
ATOM     11  C   UNN dAMED      -2.212   0.221   1.216  0.00  0.00     0.019 A 
ATOM     12  C   UNN dAMED       1.759  -0.935  -0.021  0.00  0.00     0.042 A 
ATOM     13  C   UNN dAMED       4.088  -1.210   0.270  0.00  0.00     0.000 A 
ATOM     14  C   UNN dAMED      -3.548   0.423   1.539  0.00  0.00     0.003 A 
ATOM     15  C   UNN dAMED      -4.034   0.578  -0.776  0.00  0.00     0.099 A 
ATOM     16  C   UNN dAMED      -4.485   0.607   0.532  0.00  0.00     0.021 A 
ATOM     17  C   UNN dAMED       2.826  -1.793   0.144  0.00  0.00     0.003 A 
ENDROOT
TORSDOF 0
