REMARK  4 active torsions:
REMARK  status: ('A' for Active; 'I' for Inactive)
REMARK    1  A    between atoms: C_6  and  S_10 
REMARK    2  A    between atoms: S_10  and  C_11 
REMARK    3  A    between atoms: C_11  and  C_12 
REMARK    4  A    between atoms: C_12  and  C_13 
ROOT
ATOM      1  O   UNN dAMED      -3.323  -2.414  -0.847  0.00  0.00    -0.265 OA
ATOM      2  N   UNN dAMED      -3.086  -0.276  -0.034  0.00  0.00    -0.177 NA
ATOM      3  N   UNN dAMED      -0.816   0.374   0.342  0.00  0.00    -0.323 N 
ATOM      4  H   UNN dAMED      -0.186   1.112   0.635  0.00  0.00     0.169 HD
ATOM      5  C   UNN dAMED      -1.105  -1.736  -0.479  0.00  0.00     0.086 A 
ATOM      6  C   UNN dAMED      -0.244  -0.800  -0.069  0.00  0.00     0.090 A 
ATOM      7  C   UNN dAMED      -2.609  -1.495  -0.464  0.00  0.00     0.283 A 
ATOM      8  C   UNN dAMED      -2.176   0.574   0.337  0.00  0.00     0.218 A 
ATOM      9  N   UNN dAMED      -2.637   1.847   0.785  0.00  0.00    -0.061 NA
ENDROOT
BRANCH   6  10
ATOM     10  S   UNN dAMED       1.448  -1.159  -0.137  0.00  0.00    -0.097 SA
BRANCH  10  11
ATOM     11  C   UNN dAMED       1.285  -2.885   0.313  0.00  0.00     0.064 C 
BRANCH  11  12
ATOM     12  C   UNN dAMED       0.822  -3.914  -0.724  0.00  0.00     0.012 C 
BRANCH  12  13
ATOM     13  C   UNN dAMED      -0.643  -4.361  -0.749  0.00  0.00     0.001 C 
ATOM     14  C   UNN dAMED      -1.090  -5.474  -1.701  0.00  0.00     0.000 C 
ENDBRANCH  12  13
ENDBRANCH  11  12
ENDBRANCH  10  11
ENDBRANCH   6  10
TORSDOF 4
