REMARK  3 active torsions:
REMARK  status: ('A' for Active; 'I' for Inactive)
REMARK    1  A    between atoms: C_8  and  S_14 
REMARK    2  A    between atoms: O_13  and  S_14 
REMARK    3  A    between atoms: O_13  and  C_17 
ROOT
ATOM      1  O   UNN dAMED      -0.190  -0.188   0.363  0.00  0.00    -0.208 OA
ENDROOT
BRANCH   1   2
ATOM      2  S   UNN dAMED      -1.132  -0.360  -0.961  0.00  0.00     0.306 S 
ATOM      3  O   UNN dAMED      -0.849   0.705  -1.906  0.00  0.00    -0.193 OA
ATOM      4  O   UNN dAMED      -1.101  -1.755  -1.357  0.00  0.00    -0.193 OA
BRANCH   2   5
ATOM      5  C   UNN dAMED      -2.754  -0.051  -0.363  0.00  0.00     0.111 A 
ATOM      6  C   UNN dAMED      -2.927   0.649   0.826  0.00  0.00     0.013 A 
ATOM      7  C   UNN dAMED      -4.219   0.927   1.261  0.00  0.00    -0.004 A 
ATOM      8  C   UNN dAMED      -5.313   0.511   0.503  0.00  0.00    -0.022 A 
ATOM      9  C   UNN dAMED      -5.122  -0.184  -0.691  0.00  0.00    -0.004 A 
ATOM     10  C   UNN dAMED      -6.704   0.880   0.933  0.00  0.00     0.031 C 
ATOM     11  C   UNN dAMED      -3.834  -0.465  -1.134  0.00  0.00     0.013 A 
ENDBRANCH   2   5
ENDBRANCH   1   2
BRANCH   1  12
ATOM     12  C   UNN dAMED       1.178  -0.118   0.239  0.00  0.00     0.196 A 
ATOM     13  N   UNN dAMED       1.784   0.658   1.170  0.00  0.00    -0.226 NA
ATOM     14  C   UNN dAMED       3.119   0.710   1.080  0.00  0.00     0.058 A 
ATOM     15  C   UNN dAMED       3.874   0.035   0.119  0.00  0.00     0.005 A 
ATOM     16  C   UNN dAMED       4.010   1.566   1.934  0.00  0.00     0.046 A 
ATOM     17  C   UNN dAMED       3.241  -0.766  -0.801  0.00  0.00     0.071 A 
ATOM     18  C   UNN dAMED       5.330   0.376   0.231  0.00  0.00     0.029 A 
ATOM     19  C   UNN dAMED       1.856  -0.861  -0.733  0.00  0.00     0.059 A 
ATOM     20  N   UNN dAMED       3.971  -1.430  -1.826  0.00  0.00    -0.101 NA
ATOM     21  C   UNN dAMED       5.435   1.362   1.402  0.00  0.00     0.011 A 
ENDBRANCH   1  12
TORSDOF 3
