REMARK  4 active torsions:
REMARK  status: ('A' for Active; 'I' for Inactive)
REMARK    1  A    between atoms: C_7  and  C_21 
REMARK    2  A    between atoms: C_16  and  O_18 
REMARK    3  A    between atoms: O_18  and  C_19 
REMARK    4  A    between atoms: C_19  and  C_21 
ROOT
ATOM      1  O   UNN dAMED      -0.207   1.886   0.290  0.00  0.00    -0.266 OA
ATOM      2  O   UNN dAMED      -0.032  -3.379  -0.350  0.00  0.00    -0.266 OA
ATOM      3  N   UNN dAMED      -1.329  -1.479  -0.339  0.00  0.00    -0.256 N 
ATOM      4  N   UNN dAMED      -1.403  -0.098  -0.098  0.00  0.00    -0.215 N 
ATOM      5  H   UNN dAMED      -2.193  -1.967  -0.551  0.00  0.00     0.191 HD
ATOM      6  C   UNN dAMED      -0.255   0.669   0.110  0.00  0.00     0.275 C 
ATOM      7  C   UNN dAMED       1.028  -0.053   0.142  0.00  0.00     0.050 C 
ATOM      8  C   UNN dAMED       1.093  -1.378   0.070  0.00  0.00     0.063 C 
ATOM      9  C   UNN dAMED      -0.146  -2.166  -0.210  0.00  0.00     0.272 C 
ATOM     10  C   UNN dAMED      -3.839  -0.268   0.203  0.00  0.00     0.019 A 
ATOM     11  C   UNN dAMED      -2.705   0.494  -0.092  0.00  0.00     0.084 A 
ATOM     12  C   UNN dAMED      -5.110   0.306   0.198  0.00  0.00     0.002 A 
ATOM     13  C   UNN dAMED      -5.261   1.664  -0.068  0.00  0.00     0.000 A 
ATOM     14  C   UNN dAMED      -2.881   1.852  -0.378  0.00  0.00     0.019 A 
ATOM     15  C   UNN dAMED      -4.143   2.442  -0.347  0.00  0.00     0.002 A 
ENDROOT
BRANCH   7  16
ATOM     16  C   UNN dAMED       2.279   0.702   0.507  0.00  0.00     0.127 C 
BRANCH  16  17
ATOM     17  C   UNN dAMED       3.635   0.283   0.000  0.00  0.00     0.277 C 
ATOM     18  O   UNN dAMED       4.517   1.130  -0.059  0.00  0.00    -0.264 OA
BRANCH  17  19
ATOM     19  O   UNN dAMED       3.819  -0.998  -0.414  0.00  0.00    -0.301 OA
BRANCH  19  20
ATOM     20  C   UNN dAMED       2.980  -1.758   0.404  0.00  0.00     0.152 C 
ATOM     21  C   UNN dAMED       2.616  -1.250   1.802  0.00  0.00     0.035 C 
ENDBRANCH  19  20
ENDBRANCH  17  19
ENDBRANCH  16  17
ENDBRANCH   7  16
TORSDOF 4
