REMARK  3 active torsions:
REMARK  status: ('A' for Active; 'I' for Inactive)
REMARK    1  A    between atoms: C_5  and  O_22 
REMARK    2  A    between atoms: C_10  and  C_20 
REMARK    3  A    between atoms: C_15  and  C_23 
ROOT
ATOM      1  C   UNN dAMED       1.945   1.392   0.034  0.00  0.00    -0.013 A 
ATOM      2  C   UNN dAMED       2.924   2.379   0.055  0.00  0.00    -0.004 A 
ATOM      3  C   UNN dAMED       4.255   2.033  -0.186  0.00  0.00     0.002 A 
ATOM      4  C   UNN dAMED       4.596   0.708  -0.442  0.00  0.00     0.024 A 
ATOM      5  C   UNN dAMED       3.602  -0.267  -0.433  0.00  0.00     0.095 A 
ATOM      6  C   UNN dAMED       2.273   0.056  -0.185  0.00  0.00     0.033 A 
ATOM      7  C   UNN dAMED       0.497   1.715   0.218  0.00  0.00     0.068 C 
ATOM      8  C   UNN dAMED      -0.487   0.701  -0.367  0.00  0.00     0.055 C 
ATOM      9  N   UNN dAMED      -0.211  -0.717  -0.163  0.00  0.00    -0.307 N 
ATOM     10  C   UNN dAMED       1.208  -1.030  -0.128  0.00  0.00     0.076 C 
ATOM     11  C   UNN dAMED      -1.946   1.120  -0.562  0.00  0.00     0.264 C 
ATOM     12  N   UNN dAMED      -2.695   0.389  -1.810  0.00  0.00     0.147 N 
ATOM     13  C   UNN dAMED      -2.724  -0.701  -0.736  0.00  0.00     0.268 C 
ATOM     14  C   UNN dAMED      -1.401  -1.461  -0.542  0.00  0.00     0.141 C 
ATOM     15  C   UNN dAMED      -2.797   1.105   0.697  0.00  0.00     0.127 C 
ATOM     16  C   UNN dAMED      -3.405  -0.246   0.552  0.00  0.00     0.053 C 
ATOM     17  C   UNN dAMED      -1.968   1.098  -0.598  0.00  0.00     0.286 C 
ATOM     18  C   UNN dAMED      -1.481  -2.867  -0.184  0.00  0.00     0.116 C 
ATOM     19  N   UNN dAMED      -1.551  -3.991   0.096  0.00  0.00    -0.190 NA
ENDROOT
BRANCH  10  20
ATOM     20  C   UNN dAMED       1.646  -2.480   0.148  0.00  0.00     0.226 C 
ATOM     21  O   UNN dAMED       1.748  -2.963   1.428  0.00  0.00    -0.214 OA
ENDBRANCH  10  20
BRANCH  15  22
ATOM     22  C   UNN dAMED      -3.685   2.282   0.997  0.00  0.00     0.187 C 
ATOM     23  O   UNN dAMED      -4.856   2.020   1.405  0.00  0.00    -0.647 OA
ATOM     24  O   UNN dAMED      -3.199   3.425   0.753  0.00  0.00    -0.647 OA
ENDBRANCH  15  22
BRANCH   5  25
ATOM     25  O   UNN dAMED       3.949  -1.564  -0.661  0.00  0.00    -0.328 OA
ATOM     26  C   UNN dAMED       5.338  -1.549  -0.815  0.00  0.00     0.181 C 
ENDBRANCH   5  25
TORSDOF 3
