REMARK  2 active torsions:
REMARK  status: ('A' for Active; 'I' for Inactive)
REMARK       I    between atoms: N_1  and  C_32 
REMARK       I    between atoms: N_2  and  C_34 
REMARK    1  A    between atoms: C_12  and  N_31 
REMARK    2  A    between atoms: C_17  and  N_36 
REMARK       I    between atoms: N_31  and  C_32 
REMARK       I    between atoms: C_34  and  N_36 
ROOT
ATOM      1  N   UNN dAMED      -1.751   0.334  -0.683  0.00  0.00    -0.201 NA
ATOM      2  N   UNN dAMED       1.364   1.358  -0.489  0.00  0.00    -0.201 NA
ATOM      3  C   UNN dAMED       0.126   2.090  -0.521  0.00  0.00     0.099 C 
ATOM      4  C   UNN dAMED      -1.102   1.498  -1.221  0.00  0.00     0.099 C 
ATOM      5  C   UNN dAMED       0.712   0.205   0.072  0.00  0.00     0.099 C 
ATOM      6  C   UNN dAMED      -0.520  -0.402  -0.609  0.00  0.00     0.099 C 
ATOM      7  N   UNN dAMED      -3.263   1.336   0.643  0.00  0.00    -0.198 NA
ATOM      8  C   UNN dAMED      -2.102   0.662   0.621  0.00  0.00     0.325 C 
ATOM      9  O   UNN dAMED      -1.345   0.435   1.566  0.00  0.00    -0.251 OA
ATOM     10  C   UNN dAMED       1.683   1.052  -1.812  0.00  0.00     0.325 C 
ATOM     11  O   UNN dAMED       0.803   0.877  -2.656  0.00  0.00    -0.251 OA
ATOM     12  N   UNN dAMED       3.018   1.072  -1.984  0.00  0.00    -0.198 NA
ENDROOT
BRANCH   7  13
ATOM     13  C   UNN dAMED      -4.190   0.907   1.529  0.00  0.00     0.086 A 
ATOM     14  C   UNN dAMED      -4.115  -0.296   2.246  0.00  0.00     0.019 A 
ATOM     15  C   UNN dAMED      -5.068  -0.678   3.195  0.00  0.00     0.002 A 
ATOM     16  C   UNN dAMED      -4.886  -1.899   3.960  0.00  0.00     0.000 A 
ATOM     17  C   UNN dAMED      -6.165   0.156   3.409  0.00  0.00     0.000 A 
ATOM     18  C   UNN dAMED      -5.598  -3.059   3.639  0.00  0.00     0.000 A 
ATOM     19  C   UNN dAMED      -3.970  -1.941   5.017  0.00  0.00     0.000 A 
ATOM     20  C   UNN dAMED      -5.406  -4.232   4.366  0.00  0.00     0.000 A 
ATOM     21  C   UNN dAMED      -4.492  -4.259   5.415  0.00  0.00     0.000 A 
ATOM     22  C   UNN dAMED      -3.770  -3.114   5.740  0.00  0.00     0.000 A 
ATOM     23  C   UNN dAMED      -6.299   1.338   2.687  0.00  0.00     0.002 A 
ATOM     24  C   UNN dAMED      -5.314   1.705   1.769  0.00  0.00     0.019 A 
ENDBRANCH   7  13
BRANCH  12  25
ATOM     25  C   UNN dAMED       3.442   0.542  -3.149  0.00  0.00     0.086 A 
ATOM     26  C   UNN dAMED       3.381   1.272  -4.344  0.00  0.00     0.019 A 
ATOM     27  C   UNN dAMED       3.901   0.768  -5.533  0.00  0.00     0.002 A 
ATOM     28  C   UNN dAMED       4.531  -0.472  -5.535  0.00  0.00     0.000 A 
ATOM     29  C   UNN dAMED       4.627  -1.227  -4.363  0.00  0.00     0.002 A 
ATOM     30  C   UNN dAMED       4.076  -0.707  -3.183  0.00  0.00     0.019 A 
ATOM     31  C   UNN dAMED       5.291  -2.520  -4.377  0.00  0.00     0.000 A 
ATOM     32  C   UNN dAMED       4.604  -3.665  -4.792  0.00  0.00     0.000 A 
ATOM     33  C   UNN dAMED       6.631  -2.645  -3.993  0.00  0.00     0.000 A 
ATOM     34  C   UNN dAMED       5.235  -4.907  -4.815  0.00  0.00     0.000 A 
ATOM     35  C   UNN dAMED       6.565  -5.018  -4.421  0.00  0.00     0.000 A 
ATOM     36  C   UNN dAMED       7.264  -3.887  -4.011  0.00  0.00     0.000 A 
ENDBRANCH  12  25
TORSDOF 2
