REMARK  5 active torsions:
REMARK  status: ('A' for Active; 'I' for Inactive)
REMARK    1  A    between atoms: C_2  and  C_3 
REMARK    2  A    between atoms: C_3  and  N_4 
REMARK    3  A    between atoms: N_4  and  C_5 
REMARK    4  A    between atoms: N_7  and  C_8 
REMARK    5  A    between atoms: C_8  and  C_9 
ROOT
ATOM      1  C   UNN dAMED      -0.714   1.096   2.178  0.00  0.00     0.213 C 
ATOM      2  S   UNN dAMED      -1.976   2.194   2.073  0.00  0.00    -0.037 SA
ATOM      3  N   UNN dAMED       0.059   0.968   3.251  0.00  0.00    -0.239 NA
ENDROOT
BRANCH   1   4
ATOM      4  N   UNN dAMED      -0.388   0.254   1.203  0.00  0.00    -0.239 NA
BRANCH   4   5
ATOM      5  C   UNN dAMED      -1.262   0.111   0.054  0.00  0.00     0.154 C 
BRANCH   5   6
ATOM      6  C   UNN dAMED      -2.747   0.465   0.168  0.00  0.00     0.000 C 
ATOM      7  C   UNN dAMED      -3.148   1.717  -0.044  0.00  0.00    -0.003 C 
ENDBRANCH   5   6
ENDBRANCH   4   5
ENDBRANCH   1   4
BRANCH   3   8
ATOM      8  C   UNN dAMED       0.974  -0.156   3.351  0.00  0.00     0.154 C 
BRANCH   8   9
ATOM      9  C   UNN dAMED       2.288  -0.147   2.564  0.00  0.00     0.000 C 
ATOM     10  C   UNN dAMED       2.305   0.278   1.302  0.00  0.00    -0.003 C 
ENDBRANCH   8   9
ENDBRANCH   3   8
TORSDOF 5
