REMARK  1 active torsions:
REMARK  status: ('A' for Active; 'I' for Inactive)
REMARK       I    between atoms: N_2  and  C_20 
REMARK    1  A    between atoms: C_14  and  C_20 
ROOT
ATOM      1  N   UNN dAMED       0.893   0.675   0.031  0.00  0.00    -0.217 NA
ATOM      2  N   UNN dAMED       1.928   3.392  -1.348  0.00  0.00    -0.249 NA
ATOM      3 CL   UNN dAMED       3.566   2.099  -3.604  0.00  0.00    -0.081 Cl
ATOM      4  C   UNN dAMED       0.535   4.631  -2.885  0.00  0.00     0.012 A 
ATOM      5  C   UNN dAMED       1.569   3.717  -2.670  0.00  0.00     0.047 A 
ATOM      6  C   UNN dAMED       0.195   5.035  -4.175  0.00  0.00     0.001 A 
ATOM      7  C   UNN dAMED       0.892   4.529  -5.268  0.00  0.00     0.001 A 
ATOM      8  C   UNN dAMED       2.262   3.214  -3.777  0.00  0.00     0.068 A 
ATOM      9  C   UNN dAMED       1.925   3.618  -5.069  0.00  0.00     0.012 A 
ATOM     10  C   UNN dAMED       2.675   2.164  -1.055  0.00  0.00     0.094 C 
ATOM     11  C   UNN dAMED       1.933   0.828  -0.945  0.00  0.00     0.097 C 
ATOM     12  C   UNN dAMED       0.912   3.228  -0.300  0.00  0.00     0.094 C 
ATOM     13  C   UNN dAMED       0.162   1.897  -0.152  0.00  0.00     0.097 C 
ATOM     14  C   UNN dAMED       1.489   0.723   1.270  0.00  0.00     0.238 C 
ATOM     15  O   UNN dAMED       1.258   1.575   2.120  0.00  0.00    -0.274 OA
ENDROOT
BRANCH  14  16
ATOM     16  C   UNN dAMED       2.442  -0.371   1.535  0.00  0.00     0.070 A 
ATOM     17  C   UNN dAMED       3.065  -0.449   2.771  0.00  0.00     0.103 A 
ATOM     18  N   UNN dAMED       3.954  -1.408   3.106  0.00  0.00    -0.242 NA
ATOM     19  C   UNN dAMED       4.230  -2.331   2.157  0.00  0.00     0.099 A 
ATOM     20  C   UNN dAMED       3.662  -2.342   0.893  0.00  0.00     0.021 A 
ATOM     21  C   UNN dAMED       2.752  -1.338   0.584  0.00  0.00     0.007 A 
ENDBRANCH  14  16
TORSDOF 1
