REMARK  2 active torsions:
REMARK  status: ('A' for Active; 'I' for Inactive)
REMARK    1  A    between atoms: C_5  and  AS_16 
REMARK    2  A    between atoms: C_10  and  AS_16 
ROOT
ATOM      1  O   UNN dAMED       1.329  -0.238  -0.085  0.00  0.00     0.000 OA
ATOM      2 AS   UNN dAMED       0.169   0.848  -0.053  0.00  0.00     0.000 As
ATOM      3  O   UNN dAMED      -1.389   0.037   0.029  0.00  0.00     0.000 OA
ENDROOT
BRANCH   2   4
ATOM      4  C   UNN dAMED       0.379   1.962   1.530  0.00  0.00    -0.003 C 
ATOM      5  C   UNN dAMED      -0.851   2.809   1.174  0.00  0.00     0.028 C 
ATOM      6  C   UNN dAMED      -1.526   3.548   2.331  0.00  0.00     0.005 C 
ATOM      7  C   UNN dAMED      -0.580   4.138   3.377  0.00  0.00     0.007 C 
ATOM      8  C   UNN dAMED       0.571   3.221   3.797  0.00  0.00     0.054 C 
ATOM      9  C   UNN dAMED       1.281   2.475   2.662  0.00  0.00     0.104 C 
ATOM     10  O   UNN dAMED       2.584   2.781   2.385  0.00  0.00    -0.195 OA
ENDBRANCH   2   4
BRANCH   2  11
ATOM     11  C   UNN dAMED       0.249   1.935  -1.632  0.00  0.00     0.000 A 
ATOM     12  C   UNN dAMED       0.068   1.112  -2.759  0.00  0.00     0.001 A 
ATOM     13  C   UNN dAMED       0.083   1.660  -4.037  0.00  0.00     0.011 A 
ATOM     14  C   UNN dAMED       0.279   3.029  -4.186  0.00  0.00     0.058 A 
ATOM     15 CL   UNN dAMED       0.313   3.711  -5.760  0.00  0.00    -0.082 Cl
ATOM     16  C   UNN dAMED       0.455   3.848  -3.074  0.00  0.00     0.011 A 
ATOM     17  C   UNN dAMED       0.439   3.294  -1.795  0.00  0.00     0.001 A 
ENDBRANCH   2  11
TORSDOF 2
