REMARK  2 active torsions:
REMARK  status: ('A' for Active; 'I' for Inactive)
REMARK    1  A    between atoms: C_7  and  S_14 
REMARK       I    between atoms: C_10  and  N_13 
REMARK    2  A    between atoms: N_13  and  S_14 
ROOT
ATOM      1  S   UNN dAMED       3.991   1.236   0.148  0.00  0.00    -0.071 SA
ATOM      2  N   UNN dAMED       3.153  -1.177  -0.231  0.00  0.00    -0.243 NA
ATOM      3  C   UNN dAMED       1.260   1.942   0.172  0.00  0.00     0.009 A 
ATOM      4  C   UNN dAMED       2.285   0.990   0.061  0.00  0.00     0.048 A 
ATOM      5  C   UNN dAMED      -0.057   1.500   0.058  0.00  0.00     0.014 A 
ATOM      6  C   UNN dAMED       2.027  -0.370  -0.149  0.00  0.00     0.088 A 
ATOM      7  C   UNN dAMED      -0.323   0.157  -0.170  0.00  0.00     0.107 A 
ATOM      8  C   UNN dAMED       0.690  -0.799  -0.261  0.00  0.00     0.033 A 
ATOM      9  C   UNN dAMED       4.214  -0.426  -0.089  0.00  0.00     0.089 A 
ATOM     10  C   UNN dAMED       5.590  -1.021  -0.160  0.00  0.00     0.059 C 
ENDROOT
BRANCH   7  11
ATOM     11  S   UNN dAMED      -2.028  -0.385  -0.290  0.00  0.00     0.288 S 
ATOM     12  O   UNN dAMED      -2.723   0.850  -0.650  0.00  0.00    -0.198 OA
ATOM     13  O   UNN dAMED      -1.956  -1.379  -1.358  0.00  0.00    -0.198 OA
BRANCH  11  14
ATOM     14  N   UNN dAMED      -2.382  -0.972   1.150  0.00  0.00    -0.122 NA
ATOM     15  C   UNN dAMED      -3.694  -1.055   1.343  0.00  0.00     0.266 C 
ATOM     16  O   UNN dAMED      -4.262  -1.691   2.221  0.00  0.00    -0.270 OA
ATOM     17  C   UNN dAMED      -4.561  -0.248   0.414  0.00  0.00     0.101 C 
ENDBRANCH  11  14
ENDBRANCH   7  11
TORSDOF 2
