REMARK  7 active torsions:
REMARK  status: ('A' for Active; 'I' for Inactive)
REMARK    1  A    between atoms: C_2  and  C_3 
REMARK    2  A    between atoms: C_3  and  C_4 
REMARK    3  A    between atoms: C_4  and  C_5 
REMARK       I    between atoms: C_5  and  N_7 
REMARK    4  A    between atoms: N_7  and  C_8 
REMARK    5  A    between atoms: N_7  and  C_11 
REMARK    6  A    between atoms: C_8  and  C_9 
REMARK    7  A    between atoms: C_11  and  C_12 
ROOT
ATOM      1  C   UNN dAMED      -1.656  -1.481   1.551  0.00  0.00     0.241 C 
ATOM      2  O   UNN dAMED      -2.447  -2.397   1.357  0.00  0.00    -0.272 OA
ATOM      3  N   UNN dAMED      -1.129  -1.154   2.778  0.00  0.00    -0.283 N 
ENDROOT
BRANCH   3   4
ATOM      4  C   UNN dAMED      -0.240  -0.080   2.571  0.00  0.00     0.056 C 
BRANCH   4   5
ATOM      5  C   UNN dAMED      -0.724   1.360   2.756  0.00  0.00     0.045 C 
ATOM      6  C   UNN dAMED      -1.626   1.718   3.943  0.00  0.00     0.007 C 
ENDBRANCH   4   5
ENDBRANCH   3   4
BRANCH   3   7
ATOM      7  C   UNN dAMED      -1.927  -1.791   3.750  0.00  0.00     0.056 C 
BRANCH   7   8
ATOM      8  C   UNN dAMED      -3.341  -2.259   3.390  0.00  0.00     0.045 C 
ATOM      9  C   UNN dAMED      -3.545  -3.298   2.284  0.00  0.00     0.007 C 
ENDBRANCH   7   8
ENDBRANCH   3   7
BRANCH   1  10
ATOM     10  C   UNN dAMED      -1.217  -0.667   0.365  0.00  0.00     0.088 C 
BRANCH  10  11
ATOM     11  C   UNN dAMED      -1.728   0.766   0.182  0.00  0.00     0.010 C 
BRANCH  11  12
ATOM     12  C   UNN dAMED      -3.179   1.016  -0.239  0.00  0.00     0.001 C 
ATOM     13  C   UNN dAMED      -3.715   2.450  -0.326  0.00  0.00     0.000 C 
ENDBRANCH  11  12
ENDBRANCH  10  11
ENDBRANCH   1  10
TORSDOF 7
