REMARK  2 active torsions:
REMARK  status: ('A' for Active; 'I' for Inactive)
REMARK    1  A    between atoms: C_5  and  N_18 
REMARK    2  A    between atoms: C_8  and  N_18 
ROOT
ATOM      1  N   UNN dAMED      -3.590  -0.281  -0.485  0.00  0.00    -0.199 NA
ATOM      2  N   UNN dAMED      -1.869  -1.915  -0.161  0.00  0.00    -0.195 NA
ATOM      3  C   UNN dAMED      -1.434   0.374   0.349  0.00  0.00     0.135 A 
ATOM      4  C   UNN dAMED      -1.014  -0.954   0.281  0.00  0.00     0.177 A 
ATOM      5  C   UNN dAMED      -2.730   0.658  -0.046  0.00  0.00     0.166 A 
ATOM      6  C   UNN dAMED      -3.116  -1.540  -0.523  0.00  0.00     0.240 A 
ATOM      7  N   UNN dAMED      -3.176   2.009   0.017  0.00  0.00    -0.079 NA
ATOM      8  C   UNN dAMED      -0.602   1.446   0.801  0.00  0.00     0.107 C 
ATOM      9  N   UNN dAMED       0.071   2.317   1.167  0.00  0.00    -0.191 NA
ATOM     10  N   UNN dAMED      -3.998  -2.560  -0.984  0.00  0.00    -0.059 NA
ENDROOT
BRANCH   4  11
ATOM     11  N   UNN dAMED       0.245  -1.315   0.652  0.00  0.00    -0.226 NA
BRANCH  11  12
ATOM     12  C   UNN dAMED       0.567  -2.621   0.548  0.00  0.00     0.083 A 
ATOM     13  C   UNN dAMED       1.168  -3.130  -0.612  0.00  0.00     0.020 A 
ATOM     14  C   UNN dAMED       1.550  -4.467  -0.707  0.00  0.00     0.008 A 
ATOM     15  C   UNN dAMED       1.350  -5.310   0.378  0.00  0.00     0.035 A 
ATOM     16 BR   UNN dAMED       1.857  -7.119   0.257  0.00  0.00    -0.049 Br
ATOM     17  C   UNN dAMED       0.781  -4.834   1.552  0.00  0.00     0.008 A 
ATOM     18  C   UNN dAMED       0.404  -3.495   1.633  0.00  0.00     0.020 A 
ENDBRANCH  11  12
ENDBRANCH   4  11
TORSDOF 2
