REMARK  0 active torsions:
REMARK  status: ('A' for Active; 'I' for Inactive)
ROOT
ATOM      1  N   UNN dAMED      -2.659   0.652   0.410  0.00  0.00    -0.251 NA
ATOM      2  O   UNN dAMED       1.414  -1.213   0.729  0.00  0.00    -0.330 OA
ATOM      3  C   UNN dAMED       0.395  -0.610  -0.051  0.00  0.00     0.237 C 
ATOM      4  C   UNN dAMED      -0.931  -1.355   0.103  0.00  0.00     0.081 C 
ATOM      5  C   UNN dAMED      -2.193  -0.631  -0.342  0.00  0.00     0.082 C 
ATOM      6  C   UNN dAMED      -0.016   0.770   0.505  0.00  0.00     0.020 C 
ATOM      7  C   UNN dAMED      -1.379   1.334   0.074  0.00  0.00     0.043 C 
ATOM      8  C   UNN dAMED       1.142   1.747   0.687  0.00  0.00     0.030 C 
ATOM      9  C   UNN dAMED       2.535  -0.384   0.591  0.00  0.00     0.145 C 
ATOM     10  C   UNN dAMED       2.433   1.058   1.088  0.00  0.00     0.037 C 
ATOM     11  C   UNN dAMED      -2.178  -0.637  -0.352  0.00  0.00     0.094 C 
ATOM     12  O   UNN dAMED       0.714  -0.510  -1.311  0.00  0.00    -0.191 OA
ENDROOT
TORSDOF 0
