REMARK  4 active torsions:
REMARK  status: ('A' for Active; 'I' for Inactive)
REMARK    1  A    between atoms: C_3  and  O_13 
REMARK    2  A    between atoms: C_5  and  N_7 
REMARK       I    between atoms: N_7  and  C_8 
REMARK    3  A    between atoms: O_13  and  C_14 
REMARK    4  A    between atoms: C_14  and  C_15 
ROOT
ATOM      1  C   UNN dAMED      -0.099   1.419  -0.207  0.00  0.00     0.021 A 
ATOM      2  C   UNN dAMED      -1.394   0.902  -0.217  0.00  0.00    -0.002 A 
ATOM      3  C   UNN dAMED       0.972   0.551  -0.060  0.00  0.00     0.094 A 
ATOM      4  C   UNN dAMED       0.773  -0.816   0.074  0.00  0.00     0.021 A 
ATOM      5  C   UNN dAMED      -1.639  -0.478  -0.103  0.00  0.00     0.076 A 
ATOM      6  C   UNN dAMED      -0.528  -1.321   0.056  0.00  0.00    -0.002 A 
ATOM      7  C   UNN dAMED      -2.553   1.824  -0.469  0.00  0.00     0.033 C 
ATOM      8  C   UNN dAMED      -0.744  -2.803   0.191  0.00  0.00     0.033 C 
ENDROOT
BRANCH   3   9
ATOM      9  O   UNN dAMED       2.242   1.047  -0.088  0.00  0.00    -0.320 OA
BRANCH   9  10
ATOM     10  C   UNN dAMED       2.111   2.413   0.191  0.00  0.00     0.246 C 
BRANCH  10  11
ATOM     11  C   UNN dAMED       3.177   3.419  -0.190  0.00  0.00     0.217 C 
ATOM     12  O   UNN dAMED       4.164   2.998  -0.866  0.00  0.00    -0.645 OA
ATOM     13  O   UNN dAMED       2.978   4.611   0.194  0.00  0.00    -0.645 OA
ENDBRANCH  10  11
ENDBRANCH   9  10
ENDBRANCH   3   9
BRANCH   5  14
ATOM     14  N   UNN dAMED      -2.888  -0.986  -0.078  0.00  0.00    -0.212 NA
ATOM     15  C   UNN dAMED      -3.540  -0.717  -1.207  0.00  0.00     0.256 C 
ATOM     16  O   UNN dAMED      -4.377  -1.426  -1.754  0.00  0.00    -0.270 OA
ATOM     17  C   UNN dAMED      -3.324   0.654  -1.787  0.00  0.00     0.100 C 
ENDBRANCH   5  14
TORSDOF 4
