REMARK  4 active torsions:
REMARK  status: ('A' for Active; 'I' for Inactive)
REMARK    1  A    between atoms: N_5  and  C_9 
REMARK    2  A    between atoms: N_6  and  C_12 
REMARK    3  A    between atoms: C_14  and  AS_21 
REMARK    4  A    between atoms: C_17  and  S_18 
ROOT
ATOM      1  N   UNN dAMED      -0.661   0.072   0.392  0.00  0.00    -0.141 NA
ATOM      2  N   UNN dAMED      -0.207  -0.474   1.419  0.00  0.00    -0.148 NA
ENDROOT
BRANCH   1   3
ATOM      3  C   UNN dAMED      -2.011  -0.073   0.226  0.00  0.00     0.190 A 
ATOM      4  C   UNN dAMED      -2.973   0.554   1.215  0.00  0.00     0.303 A 
ATOM      5  N   UNN dAMED      -4.334   0.365   1.005  0.00  0.00    -0.183 NA
ATOM      6  O   UNN dAMED      -2.533   1.197   2.164  0.00  0.00    -0.263 OA
ATOM      7  C   UNN dAMED      -4.723  -0.279  -0.055  0.00  0.00     0.172 A 
ATOM      8  N   UNN dAMED      -3.887  -0.810  -0.999  0.00  0.00    -0.322 N 
ATOM      9  C   UNN dAMED      -2.536  -0.702  -0.836  0.00  0.00     0.154 A 
ATOM     10  H   UNN dAMED      -4.231  -1.310  -1.810  0.00  0.00     0.169 HD
ATOM     11  N   UNN dAMED      -1.664  -1.256  -1.816  0.00  0.00    -0.080 NA
BRANCH   7  12
ATOM     12  S   UNN dAMED      -6.443  -0.498  -0.318  0.00  0.00    -0.076 SA
ATOM     13  C   UNN dAMED      -6.340  -0.390  -2.102  0.00  0.00     0.077 C 
ENDBRANCH   7  12
ENDBRANCH   1   3
BRANCH   2  14
ATOM     14  C   UNN dAMED       1.192  -0.366   1.471  0.00  0.00     0.103 A 
ATOM     15  C   UNN dAMED       1.852   0.865   1.376  0.00  0.00     0.021 A 
ATOM     16  C   UNN dAMED       3.239   0.944   1.497  0.00  0.00     0.002 A 
ATOM     17  C   UNN dAMED       3.976  -0.200   1.744  0.00  0.00     0.000 A 
ATOM     18  C   UNN dAMED       3.325  -1.436   1.869  0.00  0.00     0.002 A 
ATOM     19  C   UNN dAMED       1.942  -1.514   1.731  0.00  0.00     0.021 A 
BRANCH  17  20
ATOM     20 AS   UNN dAMED       5.853  -0.379   2.101  0.00  0.00     0.000 As
ATOM     21  O   UNN dAMED       6.111  -0.224   3.661  0.00  0.00     0.000 OA
ATOM     22  O   UNN dAMED       6.736   0.876   1.240  0.00  0.00     0.000 OA
ATOM     23  O   UNN dAMED       6.427  -1.955   1.569  0.00  0.00     0.000 OA
ENDBRANCH  17  20
ENDBRANCH   2  14
TORSDOF 4
