REMARK  2 active torsions:
REMARK  status: ('A' for Active; 'I' for Inactive)
REMARK    1  A    between atoms: C_3  and  C_14 
REMARK    2  A    between atoms: C_13  and  C_14 
ROOT
ATOM      1  O   UNN dAMED       0.731  -1.928  -0.162  0.00  0.00    -0.080 OA
ATOM      2  N   UNN dAMED      -0.337  -1.231  -0.150  0.00  0.00    -0.184 N 
ATOM      3  C   UNN dAMED       0.842   0.982   0.131  0.00  0.00     0.055 A 
ATOM      4  C   UNN dAMED      -0.323   0.189  -0.005  0.00  0.00     0.093 A 
ATOM      5  C   UNN dAMED       0.787   2.369   0.257  0.00  0.00     0.004 A 
ATOM      6  C   UNN dAMED      -1.563   0.873   0.000  0.00  0.00     0.018 A 
ATOM      7  C   UNN dAMED      -0.446   3.007   0.265  0.00  0.00     0.000 A 
ATOM      8  C   UNN dAMED      -2.755   0.176  -0.134  0.00  0.00     0.003 A 
ATOM      9  C   UNN dAMED      -1.550  -1.899  -0.282  0.00  0.00     0.108 A 
ATOM     10  C   UNN dAMED      -2.752  -1.201  -0.276  0.00  0.00     0.021 A 
ATOM     11  C   UNN dAMED      -1.613   2.261   0.136  0.00  0.00     0.002 A 
ENDROOT
BRANCH   3  12
ATOM     12  C   UNN dAMED       2.184   0.404   0.091  0.00  0.00     0.214 C 
ATOM     13  O   UNN dAMED       2.747   0.102   1.135  0.00  0.00    -0.289 OA
BRANCH  12  14
ATOM     14  C   UNN dAMED       2.668  -0.196  -1.200  0.00  0.00     0.407 C 
ATOM     15  N   UNN dAMED       2.422  -1.600  -1.483  0.00  0.00     0.627 N 
ENDBRANCH  12  14
ENDBRANCH   3  12
TORSDOF 2
