REMARK  3 active torsions:
REMARK  status: ('A' for Active; 'I' for Inactive)
REMARK    1  A    between atoms: C_3  and  N_17 
REMARK    2  A    between atoms: C_9  and  N_14 
REMARK    3  A    between atoms: N_14  and  C_15 
ROOT
ATOM      1  C   UNN dAMED       1.279  -0.725   2.281  0.00  0.00     0.221 C 
ATOM      2  S   UNN dAMED       1.583  -2.396   2.479  0.00  0.00    -0.037 SA
ATOM      3  N   UNN dAMED       1.273  -0.107   1.073  0.00  0.00    -0.217 NA
ENDROOT
BRANCH   1   4
ATOM      4  N   UNN dAMED       1.003   0.178   3.258  0.00  0.00    -0.217 NA
BRANCH   4   5
ATOM      5  C   UNN dAMED       0.299  -0.266   4.324  0.00  0.00     0.084 A 
ATOM      6  C   UNN dAMED       0.895  -0.303   5.585  0.00  0.00     0.022 A 
ATOM      7  C   UNN dAMED       0.217  -0.824   6.692  0.00  0.00     0.044 A 
ATOM      8  C   UNN dAMED      -1.086  -1.335   6.626  0.00  0.00     0.196 A 
ATOM      9  C   UNN dAMED      -1.682  -1.225   5.361  0.00  0.00     0.044 A 
ATOM     10  O   UNN dAMED      -1.676  -1.854   7.628  0.00  0.00    -0.287 OA
ATOM     11  C   UNN dAMED      -1.028  -0.692   4.242  0.00  0.00     0.022 A 
ENDBRANCH   4   5
ENDBRANCH   1   4
BRANCH   3  12
ATOM     12  C   UNN dAMED       2.458  -0.140   0.413  0.00  0.00     0.084 A 
ATOM     13  C   UNN dAMED       2.551  -0.803  -0.818  0.00  0.00     0.019 A 
ATOM     14  C   UNN dAMED       3.755  -0.885  -1.517  0.00  0.00     0.002 A 
ATOM     15  C   UNN dAMED       4.899  -0.294  -0.993  0.00  0.00     0.000 A 
ATOM     16  C   UNN dAMED       4.830   0.397   0.212  0.00  0.00     0.002 A 
ATOM     17  C   UNN dAMED       3.618   0.482   0.898  0.00  0.00     0.019 A 
ENDBRANCH   3  12
TORSDOF 3
