REMARK  1 active torsions:
REMARK  status: ('A' for Active; 'I' for Inactive)
REMARK    1  A    between atoms: C_7  and  S_13 
ROOT
ATOM      1  O   UNN dAMED       0.601  -2.596  -0.225  0.00  0.00    -0.265 OA
ATOM      2  N   UNN dAMED       1.434  -0.504   0.254  0.00  0.00    -0.273 N 
ATOM      3  N   UNN dAMED       0.163   1.429  -0.071  0.00  0.00    -0.202 NA
ATOM      4  C   UNN dAMED       0.433  -1.405   0.010  0.00  0.00     0.285 C 
ATOM      5  C   UNN dAMED      -0.907  -0.733  -0.037  0.00  0.00     0.202 C 
ATOM      6  C   UNN dAMED      -0.976   0.625  -0.102  0.00  0.00     0.185 C 
ATOM      7  C   UNN dAMED       1.303   0.842   0.099  0.00  0.00     0.175 C 
ATOM      8  N   UNN dAMED      -1.976  -1.531  -0.101  0.00  0.00    -0.088 NA
ATOM      9  O   UNN dAMED      -2.146  -2.224   0.910  0.00  0.00    -0.060 OA
ATOM     10  C   UNN dAMED       2.714  -0.981  -0.131  0.00  0.00     0.136 C 
ATOM     11  N   UNN dAMED      -2.091   1.388  -0.226  0.00  0.00    -0.249 NA
ATOM     12  C   UNN dAMED      -2.003   2.676  -0.897  0.00  0.00     0.154 C 
ENDROOT
BRANCH   7  13
ATOM     13  S   UNN dAMED       2.807   1.711   0.130  0.00  0.00    -0.076 SA
ATOM     14  C   UNN dAMED       3.834   0.250  -0.014  0.00  0.00     0.077 C 
ENDBRANCH   7  13
TORSDOF 1
