REMARK  2 active torsions:
REMARK  status: ('A' for Active; 'I' for Inactive)
REMARK    1  A    between atoms: C_12  and  C_20 
REMARK    2  A    between atoms: C_14  and  C_20 
ROOT
ATOM      1  O   UNN dAMED      -0.581   4.159  -0.312  0.00  0.00    -0.256 OA
ATOM      2  O   UNN dAMED       0.537   2.152  -0.040  0.00  0.00    -0.298 OA
ATOM      3  O   UNN dAMED      -2.540   2.483  -1.510  0.00  0.00    -0.285 OA
ATOM      4  C   UNN dAMED      -1.724   2.079  -0.697  0.00  0.00     0.242 A 
ATOM      5  C   UNN dAMED      -0.530   2.947  -0.340  0.00  0.00     0.331 A 
ATOM      6  C   UNN dAMED      -1.281   0.670  -0.690  0.00  0.00     0.118 A 
ATOM      7  C   UNN dAMED      -2.118  -0.453  -0.129  0.00  0.00    -0.013 A 
ATOM      8  C   UNN dAMED      -1.920  -1.746  -0.611  0.00  0.00    -0.004 A 
ATOM      9  C   UNN dAMED      -2.543  -2.826   0.010  0.00  0.00    -0.000 A 
ATOM     10  C   UNN dAMED      -3.356  -2.617   1.121  0.00  0.00    -0.000 A 
ATOM     11  C   UNN dAMED      -2.924  -0.249   0.991  0.00  0.00    -0.004 A 
ATOM     12  C   UNN dAMED       0.153   0.813  -0.268  0.00  0.00     0.140 A 
ATOM     13  C   UNN dAMED      -3.547  -1.328   1.612  0.00  0.00    -0.000 A 
ENDROOT
BRANCH  12  14
ATOM     14  C   UNN dAMED       0.863  -0.352   0.433  0.00  0.00     0.057 C 
BRANCH  14  15
ATOM     15  C   UNN dAMED       2.339  -0.591   0.275  0.00  0.00    -0.020 A 
ATOM     16  C   UNN dAMED       3.092   0.202  -0.587  0.00  0.00    -0.004 A 
ATOM     17  C   UNN dAMED       4.466   0.000  -0.693  0.00  0.00    -0.000 A 
ATOM     18  C   UNN dAMED       5.084  -0.997   0.058  0.00  0.00    -0.000 A 
ATOM     19  C   UNN dAMED       4.329  -1.792   0.917  0.00  0.00    -0.000 A 
ATOM     20  C   UNN dAMED       2.956  -1.587   1.027  0.00  0.00    -0.004 A 
ENDBRANCH  14  15
ENDBRANCH  12  14
TORSDOF 2
