REMARK  2 active torsions:
REMARK  status: ('A' for Active; 'I' for Inactive)
REMARK    1  A    between atoms: C_3  and  S_13 
REMARK    2  A    between atoms: C_7  and  S_9 
ROOT
ATOM      1 CL   UNN dAMED       0.550  -3.659  -0.203  0.00  0.00    -0.081 Cl
ATOM      2  C   UNN dAMED       1.482  -1.139  -0.063  0.00  0.00     0.025 A 
ATOM      3  C   UNN dAMED       1.298   0.240   0.005  0.00  0.00     0.108 A 
ATOM      4  C   UNN dAMED       0.357  -1.957  -0.115  0.00  0.00     0.072 A 
ATOM      5  C   UNN dAMED       0.039   0.825   0.028  0.00  0.00     0.027 A 
ATOM      6  C   UNN dAMED      -0.921  -1.408  -0.089  0.00  0.00     0.093 A 
ATOM      7  C   UNN dAMED      -1.057  -0.026  -0.019  0.00  0.00     0.121 A 
ATOM      8  N   UNN dAMED      -2.070  -2.246  -0.143  0.00  0.00    -0.099 NA
ENDROOT
BRANCH   3   9
ATOM      9  S   UNN dAMED       2.696   1.299   0.078  0.00  0.00     0.302 S 
ATOM     10  O   UNN dAMED       3.550   0.895  -1.024  0.00  0.00    -0.197 OA
ATOM     11  O   UNN dAMED       3.172   1.200   1.446  0.00  0.00    -0.197 OA
ATOM     12  N   UNN dAMED       2.178   2.903  -0.200  0.00  0.00    -0.043 N 
ENDBRANCH   3   9
BRANCH   7  13
ATOM     13  S   UNN dAMED      -2.659   0.687   0.026  0.00  0.00     0.303 S 
ATOM     14  O   UNN dAMED      -3.258   0.371  -1.258  0.00  0.00    -0.197 OA
ATOM     15  O   UNN dAMED      -3.264   0.196   1.251  0.00  0.00    -0.197 OA
ATOM     16  N   UNN dAMED      -2.498   2.383   0.143  0.00  0.00    -0.043 N 
ENDBRANCH   7  13
TORSDOF 2
