REMARK  2 active torsions:
REMARK  status: ('A' for Active; 'I' for Inactive)
REMARK    1  A    between atoms: C_3  and  C_7 
REMARK    2  A    between atoms: CA_4  and  C_9 
REMARK       I    between atoms: C_7  and  N_12 
REMARK       I    between atoms: N_12  and  C_13 
ROOT
ATOM      1  N   UNN dAMED       0.362   1.341  -0.486  0.00  0.00    -0.236 NA
ATOM      2  N   UNN dAMED      -2.385   0.828  -0.596  0.00  0.00    -0.235 NA
ATOM      3  C   UNN dAMED      -0.153   0.149  -0.103  0.00  0.00     0.163 A 
ATOM      4  CA  UNN dAMED      -1.516  -0.115  -0.163  0.00  0.00     0.168 A 
ATOM      5  C   UNN dAMED      -0.513   2.259  -0.939  0.00  0.00     0.120 A 
ATOM      6  C   UNN dAMED      -1.867   2.012  -0.979  0.00  0.00     0.120 A 
ENDROOT
BRANCH   3   7
ATOM      7  C   UNN dAMED       0.826  -0.816   0.463  0.00  0.00     0.302 C 
ATOM      8  O   UNN dAMED       0.474  -1.476   1.439  0.00  0.00    -0.263 OA
ATOM      9  N   UNN dAMED       2.012  -0.817  -0.155  0.00  0.00    -0.155 NA
ATOM     10  C   UNN dAMED       2.926  -1.515   0.520  0.00  0.00     0.357 C 
ATOM     11  O   UNN dAMED       3.343  -1.292   1.652  0.00  0.00    -0.248 OA
ATOM     12  N   UNN dAMED       3.595  -2.537  -0.215  0.00  0.00    -0.038 NA
ENDBRANCH   3   7
BRANCH   4  13
ATOM     13  C   UNN dAMED      -2.103  -1.422   0.235  0.00  0.00     0.231 C 
ATOM     14  O   UNN dAMED      -2.039  -2.351  -0.625  0.00  0.00    -0.643 OA
ATOM     15  OXT UNN dAMED      -2.621  -1.478   1.391  0.00  0.00    -0.643 OA
ENDBRANCH   4  13
TORSDOF 2
