REMARK  1 active torsions:
REMARK  status: ('A' for Active; 'I' for Inactive)
REMARK    1  A    between atoms: C_17  and  C_24 
ROOT
ATOM      1  C   UNN dAMED     -13.324   2.200  -1.552  0.00  0.00     0.014 A 
ATOM      2  C   UNN dAMED     -12.532   2.455  -2.665  0.00  0.00     0.003 A 
ATOM      3  C   UNN dAMED     -11.173   2.139  -2.645  0.00  0.00     0.019 A 
ATOM      4  C   UNN dAMED     -12.755   1.622  -0.422  0.00  0.00     0.071 A 
ATOM      5  C   UNN dAMED     -11.399   1.300  -0.403  0.00  0.00     0.030 A 
ATOM      6  C   UNN dAMED     -10.574   1.563  -1.534  0.00  0.00     0.082 A 
ATOM      7  N   UNN dAMED      -9.256   1.283  -1.551  0.00  0.00    -0.244 NA
ATOM      8  C   UNN dAMED     -10.850   0.718   0.741  0.00  0.00     0.002 A 
ATOM      9  C   UNN dAMED      -8.560  -0.033   1.760  0.00  0.00     0.138 A 
ATOM     10  C   UNN dAMED      -9.516   0.403   0.697  0.00  0.00     0.020 A 
ATOM     11  C   UNN dAMED      -8.785   0.707  -0.439  0.00  0.00     0.095 A 
ATOM     12  C   UNN dAMED      -6.170  -0.052   1.947  0.00  0.00     0.259 C 
ATOM     13  N   UNN dAMED      -7.271  -0.082   1.142  0.00  0.00    -0.290 N 
ATOM     14  C   UNN dAMED      -7.395   0.418  -0.132  0.00  0.00     0.080 A 
ATOM     15  C   UNN dAMED      -6.313   0.870  -0.767  0.00  0.00     0.017 C 
ATOM     16  C   UNN dAMED      -4.986   0.799  -0.033  0.00  0.00     0.019 C 
ATOM     17  C   UNN dAMED      -3.723   1.294  -0.646  0.00  0.00     0.222 C 
ATOM     18  C   UNN dAMED      -2.748   1.956   0.332  0.00  0.00     0.304 C 
ATOM     19  O   UNN dAMED      -2.732   1.530   1.627  0.00  0.00    -0.295 OA
ATOM     20  C   UNN dAMED      -3.580   0.429   1.826  0.00  0.00     0.183 C 
ATOM     21  C   UNN dAMED      -4.954   0.432   1.251  0.00  0.00     0.063 C 
ATOM     22  O   UNN dAMED      -6.136  -0.375   3.129  0.00  0.00    -0.267 OA
ATOM     23  O   UNN dAMED      -2.018   2.876  -0.035  0.00  0.00    -0.261 OA
ATOM     24  O   UNN dAMED      -3.110   0.313  -1.257  0.00  0.00    -0.211 OA
ATOM     25  N   UNN dAMED     -13.559   1.367   0.725  0.00  0.00    -0.101 NA
ENDROOT
BRANCH  17  26
ATOM     26  C   UNN dAMED      -4.099   2.354  -1.689  0.00  0.00     0.045 C 
ATOM     27  C   UNN dAMED      -5.040   3.502  -1.310  0.00  0.00     0.004 C 
ENDBRANCH  17  26
TORSDOF 1
