REMARK  3 active torsions:
REMARK  status: ('A' for Active; 'I' for Inactive)
REMARK    1  A    between atoms: C_4  and  N_8 
REMARK    2  A    between atoms: C_6  and  O_12 
REMARK       I    between atoms: N_8  and  C_9 
REMARK       I    between atoms: C_9  and  N_14 
REMARK    3  A    between atoms: N_14  and  N_15 
ROOT
ATOM      1  O   UNN dAMED      -2.849   0.338  -0.671  0.00  0.00    -0.302 OA
ATOM      2  C   UNN dAMED      -1.793  -0.228  -1.397  0.00  0.00     0.206 C 
ATOM      3  C   UNN dAMED      -0.776  -1.145  -0.698  0.00  0.00     0.159 C 
ATOM      4  C   UNN dAMED      -0.493  -0.828   0.791  0.00  0.00     0.139 C 
ATOM      5  C   UNN dAMED      -1.644  -0.092   1.491  0.00  0.00     0.196 C 
ATOM      6  C   UNN dAMED      -2.408   0.845   0.555  0.00  0.00     0.223 C 
ATOM      7  O   UNN dAMED       0.093  -1.865  -1.477  0.00  0.00    -0.191 OA
ATOM      8  O   UNN dAMED      -2.363  -0.734   2.466  0.00  0.00    -0.184 OA
ENDROOT
BRANCH   4   9
ATOM      9  N   UNN dAMED       0.534  -1.512   1.581  0.00  0.00    -0.193 NA
ATOM     10  C   UNN dAMED       1.831  -1.421   1.278  0.00  0.00     0.341 C 
ATOM     11  O   UNN dAMED       2.505  -0.394   1.331  0.00  0.00    -0.250 OA
ATOM     12  N   UNN dAMED       2.374  -2.627   0.827  0.00  0.00    -0.102 NA
ATOM     13  C   UNN dAMED       1.853  -2.843  -0.481  0.00  0.00     0.122 C 
BRANCH  12  14
ATOM     14  N   UNN dAMED       2.187  -3.802   1.538  0.00  0.00     0.040 NA
ATOM     15  O   UNN dAMED       2.878  -3.831   2.562  0.00  0.00    -0.082 OA
ENDBRANCH  12  14
ENDBRANCH   4   9
BRANCH   6  16
ATOM     16  O   UNN dAMED      -2.401   2.267   0.788  0.00  0.00    -0.307 OA
ATOM     17  C   UNN dAMED      -3.109   1.039   1.040  0.00  0.00     0.184 C 
ENDBRANCH   6  16
TORSDOF 3
