REMARK  1 active torsions:
REMARK  status: ('A' for Active; 'I' for Inactive)
REMARK    1  A    between atoms: C_18  and  C_21 
ROOT
ATOM      1  N   UNN dAMED      -3.880  -1.757   0.340  0.00  0.00    -0.213 NA
ATOM      2  S   UNN dAMED      -4.896  -0.818  -2.022  0.00  0.00    -0.056 SA
ATOM      3  N   UNN dAMED      -1.908  -0.841   1.368  0.00  0.00    -0.326 N 
ATOM      4  H   UNN dAMED      -1.215  -0.832   2.110  0.00  0.00     0.168 HD
ATOM      5  O   UNN dAMED       2.674  -2.080  -0.463  0.00  0.00    -0.332 OA
ATOM      6  N   UNN dAMED      -2.317   0.951  -1.638  0.00  0.00    -0.226 NA
ATOM      7  O   UNN dAMED       1.371   0.937   0.979  0.00  0.00    -0.335 OA
ATOM      8  O   UNN dAMED       0.635  -1.457  -1.595  0.00  0.00    -0.331 OA
ATOM      9  N   UNN dAMED      -0.928   0.975   0.100  0.00  0.00    -0.173 NA
ATOM     10  C   UNN dAMED      -3.832  -0.900  -0.745  0.00  0.00     0.157 A 
ATOM     11  C   UNN dAMED      -2.712   0.013  -0.713  0.00  0.00     0.137 A 
ATOM     12  C   UNN dAMED      -1.833   0.001   0.334  0.00  0.00     0.125 A 
ATOM     13  C   UNN dAMED      -1.195   1.461  -1.154  0.00  0.00     0.156 C 
ATOM     14  C   UNN dAMED      -3.037  -1.776   1.287  0.00  0.00     0.177 A 
ATOM     15  C   UNN dAMED       0.375   0.400   0.118  0.00  0.00     0.216 A 
ATOM     16  C   UNN dAMED       0.571  -1.067  -0.261  0.00  0.00     0.191 A 
ATOM     17  C   UNN dAMED       1.815  -1.449   0.427  0.00  0.00     0.178 A 
ATOM     18  C   UNN dAMED       2.246  -0.171   1.130  0.00  0.00     0.179 A 
ATOM     19  C   UNN dAMED       1.928  -2.086  -1.694  0.00  0.00     0.188 A 
ATOM     20  C   UNN dAMED       1.752  -3.535  -2.169  0.00  0.00     0.061 C 
ATOM     21  C   UNN dAMED       2.748  -1.386  -2.787  0.00  0.00     0.061 C 
ENDROOT
BRANCH  18  22
ATOM     22  C   UNN dAMED       3.336  -0.181   2.206  0.00  0.00     0.214 C 
ATOM     23  O   UNN dAMED       3.133  -0.856   3.378  0.00  0.00    -0.218 OA
ENDBRANCH  18  22
TORSDOF 1
