REMARK  2 active torsions:
REMARK  status: ('A' for Active; 'I' for Inactive)
REMARK    1  A    between atoms: C_8  and  N_18 
REMARK    2  A    between atoms: C_11  and  N_14 
REMARK       I    between atoms: N_14  and  C_19 
REMARK       I    between atoms: N_18  and  C_22 
ROOT
ATOM      1  C   UNN dAMED       2.581  -1.833   0.034  0.00  0.00     0.003 A 
ATOM      2  C   UNN dAMED       0.060  -1.934   0.146  0.00  0.00     0.003 A 
ATOM      3  C   UNN dAMED      -2.365  -1.995   0.258  0.00  0.00     0.003 A 
ATOM      4  C   UNN dAMED       3.686  -1.087  -0.065  0.00  0.00     0.017 A 
ATOM      5  C   UNN dAMED       1.225  -1.190   0.035  0.00  0.00     0.018 A 
ATOM      6  C   UNN dAMED      -1.168  -1.279   0.146  0.00  0.00     0.018 A 
ATOM      7  C   UNN dAMED      -3.586  -1.323   0.263  0.00  0.00     0.017 A 
ATOM      8  C   UNN dAMED       3.621   0.415  -0.197  0.00  0.00     0.060 A 
ATOM      9  C   UNN dAMED       1.140   0.189  -0.075  0.00  0.00     0.083 A 
ATOM     10  C   UNN dAMED      -1.175   0.124   0.031  0.00  0.00     0.083 A 
ATOM     11  C   UNN dAMED      -3.606   0.064   0.155  0.00  0.00     0.060 A 
ATOM     12  C   UNN dAMED       2.418   1.000  -0.195  0.00  0.00     0.036 A 
ATOM     13  C   UNN dAMED      -2.404   0.765   0.033  0.00  0.00     0.036 A 
ATOM     14  N   UNN dAMED      -0.044   0.845  -0.078  0.00  0.00    -0.245 NA
ENDROOT
BRANCH   8  15
ATOM     15  N   UNN dAMED       4.769   1.143  -0.281  0.00  0.00    -0.325 N 
ATOM     16  H   UNN dAMED       5.638   0.707   0.010  0.00  0.00     0.169 HD
ATOM     17  C   UNN dAMED       4.783   2.412  -0.808  0.00  0.00     0.235 C 
ATOM     18  O   UNN dAMED       5.804   3.043  -1.062  0.00  0.00    -0.272 OA
ATOM     19  C   UNN dAMED       3.461   3.081  -1.061  0.00  0.00     0.098 C 
ENDBRANCH   8  15
BRANCH  11  20
ATOM     20  N   UNN dAMED      -4.838   0.737   0.145  0.00  0.00    -0.325 N 
ATOM     21  H   UNN dAMED      -5.688   0.204  -0.012  0.00  0.00     0.169 HD
ATOM     22  C   UNN dAMED      -4.923   2.104   0.320  0.00  0.00     0.235 C 
ATOM     23  O   UNN dAMED      -5.837   2.798  -0.111  0.00  0.00    -0.272 OA
ATOM     24  C   UNN dAMED      -3.840   2.784   1.113  0.00  0.00     0.098 C 
ENDBRANCH  11  20
TORSDOF 2
