REMARK  3 active torsions:
REMARK  status: ('A' for Active; 'I' for Inactive)
REMARK    1  A    between atoms: N_2  and  C_7 
REMARK    2  A    between atoms: C_7  and  C_8 
REMARK    3  A    between atoms: C_8  and  C_9 
ROOT
ATOM      1  N   UNN dAMED      -2.452  -0.341   0.602  0.00  0.00    -0.236 NA
ATOM      2  N   UNN dAMED      -0.832   0.283  -0.760  0.00  0.00    -0.218 NA
ATOM      3  C   UNN dAMED      -1.693   1.338  -0.731  0.00  0.00     0.073 C 
ATOM      4  C   UNN dAMED      -2.736   0.889   0.053  0.00  0.00     0.112 C 
ATOM      5  C   UNN dAMED      -1.270  -0.658   0.120  0.00  0.00     0.101 C 
ATOM      6  C   UNN dAMED      -0.301  -1.449   0.950  0.00  0.00     0.065 C 
ENDROOT
BRANCH   2   7
ATOM      7  C   UNN dAMED       0.460   0.718  -0.359  0.00  0.00     0.083 C 
BRANCH   7   8
ATOM      8  C   UNN dAMED       0.650   1.389   1.005  0.00  0.00     0.018 C 
BRANCH   8   9
ATOM      9  C   UNN dAMED       0.065   0.741   2.264  0.00  0.00     0.002 C 
ATOM     10  C   UNN dAMED       0.697  -0.532   2.834  0.00  0.00     0.000 C 
ENDBRANCH   8   9
ENDBRANCH   7   8
ENDBRANCH   2   7
TORSDOF 3
