REMARK  3 active torsions:
REMARK  status: ('A' for Active; 'I' for Inactive)
REMARK    1  A    between atoms: N_4  and  C_15 
REMARK    2  A    between atoms: C_13  and  N_18 
REMARK    3  A    between atoms: C_15  and  C_16 
REMARK       I    between atoms: C_16  and  N_18 
ROOT
ATOM      1  O   UNN dAMED      -2.817   1.502   1.254  0.00  0.00    -0.267 OA
ATOM      2  N   UNN dAMED      -2.767  -0.633   0.372  0.00  0.00    -0.279 N 
ATOM      3  H   UNN dAMED      -3.682  -0.816   0.775  0.00  0.00     0.173 HD
ATOM      4  N   UNN dAMED      -1.151  -1.266  -1.255  0.00  0.00    -0.173 NA
ATOM      5  O   UNN dAMED      -3.185  -2.278  -1.142  0.00  0.00    -0.253 OA
ATOM      6  C   UNN dAMED      -0.481  -0.002  -0.869  0.00  0.00     0.060 C 
ATOM      7  C   UNN dAMED      -1.117   0.997  -0.266  0.00  0.00     0.073 C 
ATOM      8  C   UNN dAMED      -2.260   0.625   0.605  0.00  0.00     0.262 C 
ATOM      9  C   UNN dAMED      -2.397  -1.439  -0.690  0.00  0.00     0.309 C 
ENDROOT
BRANCH   4  10
ATOM     10  C   UNN dAMED      -0.237  -0.718  -0.220  0.00  0.00     0.176 C 
BRANCH  10  11
ATOM     11  C   UNN dAMED       0.949   0.150  -0.596  0.00  0.00     0.275 C 
ATOM     12  O   UNN dAMED       0.685   1.300  -0.930  0.00  0.00    -0.269 OA
ATOM     13  N   UNN dAMED       2.180  -0.328  -0.421  0.00  0.00    -0.185 NA
BRANCH  13  14
ATOM     14  C   UNN dAMED       2.231  -1.673  -0.283  0.00  0.00     0.197 A 
ATOM     15  N   UNN dAMED       1.304  -2.455   0.234  0.00  0.00    -0.219 NA
ATOM     16  C   UNN dAMED       1.752  -3.759   0.256  0.00  0.00     0.108 A 
ATOM     17  C   UNN dAMED       3.026  -3.954  -0.211  0.00  0.00     0.059 A 
ATOM     18  S   UNN dAMED       3.703  -2.479  -0.713  0.00  0.00    -0.046 SA
ENDBRANCH  13  14
ENDBRANCH  10  11
ENDBRANCH   4  10
TORSDOF 3
