REMARK  5 active torsions:
REMARK  status: ('A' for Active; 'I' for Inactive)
REMARK    1  A    between atoms: N_2  and  C_24 
REMARK    2  A    between atoms: C_15  and  O_20 
REMARK    3  A    between atoms: O_20  and  C_21 
REMARK    4  A    between atoms: C_21  and  C_22 
REMARK    5  A    between atoms: C_22  and  C_24 
ROOT
ATOM      1  N   UNN dAMED       2.577  -2.392  -4.232  0.00  0.00     0.147 N 
ATOM      2  N   UNN dAMED       0.116  -5.630  -5.286  0.00  0.00    -0.248 NA
ATOM      3  C   UNN dAMED      -0.912  -7.813  -5.016  0.00  0.00     0.011 A 
ATOM      4  C   UNN dAMED       0.217  -7.043  -5.289  0.00  0.00     0.036 A 
ATOM      5  C   UNN dAMED      -0.819  -9.211  -4.930  0.00  0.00     0.001 A 
ATOM      6  C   UNN dAMED       0.404  -9.833  -5.120  0.00  0.00    -0.004 A 
ATOM      7  C   UNN dAMED       1.438  -7.686  -5.498  0.00  0.00     0.007 A 
ATOM      8  C   UNN dAMED       1.534  -9.073  -5.414  0.00  0.00    -0.021 A 
ATOM      9  C   UNN dAMED       1.351  -4.759  -4.939  0.00  0.00     0.112 C 
ATOM     10  C   UNN dAMED       1.201  -3.281  -4.543  0.00  0.00     0.268 C 
ATOM     11  C   UNN dAMED       1.337  -4.775  -4.855  0.00  0.00     0.112 C 
ATOM     12  C   UNN dAMED       1.200  -3.281  -4.544  0.00  0.00     0.268 C 
ATOM     13  C   UNN dAMED       2.870  -9.750  -5.527  0.00  0.00     0.031 C 
ENDROOT
BRANCH   1  14
ATOM     14  C   UNN dAMED       1.000  -2.697  -4.391  0.00  0.00     0.306 C 
BRANCH  14  15
ATOM     15  C   UNN dAMED       0.021  -1.611  -3.893  0.00  0.00     0.167 C 
ATOM     16  O   UNN dAMED      -1.289  -1.935  -3.649  0.00  0.00    -0.191 OA
BRANCH  15  17
ATOM     17  C   UNN dAMED       0.504  -0.150  -3.758  0.00  0.00     0.147 C 
BRANCH  17  18
ATOM     18  O   UNN dAMED       0.154   0.661  -2.668  0.00  0.00    -0.302 OA
BRANCH  18  19
ATOM     19  C   UNN dAMED      -0.211   1.855  -3.232  0.00  0.00     0.111 A 
ATOM     20  C   UNN dAMED      -0.501   1.838  -4.590  0.00  0.00     0.026 A 
ATOM     21  C   UNN dAMED      -0.883   3.015  -5.230  0.00  0.00     0.002 A 
ATOM     22  C   UNN dAMED      -0.971   4.203  -4.497  0.00  0.00     0.001 A 
ATOM     23  C   UNN dAMED      -0.667   4.207  -3.139  0.00  0.00     0.013 A 
ATOM     24  C   UNN dAMED      -0.285   3.037  -2.505  0.00  0.00     0.081 A 
ATOM     25 CL   UNN dAMED       0.087   3.097  -0.822  0.00  0.00    -0.080 Cl
ENDBRANCH  18  19
ENDBRANCH  17  18
ENDBRANCH  15  17
ENDBRANCH  14  15
ENDBRANCH   1  14
TORSDOF 5
