REMARK  2 active torsions:
REMARK  status: ('A' for Active; 'I' for Inactive)
REMARK    1  A    between atoms: C_3  and  C_9 
REMARK    2  A    between atoms: C_9  and  C_11 
ROOT
ATOM      1  C   UNN dAMED      -0.233   0.710  -0.166  0.00  0.00     0.049 A 
ATOM      2  C   UNN dAMED      -1.611   1.027  -0.176  0.00  0.00     0.234 A 
ATOM      3  C   UNN dAMED       0.259  -0.566   0.083  0.00  0.00     0.042 A 
ATOM      4  C   UNN dAMED      -0.601  -1.608   0.335  0.00  0.00     0.007 A 
ATOM      5  C   UNN dAMED      -2.530  -0.056   0.088  0.00  0.00     0.234 A 
ATOM      6  C   UNN dAMED      -1.964  -1.333   0.333  0.00  0.00     0.045 A 
ATOM      7  O   UNN dAMED      -1.973   2.232  -0.413  0.00  0.00    -0.283 OA
ATOM      8  O   UNN dAMED      -3.804   0.076   0.111  0.00  0.00    -0.283 OA
ENDROOT
BRANCH   3   9
ATOM      9  C   UNN dAMED       1.694  -0.846   0.069  0.00  0.00     0.188 C 
ATOM     10  O   UNN dAMED       2.527   0.037  -0.070  0.00  0.00    -0.287 OA
BRANCH   9  11
ATOM     11  C   UNN dAMED       2.156  -2.263   0.267  0.00  0.00    -0.005 C 
ATOM     12  C   UNN dAMED       1.628  -3.375  -0.644  0.00  0.00     0.030 C 
ATOM     13  C   UNN dAMED       3.123  -2.602   1.406  0.00  0.00     0.030 C 
ENDBRANCH   9  11
ENDBRANCH   3   9
TORSDOF 2
