REMARK  18 active torsions:
REMARK  status: ('A' for Active; 'I' for Inactive)
REMARK    1  A    between atoms: C_1  and  C_2 
REMARK    2  A    between atoms: C_1  and  C_18 
REMARK    3  A    between atoms: C_2  and  C_3 
REMARK    4  A    between atoms: C_3  and  C_4 
REMARK    5  A    between atoms: C_4  and  C_5 
REMARK    6  A    between atoms: C_5  and  C_6 
REMARK    7  A    between atoms: C_6  and  C_7 
REMARK    8  A    between atoms: C_7  and  C_8 
REMARK    9  A    between atoms: C_8  and  C_9 
REMARK   10  A    between atoms: C_9  and  C_10 
REMARK   11  A    between atoms: C_10  and  C_11 
REMARK   12  A    between atoms: C_13  and  O_15 
REMARK   13  A    between atoms: O_15  and  C_16 
REMARK   14  A    between atoms: C_16  and  C_18 
REMARK   15  A    between atoms: C_18  and  C_19 
REMARK   16  A    between atoms: C_18  and  N_24 
REMARK   17  A    between atoms: C_19  and  O_21 
REMARK   18  A    between atoms: O_21  and  C_22 
REMARK       I    between atoms: N_24  and  C_25 
ROOT
ATOM      1  C   UNN dAMED       4.683   0.543   0.498  0.00  0.00     0.241 C 
ENDROOT
BRANCH   1   2
ATOM      2  C   UNN dAMED       3.510   0.260  -0.447  0.00  0.00     0.042 C 
BRANCH   2   3
ATOM      3  C   UNN dAMED       2.090   0.135   0.118  0.00  0.00     0.003 C 
BRANCH   3   4
ATOM      4  C   UNN dAMED       1.037   1.206  -0.190  0.00  0.00     0.000 C 
BRANCH   4   5
ATOM      5  C   UNN dAMED       0.162   1.082  -1.443  0.00  0.00     0.000 C 
BRANCH   5   6
ATOM      6  C   UNN dAMED       0.815   0.749  -2.789  0.00  0.00     0.000 C 
BRANCH   6   7
ATOM      7  C   UNN dAMED      -0.035   0.524  -4.045  0.00  0.00     0.000 C 
BRANCH   7   8
ATOM      8  C   UNN dAMED      -1.538   0.818  -4.034  0.00  0.00     0.000 C 
BRANCH   8   9
ATOM      9  C   UNN dAMED      -2.483  -0.080  -3.230  0.00  0.00     0.000 C 
BRANCH   9  10
ATOM     10  C   UNN dAMED      -2.439  -0.050  -1.700  0.00  0.00     0.000 C 
BRANCH  10  11
ATOM     11  C   UNN dAMED      -3.037  -1.204  -0.890  0.00  0.00     0.000 C 
BRANCH  11  12
ATOM     12  C   UNN dAMED      -4.464  -1.682  -1.177  0.00  0.00     0.000 C 
ATOM     13  C   UNN dAMED      -4.758  -2.494  -2.442  0.00  0.00     0.000 C 
ENDBRANCH  11  12
ENDBRANCH  10  11
ENDBRANCH   9  10
ENDBRANCH   8   9
ENDBRANCH   7   8
ENDBRANCH   6   7
ENDBRANCH   5   6
ENDBRANCH   4   5
ENDBRANCH   3   4
ENDBRANCH   2   3
ENDBRANCH   1   2
BRANCH   1  14
ATOM     14  C   UNN dAMED       4.801   2.034   0.694  0.00  0.00     0.301 C 
ATOM     15  O   UNN dAMED       5.769   2.636   1.135  0.00  0.00    -0.262 OA
BRANCH  14  16
ATOM     16  O   UNN dAMED       3.616   2.618   0.381  0.00  0.00    -0.300 OA
BRANCH  16  17
ATOM     17  C   UNN dAMED       3.006   2.871   1.613  0.00  0.00     0.152 C 
ATOM     18  C   UNN dAMED       1.989   1.882   2.192  0.00  0.00     0.035 C 
ENDBRANCH  16  17
ENDBRANCH  14  16
ENDBRANCH   1  14
BRANCH   1  19
ATOM     19  C   UNN dAMED       4.443  -0.185   1.804  0.00  0.00     0.301 C 
ATOM     20  O   UNN dAMED       4.052   0.351   2.833  0.00  0.00    -0.262 OA
BRANCH  19  21
ATOM     21  O   UNN dAMED       4.589  -1.527   1.680  0.00  0.00    -0.300 OA
BRANCH  21  22
ATOM     22  C   UNN dAMED       5.548  -1.699   0.679  0.00  0.00     0.152 C 
ATOM     23  C   UNN dAMED       7.031  -1.464   0.985  0.00  0.00     0.035 C 
ENDBRANCH  21  22
ENDBRANCH  19  21
ENDBRANCH   1  19
BRANCH   1  24
ATOM     24  N   UNN dAMED       5.922   0.089  -0.112  0.00  0.00    -0.222 NA
ATOM     25  C   UNN dAMED       5.790   0.022  -1.435  0.00  0.00     0.253 C 
ATOM     26  O   UNN dAMED       5.052  -0.727  -2.064  0.00  0.00    -0.271 OA
ATOM     27  C   UNN dAMED       6.763   0.843  -2.240  0.00  0.00     0.100 C 
ENDBRANCH   1  24
TORSDOF 18
