REMARK  0 active torsions:
REMARK  status: ('A' for Active; 'I' for Inactive)
ROOT
ATOM      1  N   UNN dAMED      -1.259  -0.318  -0.726  0.00  0.00    -0.250 NA
ATOM      2  N   UNN dAMED       1.940   0.220  -0.414  0.00  0.00    -0.249 NA
ATOM      3  N   UNN dAMED       5.217   1.821   1.674  0.00  0.00    -0.241 NA
ATOM      4  C   UNN dAMED       3.701   1.864  -0.199  0.00  0.00     0.100 A 
ATOM      5  C   UNN dAMED       3.033   0.748   0.291  0.00  0.00     0.053 A 
ATOM      6  C   UNN dAMED       4.777   2.360   0.517  0.00  0.00     0.114 A 
ATOM      7  C   UNN dAMED       3.459   0.169   1.481  0.00  0.00     0.033 A 
ATOM      8  C   UNN dAMED       4.545   0.739   2.127  0.00  0.00     0.100 A 
ATOM      9  C   UNN dAMED       1.114  -0.831   0.180  0.00  0.00     0.094 C 
ATOM     10  C   UNN dAMED      -0.167  -1.274  -0.531  0.00  0.00     0.094 C 
ATOM     11  C   UNN dAMED      -2.086  -1.620  -2.597  0.00  0.00    -0.011 A 
ATOM     12  C   UNN dAMED      -2.081  -0.434  -1.860  0.00  0.00     0.032 A 
ATOM     13  C   UNN dAMED      -2.923  -1.762  -3.701  0.00  0.00    -0.004 A 
ATOM     14  C   UNN dAMED      -2.915   0.615  -2.243  0.00  0.00     0.007 A 
ATOM     15  C   UNN dAMED      -3.759  -0.714  -4.076  0.00  0.00    -0.004 A 
ATOM     16  C   UNN dAMED      -3.751   0.475  -3.350  0.00  0.00    -0.021 A 
ATOM     17  C   UNN dAMED       0.895   1.115  -0.916  0.00  0.00     0.094 C 
ATOM     18  C   UNN dAMED      -0.550   0.931  -0.442  0.00  0.00     0.094 C 
ATOM     19  C   UNN dAMED      -1.172  -2.744  -2.198  0.00  0.00     0.032 C 
ATOM     20  C   UNN dAMED      -4.675   1.595  -3.738  0.00  0.00     0.031 C 
ATOM     21  N   UNN dAMED       3.269   2.493  -1.400  0.00  0.00    -0.098 NA
ENDROOT
TORSDOF 0
