REMARK  5 active torsions:
REMARK  status: ('A' for Active; 'I' for Inactive)
REMARK    1  A    between atoms: N_2  and  C_25 
REMARK    2  A    between atoms: C_16  and  O_21 
REMARK    3  A    between atoms: O_21  and  C_22 
REMARK    4  A    between atoms: C_22  and  C_23 
REMARK    5  A    between atoms: C_23  and  C_25 
ROOT
ATOM      1  N   UNN dAMED      -0.314   4.040   1.413  0.00  0.00     0.143 N 
ATOM      2  N   UNN dAMED       2.440   3.353  -0.655  0.00  0.00    -0.248 NA
ATOM      3 CL   UNN dAMED       5.493   2.950   3.451  0.00  0.00    -0.082 Cl
ATOM      4  C   UNN dAMED       2.734   5.283   0.789  0.00  0.00     0.011 A 
ATOM      5  C   UNN dAMED       3.000   3.944   0.494  0.00  0.00     0.037 A 
ATOM      6  C   UNN dAMED       3.287   5.887   1.917  0.00  0.00     0.002 A 
ATOM      7  C   UNN dAMED       4.132   5.158   2.749  0.00  0.00     0.011 A 
ATOM      8  C   UNN dAMED       3.855   3.219   1.326  0.00  0.00     0.023 A 
ATOM      9  C   UNN dAMED       4.416   3.830   2.445  0.00  0.00     0.059 A 
ATOM     10  C   UNN dAMED       1.055   2.651  -0.577  0.00  0.00     0.112 C 
ATOM     11  C   UNN dAMED      -0.206   3.429  -0.168  0.00  0.00     0.268 C 
ATOM     12  C   UNN dAMED       1.055   2.663  -0.599  0.00  0.00     0.112 C 
ATOM     13  C   UNN dAMED      -0.206   3.429  -0.168  0.00  0.00     0.268 C 
ENDROOT
BRANCH   1  14
ATOM     14  C   UNN dAMED      -0.251   3.450  -0.175  0.00  0.00     0.286 C 
BRANCH  14  15
ATOM     15  C   UNN dAMED      -1.391   3.872  -1.127  0.00  0.00     0.215 C 
ATOM     16  O   UNN dAMED      -1.189   4.953  -1.942  0.00  0.00    -0.219 OA
BRANCH  15  17
ATOM     17  C   UNN dAMED      -2.845   3.500  -0.771  0.00  0.00     0.184 C 
BRANCH  17  18
ATOM     18  O   UNN dAMED      -3.336   2.208  -0.998  0.00  0.00    -0.328 OA
BRANCH  18  19
ATOM     19  C   UNN dAMED      -4.650   2.362  -1.335  0.00  0.00     0.094 A 
ATOM     20  C   UNN dAMED      -5.602   1.514  -0.775  0.00  0.00     0.025 A 
ATOM     21  C   UNN dAMED      -6.942   1.655  -1.132  0.00  0.00     0.013 A 
ATOM     22  C   UNN dAMED      -7.308   2.640  -2.045  0.00  0.00     0.058 A 
ATOM     23 CL   UNN dAMED      -8.961   2.840  -2.466  0.00  0.00    -0.082 Cl
ATOM     24  C   UNN dAMED      -6.348   3.478  -2.609  0.00  0.00     0.013 A 
ATOM     25  C   UNN dAMED      -5.007   3.339  -2.255  0.00  0.00     0.025 A 
ENDBRANCH  18  19
ENDBRANCH  17  18
ENDBRANCH  15  17
ENDBRANCH  14  15
ENDBRANCH   1  14
TORSDOF 5
