REMARK  0 active torsions:
REMARK  status: ('A' for Active; 'I' for Inactive)
ROOT
ATOM      1  C   UNN dAMED       1.957   0.932  -0.290  0.00  0.00     0.295 C 
ATOM      2  C   UNN dAMED       0.576   1.024   0.322  0.00  0.00     0.100 A 
ATOM      3  C   UNN dAMED      -0.251  -0.187  -0.068  0.00  0.00     0.220 A 
ATOM      4  C   UNN dAMED       0.893  -0.493  -1.091  0.00  0.00     0.329 C 
ATOM      5  C   UNN dAMED      -0.326   2.166  -0.051  0.00  0.00     0.154 A 
ATOM      6  N   UNN dAMED      -1.487   1.578  -0.629  0.00  0.00    -0.178 NA
ATOM      7  N   UNN dAMED      -1.497   0.315  -0.659  0.00  0.00    -0.167 NA
ATOM      8  C   UNN dAMED      -0.453  -1.157   0.979  0.00  0.00     0.099 C 
ATOM      9  N   UNN dAMED      -0.612  -1.938   1.823  0.00  0.00    -0.194 NA
ATOM     10  N   UNN dAMED       2.334  -0.425  -0.708  0.00  0.00     0.343 N 
ENDROOT
TORSDOF 0
