REMARK  1 active torsions:
REMARK  status: ('A' for Active; 'I' for Inactive)
REMARK    1  A    between atoms: C_10  and  C_13 
ROOT
ATOM      1  N   UNN dAMED       1.487  -0.530  -0.312  0.00  0.00    -0.340 N 
ATOM      2  H   UNN dAMED       2.007  -1.293  -0.728  0.00  0.00     0.167 HD
ATOM      3  N   UNN dAMED       1.092   1.385   0.759  0.00  0.00    -0.231 NA
ATOM      4  C   UNN dAMED      -0.906  -1.252  -0.694  0.00  0.00     0.014 A 
ATOM      5  C   UNN dAMED      -2.211  -0.815  -0.444  0.00  0.00    -0.024 A 
ATOM      6  C   UNN dAMED       0.121  -0.421  -0.244  0.00  0.00     0.075 A 
ATOM      7  C   UNN dAMED      -0.099   0.781   0.425  0.00  0.00     0.098 A 
ATOM      8  C   UNN dAMED      -2.465   0.385   0.220  0.00  0.00    -0.024 A 
ATOM      9  C   UNN dAMED      -1.418   1.200   0.666  0.00  0.00     0.016 A 
ATOM     10  C   UNN dAMED       2.012   0.581   0.281  0.00  0.00     0.129 A 
ATOM     11  C   UNN dAMED      -3.368  -1.654  -0.910  0.00  0.00     0.031 C 
ATOM     12  C   UNN dAMED      -3.886   0.818   0.449  0.00  0.00     0.031 C 
ENDROOT
BRANCH  10  13
ATOM     13  C   UNN dAMED       3.487   0.788   0.493  0.00  0.00     0.132 C 
ATOM     14  S   UNN dAMED       4.380   2.014  -0.412  0.00  0.00    -0.074 SA
ENDBRANCH  10  13
TORSDOF 1
