REMARK  5 active torsions:
REMARK  status: ('A' for Active; 'I' for Inactive)
REMARK    1  A    between atoms: N_10  and  C_22 
REMARK    2  A    between atoms: C_18  and  C_21 
REMARK    3  A    between atoms: C_19  and  C_20 
REMARK    4  A    between atoms: C_19  and  C_22 
REMARK    5  A    between atoms: C_20  and  C_21 
ROOT
ATOM      1  H   UNN dAMED       2.524  -4.223  -0.480  0.00  0.00     0.172 HD
ATOM      2  O   UNN dAMED      -0.017  -4.328  -0.699  0.00  0.00    -0.267 OA
ATOM      3  N   UNN dAMED       2.041  -3.337  -0.363  0.00  0.00    -0.289 N 
ATOM      4  C   UNN dAMED       0.660  -3.333  -0.470  0.00  0.00     0.261 A 
ATOM      5  C   UNN dAMED       2.806  -2.215  -0.108  0.00  0.00     0.261 A 
ATOM      6  O   UNN dAMED       4.031  -2.223  -0.014  0.00  0.00    -0.267 OA
ATOM      7  C   UNN dAMED      -0.052  -2.015  -0.293  0.00  0.00     0.078 A 
ATOM      8  C   UNN dAMED       2.067  -0.942   0.057  0.00  0.00     0.072 A 
ATOM      9  C   UNN dAMED       0.626  -0.893  -0.044  0.00  0.00     0.070 A 
ATOM     10  N   UNN dAMED      -0.060   0.299   0.097  0.00  0.00    -0.321 N 
ATOM     11  C   UNN dAMED       2.750   0.184   0.299  0.00  0.00     0.008 A 
ATOM     12  C   UNN dAMED       0.633   1.506   0.361  0.00  0.00     0.060 A 
ATOM     13  C   UNN dAMED       2.031   1.501   0.472  0.00  0.00     0.016 A 
ATOM     14  C   UNN dAMED      -0.058   2.706   0.503  0.00  0.00     0.013 A 
ATOM     15  C   UNN dAMED       2.733   2.677   0.720  0.00  0.00    -0.003 A 
ATOM     16  C   UNN dAMED       0.642   3.886   0.749  0.00  0.00    -0.024 A 
ATOM     17  C   UNN dAMED       2.032   3.872   0.858  0.00  0.00    -0.026 A 
ATOM     18  C   UNN dAMED      -0.106   5.181   0.889  0.00  0.00     0.031 C 
ATOM     19  C   UNN dAMED       2.776   5.151   1.118  0.00  0.00     0.031 C 
ENDROOT
BRANCH  10  20
ATOM     20  C   UNN dAMED      -1.509   0.314  -0.058  0.00  0.00     0.163 C 
BRANCH  20  21
ATOM     21  C   UNN dAMED      -2.144   0.350  -1.455  0.00  0.00     0.158 C 
ATOM     22  O   UNN dAMED      -2.731  -0.779  -1.963  0.00  0.00    -0.191 OA
BRANCH  21  23
ATOM     23  C   UNN dAMED      -2.353   1.703  -2.150  0.00  0.00     0.178 C 
ATOM     24  O   UNN dAMED      -3.145   2.650  -1.556  0.00  0.00    -0.186 OA
BRANCH  23  25
ATOM     25  C   UNN dAMED      -1.444   2.095  -3.328  0.00  0.00     0.169 C 
ATOM     26  O   UNN dAMED      -0.259   1.433  -3.512  0.00  0.00    -0.190 OA
BRANCH  25  27
ATOM     27  C   UNN dAMED      -2.012   2.957  -4.468  0.00  0.00     0.238 C 
ATOM     28  O   UNN dAMED      -1.925   4.324  -4.425  0.00  0.00    -0.213 OA
ENDBRANCH  25  27
ENDBRANCH  23  25
ENDBRANCH  21  23
ENDBRANCH  20  21
ENDBRANCH  10  20
TORSDOF 5
