REMARK  5 active torsions:
REMARK  status: ('A' for Active; 'I' for Inactive)
REMARK    1  A    between atoms: S_1  and  C_4 
REMARK    2  A    between atoms: S_1  and  C_9 
REMARK    3  A    between atoms: C_5  and  N_22 
REMARK    4  A    between atoms: C_12  and  C_20 
REMARK    5  A    between atoms: C_15  and  C_20 
ROOT
ATOM      1  C   UNN dAMED       0.994  -2.227   0.738  0.00  0.00     0.007 A 
ATOM      2  C   UNN dAMED       0.670  -1.274   1.705  0.00  0.00     0.029 A 
ATOM      3  C   UNN dAMED       0.133  -3.297   0.482  0.00  0.00     0.004 A 
ATOM      4  C   UNN dAMED      -0.521  -1.417   2.427  0.00  0.00     0.007 A 
ATOM      5  C   UNN dAMED      -1.046  -3.416   1.216  0.00  0.00     0.039 A 
ATOM      6  C   UNN dAMED      -1.384  -2.482   2.188  0.00  0.00     0.004 A 
ENDROOT
BRANCH   2   7
ATOM      7  S   UNN dAMED       1.640   0.170   2.068  0.00  0.00    -0.087 SA
BRANCH   7   8
ATOM      8  C   UNN dAMED       3.125   0.012   1.106  0.00  0.00     0.029 A 
ATOM      9  C   UNN dAMED       3.171   0.536  -0.189  0.00  0.00     0.008 A 
ATOM     10  C   UNN dAMED       4.384   0.633  -0.869  0.00  0.00     0.024 A 
ATOM     11  C   UNN dAMED       5.547   0.211  -0.231  0.00  0.00     0.127 A 
ATOM     12  C   UNN dAMED       5.529  -0.315   1.057  0.00  0.00     0.024 A 
ATOM     13  C   UNN dAMED       4.310  -0.392   1.729  0.00  0.00     0.008 A 
BRANCH  11  14
ATOM     14  N   UNN dAMED       6.802   0.290  -0.947  0.00  0.00    -0.114 N 
ATOM     15  O   UNN dAMED       6.765   0.141  -2.176  0.00  0.00    -0.532 OA
ATOM     16  O   UNN dAMED       7.827   0.503  -0.286  0.00  0.00    -0.532 OA
ENDBRANCH  11  14
ENDBRANCH   7   8
ENDBRANCH   2   7
BRANCH   5  17
ATOM     17  C   UNN dAMED      -2.035  -4.437   0.866  0.00  0.00     0.196 C 
ATOM     18  O   UNN dAMED      -3.091  -4.119   0.333  0.00  0.00    -0.287 OA
BRANCH  17  19
ATOM     19  C   UNN dAMED      -1.756  -5.841   1.165  0.00  0.00     0.039 A 
ATOM     20  C   UNN dAMED      -1.537  -6.718   0.105  0.00  0.00     0.003 A 
ATOM     21  C   UNN dAMED      -1.361  -8.072   0.372  0.00  0.00     0.000 A 
ATOM     22  C   UNN dAMED      -1.412  -8.537   1.686  0.00  0.00     0.000 A 
ATOM     23  C   UNN dAMED      -1.640  -7.649   2.737  0.00  0.00     0.000 A 
ATOM     24  C   UNN dAMED      -1.825  -6.293   2.480  0.00  0.00     0.003 A 
ENDBRANCH  17  19
ENDBRANCH   5  17
TORSDOF 5
