REMARK  4 active torsions:
REMARK  status: ('A' for Active; 'I' for Inactive)
REMARK    1  A    between atoms: C_2  and  C_7 
REMARK    2  A    between atoms: C_7  and  C_8 
REMARK    3  A    between atoms: C_8  and  C_10 
REMARK    4  A    between atoms: C_10  and  C_11 
ROOT
ATOM      1  C   UNN dAMED      -0.173   2.490  -0.412  0.00  0.00     0.028 C 
ATOM      2  C   UNN dAMED       0.236   1.020   0.482  0.00  0.00     0.005 C 
ENDROOT
BRANCH   1   3
ATOM      3  C   UNN dAMED      -0.242   1.234   0.262  0.00  0.00     0.031 C 
BRANCH   3   4
ATOM      4  C   UNN dAMED      -1.558   0.465   0.351  0.00  0.00    -0.022 A 
ATOM      5  C   UNN dAMED      -2.117   0.217   1.603  0.00  0.00    -0.004 A 
ATOM      6  C   UNN dAMED      -3.231  -0.611   1.697  0.00  0.00    -0.000 A 
ATOM      7  C   UNN dAMED      -3.739  -1.240   0.557  0.00  0.00    -0.000 A 
ATOM      8  C   UNN dAMED      -3.127  -1.072  -0.680  0.00  0.00    -0.000 A 
ATOM      9  C   UNN dAMED      -2.045  -0.208  -0.779  0.00  0.00    -0.004 A 
ENDBRANCH   3   4
ENDBRANCH   1   3
BRANCH   1  10
ATOM     10  C   UNN dAMED       0.236   1.003   0.490  0.00  0.00    -0.002 C 
BRANCH  10  11
ATOM     11  C   UNN dAMED       1.355   0.305   0.259  0.00  0.00     0.137 A 
ATOM     12  N   UNN dAMED       2.032  -0.162   1.311  0.00  0.00    -0.213 NA
ATOM     13  C   UNN dAMED       2.556  -1.324   0.918  0.00  0.00     0.224 A 
ATOM     14  N   UNN dAMED       2.208  -1.680  -0.326  0.00  0.00    -0.177 NA
ATOM     15  S   UNN dAMED       3.562  -2.232   1.905  0.00  0.00    -0.037 SA
ATOM     16  C   UNN dAMED       1.411  -0.723  -0.794  0.00  0.00     0.299 A 
ATOM     17  O   UNN dAMED       0.797  -0.679  -1.850  0.00  0.00    -0.263 OA
ENDBRANCH  10  11
ENDBRANCH   1  10
TORSDOF 4
