REMARK  2 active torsions:
REMARK  status: ('A' for Active; 'I' for Inactive)
REMARK    1  A    between atoms: C_11  and  N_17 
REMARK    2  A    between atoms: C_12  and  N_17 
ROOT
ATOM      1 CL   UNN dAMED      -1.931  -3.559   0.121  0.00  0.00    -0.041 Cl
ATOM      2  N   UNN dAMED      -0.753  -1.245  -0.001  0.00  0.00    -0.197 NA
ATOM      3  N   UNN dAMED      -3.172  -1.292   0.327  0.00  0.00    -0.197 NA
ATOM      4  N   UNN dAMED      -2.327   2.071   0.282  0.00  0.00    -0.208 NA
ATOM      5  N   UNN dAMED      -4.200   0.905   0.424  0.00  0.00    -0.211 NA
ATOM      6  C   UNN dAMED      -0.715   0.118   0.014  0.00  0.00     0.179 A 
ATOM      7  C   UNN dAMED      -1.933   0.770   0.193  0.00  0.00     0.114 A 
ATOM      8  C   UNN dAMED      -3.121   0.060   0.332  0.00  0.00     0.180 A 
ATOM      9  C   UNN dAMED      -3.691   2.114   0.309  0.00  0.00     0.154 C 
ATOM     10  C   UNN dAMED      -1.955  -1.845   0.162  0.00  0.00     0.227 A 
ATOM     11  C   UNN dAMED      -1.865   2.765  -0.870  0.00  0.00     0.101 C 
ENDROOT
BRANCH   6  12
ATOM     12  N   UNN dAMED       0.411   0.836  -0.171  0.00  0.00    -0.226 NA
BRANCH  12  13
ATOM     13  C   UNN dAMED       1.565   0.140  -0.236  0.00  0.00     0.079 A 
ATOM     14  C   UNN dAMED       2.430   0.076   0.866  0.00  0.00    -0.004 A 
ATOM     15  C   UNN dAMED       3.669  -0.559   0.779  0.00  0.00    -0.007 A 
ATOM     16  C   UNN dAMED       2.041   0.750   2.151  0.00  0.00     0.033 C 
ATOM     17  C   UNN dAMED       4.071  -1.134  -0.421  0.00  0.00    -0.022 A 
ATOM     18  C   UNN dAMED       3.238  -1.075  -1.533  0.00  0.00    -0.003 A 
ATOM     19  C   UNN dAMED       5.432  -1.758  -0.534  0.00  0.00     0.031 C 
ATOM     20  C   UNN dAMED       2.004  -0.434  -1.438  0.00  0.00     0.018 A 
ENDBRANCH  12  13
ENDBRANCH   6  12
TORSDOF 2
