REMARK  2 active torsions:
REMARK  status: ('A' for Active; 'I' for Inactive)
REMARK    1  A    between atoms: C_2  and  C_17 
REMARK    2  A    between atoms: C_7  and  N_24 
REMARK       I    between atoms: N_21  and  C_22 
REMARK       I    between atoms: C_22  and  N_24 
ROOT
ATOM      1  C   UNN dAMED       4.739  -0.517   0.287  0.00  0.00     0.195 A 
ATOM      2  C   UNN dAMED       4.137   0.609  -0.293  0.00  0.00     0.033 A 
ATOM      3  C   UNN dAMED       3.849  -1.566   0.556  0.00  0.00     0.039 A 
ATOM      4  C   UNN dAMED       2.479  -1.518   0.260  0.00  0.00    -0.001 A 
ATOM      5  C   UNN dAMED       2.769   0.665  -0.604  0.00  0.00     0.021 A 
ATOM      6  C   UNN dAMED       1.901  -0.398  -0.346  0.00  0.00     0.082 A 
ATOM      7  O   UNN dAMED       5.984  -0.579   0.551  0.00  0.00    -0.287 OA
ATOM      8  N   UNN dAMED       0.605  -0.282  -0.729  0.00  0.00    -0.191 NA
ATOM      9  C   UNN dAMED      -0.227  -1.283  -0.373  0.00  0.00     0.369 C 
ATOM     10  O   UNN dAMED      -0.664  -1.453   0.762  0.00  0.00    -0.242 OA
ATOM     11  N   UNN dAMED      -0.506  -2.089  -1.420  0.00  0.00    -0.191 NA
ATOM     12  C   UNN dAMED       1.608  -2.679   0.650  0.00  0.00     0.033 C 
ENDROOT
BRANCH  11  13
ATOM     13  C   UNN dAMED      -1.659  -1.822  -2.097  0.00  0.00     0.086 A 
ATOM     14  C   UNN dAMED      -2.831  -1.397  -1.445  0.00  0.00     0.019 A 
ATOM     15  C   UNN dAMED      -4.028  -1.170  -2.120  0.00  0.00     0.002 A 
ATOM     16  C   UNN dAMED      -4.096  -1.384  -3.489  0.00  0.00     0.000 A 
ATOM     17  C   UNN dAMED      -2.976  -1.830  -4.180  0.00  0.00     0.002 A 
ATOM     18  C   UNN dAMED      -1.753  -2.058  -3.497  0.00  0.00     0.018 A 
ATOM     19  C   UNN dAMED      -3.081  -2.061  -5.551  0.00  0.00     0.000 A 
ATOM     20  C   UNN dAMED      -0.673  -2.538  -4.258  0.00  0.00     0.002 A 
ATOM     21  C   UNN dAMED      -0.786  -2.778  -5.627  0.00  0.00     0.000 A 
ATOM     22  C   UNN dAMED      -1.990  -2.533  -6.275  0.00  0.00     0.000 A 
ENDBRANCH  11  13
BRANCH   2  23
ATOM     23  C   UNN dAMED       4.991   1.816  -0.572  0.00  0.00    -0.040 C 
ATOM     24  C   UNN dAMED       6.519   1.695  -0.539  0.00  0.00     0.026 C 
ATOM     25  C   UNN dAMED       4.344   3.101  -1.098  0.00  0.00     0.026 C 
ENDBRANCH   2  23
TORSDOF 2
