REMARK  0 active torsions:
REMARK  status: ('A' for Active; 'I' for Inactive)
REMARK       I    between atoms: N_4  and  C_18 
ROOT
ATOM      1  H   UNN dAMED      -0.504  -1.803  -2.092  0.00  0.00     0.321 HD
ATOM      2  N   UNN dAMED      -1.099  -1.022  -1.815  0.00  0.00     0.156 N 
ATOM      3  N   UNN dAMED      -1.838  -0.706   0.401  0.00  0.00     0.154 N 
ATOM      4  N   UNN dAMED       0.938   1.199  -0.239  0.00  0.00    -0.246 N 
ATOM      5  H   UNN dAMED      -1.856  -0.006   1.139  0.00  0.00     0.321 HD
ATOM      6  O   UNN dAMED      -1.215   1.821  -1.020  0.00  0.00    -0.267 OA
ATOM      7  C   UNN dAMED      -3.006  -1.055  -0.386  0.00  0.00     0.252 C 
ATOM      8  C   UNN dAMED      -2.545  -1.203  -1.825  0.00  0.00     0.282 C 
ATOM      9  C   UNN dAMED      -0.674  -0.524  -0.485  0.00  0.00     0.460 A 
ATOM     10  C   UNN dAMED       0.619  -1.052   0.040  0.00  0.00     0.061 A 
ATOM     11  C   UNN dAMED      -0.410   0.984  -0.637  0.00  0.00     0.307 A 
ATOM     12  C   UNN dAMED       0.975  -2.344   0.386  0.00  0.00     0.001 A 
ATOM     13  C   UNN dAMED       2.272  -2.561   0.854  0.00  0.00    -0.000 A 
ATOM     14  C   UNN dAMED       1.532  -0.005   0.163  0.00  0.00     0.069 A 
ATOM     15  C   UNN dAMED       3.185  -1.503   0.971  0.00  0.00     0.002 A 
ATOM     16  C   UNN dAMED       2.821  -0.202   0.624  0.00  0.00     0.018 A 
ATOM     17  C   UNN dAMED      -4.405  -0.541  -0.031  0.00  0.00     0.037 C 
ATOM     18  C   UNN dAMED       1.634   2.399  -0.219  0.00  0.00     0.244 C 
ATOM     19  O   UNN dAMED       1.255   3.452  -0.719  0.00  0.00    -0.272 OA
ATOM     20  C   UNN dAMED       3.008   2.376   0.394  0.00  0.00     0.098 C 
ENDROOT
TORSDOF 0
