REMARK  6 active torsions:
REMARK  status: ('A' for Active; 'I' for Inactive)
REMARK    1  A    between atoms: C_4  and  C_9 
REMARK    2  A    between atoms: C_5  and  C_7 
REMARK    3  A    between atoms: C_7  and  O_12 
REMARK    4  A    between atoms: C_9  and  O_11 
REMARK    5  A    between atoms: O_11  and  C_23 
REMARK    6  A    between atoms: O_12  and  C_21 
ROOT
ATOM      1  N   UNN dAMED       2.592   0.938   1.330  0.00  0.00    -0.254 NA
ATOM      2  C   UNN dAMED       1.594   1.815   1.090  0.00  0.00     0.064 A 
ATOM      3  C   UNN dAMED       2.380  -0.346   0.967  0.00  0.00     0.064 A 
ATOM      4  C   UNN dAMED       0.383   1.445   0.514  0.00  0.00     0.077 A 
ATOM      5  C   UNN dAMED       1.198  -0.782   0.379  0.00  0.00     0.077 A 
ATOM      6  C   UNN dAMED       0.148   0.114   0.146  0.00  0.00     0.014 A 
ATOM      7  C   UNN dAMED      -1.128  -0.318  -0.419  0.00  0.00     0.020 A 
ATOM      8  C   UNN dAMED      -1.340  -0.391  -1.795  0.00  0.00     0.003 A 
ATOM      9  C   UNN dAMED      -2.191  -0.678   0.402  0.00  0.00     0.099 A 
ATOM     10  N   UNN dAMED      -3.399  -1.088  -0.042  0.00  0.00    -0.242 NA
ATOM     11  C   UNN dAMED      -2.566  -0.813  -2.295  0.00  0.00     0.021 A 
ATOM     12  C   UNN dAMED      -3.553  -1.145  -1.382  0.00  0.00     0.099 A 
ATOM     13  C   UNN dAMED       1.789   3.254   1.480  0.00  0.00     0.052 C 
ATOM     14  C   UNN dAMED       3.471  -1.350   1.210  0.00  0.00     0.052 C 
ENDROOT
BRANCH   4  15
ATOM     15  C   UNN dAMED      -0.594   2.505   0.271  0.00  0.00     0.297 C 
ATOM     16  O   UNN dAMED      -0.678   3.138  -0.764  0.00  0.00    -0.259 OA
BRANCH  15  17
ATOM     17  O   UNN dAMED      -1.358   2.649   1.372  0.00  0.00    -0.298 OA
BRANCH  17  18
ATOM     18  C   UNN dAMED      -0.469   2.524   2.442  0.00  0.00     0.152 C 
ATOM     19  C   UNN dAMED       0.025   1.139   2.871  0.00  0.00     0.035 C 
ENDBRANCH  17  18
ENDBRANCH  15  17
ENDBRANCH   4  15
BRANCH   5  20
ATOM     20  C   UNN dAMED       1.109  -2.198   0.024  0.00  0.00     0.297 C 
ATOM     21  O   UNN dAMED       0.575  -3.054   0.704  0.00  0.00    -0.259 OA
BRANCH  20  22
ATOM     22  O   UNN dAMED       1.707  -2.372  -1.173  0.00  0.00    -0.298 OA
BRANCH  22  23
ATOM     23  C   UNN dAMED       1.944  -1.081  -1.651  0.00  0.00     0.152 C 
ATOM     24  C   UNN dAMED       1.526  -0.704  -3.076  0.00  0.00     0.035 C 
ENDBRANCH  22  23
ENDBRANCH  20  22
ENDBRANCH   5  20
TORSDOF 6
