REMARK  0 active torsions:
REMARK  status: ('A' for Active; 'I' for Inactive)
ROOT
ATOM      1  O   UNN dAMED      -0.118  -1.259   0.916  0.00  0.00    -0.287 OA
ATOM      2  N   UNN dAMED      -0.429   0.444  -0.528  0.00  0.00    -0.219 NA
ATOM      3  N   UNN dAMED      -2.683  -1.931   1.019  0.00  0.00    -0.240 NA
ATOM      4  C   UNN dAMED      -5.798   0.704   0.047  0.00  0.00     0.000 A 
ATOM      5  C   UNN dAMED      -4.754  -0.162   0.378  0.00  0.00     0.003 A 
ATOM      6  C   UNN dAMED      -5.536   1.939  -0.541  0.00  0.00     0.000 A 
ATOM      7  C   UNN dAMED      -5.039  -1.390   0.962  0.00  0.00     0.021 A 
ATOM      8  C   UNN dAMED      -3.979  -2.227   1.261  0.00  0.00     0.099 A 
ATOM      9  C   UNN dAMED      -4.224   2.321  -0.796  0.00  0.00     0.000 A 
ATOM     10  C   UNN dAMED      -3.419   0.203   0.117  0.00  0.00     0.021 A 
ATOM     11  C   UNN dAMED      -3.180   1.461  -0.470  0.00  0.00     0.002 A 
ATOM     12  C   UNN dAMED      -2.417  -0.725   0.458  0.00  0.00     0.122 A 
ATOM     13  C   UNN dAMED      -1.001  -0.468   0.231  0.00  0.00     0.201 A 
ATOM     14  C   UNN dAMED       2.565  -2.764   0.676  0.00  0.00     0.002 A 
ATOM     15  C   UNN dAMED       2.234  -1.485   1.129  0.00  0.00     0.024 A 
ATOM     16  C   UNN dAMED       3.625  -3.460   1.253  0.00  0.00     0.000 A 
ATOM     17  C   UNN dAMED       1.116  -0.786   0.552  0.00  0.00     0.119 A 
ATOM     18  C   UNN dAMED       0.916   0.273  -0.308  0.00  0.00     0.106 A 
ATOM     19  C   UNN dAMED       2.970  -0.905   2.161  0.00  0.00     0.002 A 
ATOM     20  C   UNN dAMED       4.359  -2.875   2.280  0.00  0.00     0.000 A 
ATOM     21  C   UNN dAMED       1.904   1.131  -0.910  0.00  0.00     0.020 A 
ATOM     22  C   UNN dAMED       4.035  -1.598   2.732  0.00  0.00     0.000 A 
ATOM     23  C   UNN dAMED       1.653   2.505  -0.983  0.00  0.00     0.001 A 
ATOM     24  C   UNN dAMED       3.057   0.610  -1.494  0.00  0.00     0.001 A 
ATOM     25  C   UNN dAMED       2.548   3.352  -1.630  0.00  0.00    -0.004 A 
ATOM     26  C   UNN dAMED       3.965   1.460  -2.123  0.00  0.00    -0.004 A 
ATOM     27  C   UNN dAMED       3.707   2.828  -2.193  0.00  0.00    -0.022 A 
ATOM     28  C   UNN dAMED       4.652   3.732  -2.932  0.00  0.00     0.031 C 
ENDROOT
TORSDOF 0
