REMARK  5 active torsions:
REMARK  status: ('A' for Active; 'I' for Inactive)
REMARK    1  A    between atoms: N_1  and  C_15 
REMARK    2  A    between atoms: N_1  and  N_20 
REMARK    3  A    between atoms: N_1  and  C_21 
REMARK    4  A    between atoms: C_8  and  N_20 
REMARK    5  A    between atoms: C_10  and  C_21 
ROOT
ATOM      1  N   UNN dAMED      -0.191  -0.701   0.739  0.00  0.00    -0.229 N 
ENDROOT
BRANCH   1   2
ATOM      2  C   UNN dAMED      -0.918  -1.893   0.518  0.00  0.00     0.083 A 
ATOM      3  C   UNN dAMED      -2.281  -1.951   0.820  0.00  0.00     0.019 A 
ATOM      4  C   UNN dAMED      -3.007  -3.113   0.568  0.00  0.00     0.002 A 
ATOM      5  C   UNN dAMED      -2.375  -4.220   0.007  0.00  0.00     0.000 A 
ATOM      6  C   UNN dAMED      -1.019  -4.164  -0.308  0.00  0.00     0.002 A 
ATOM      7  C   UNN dAMED      -0.293  -3.002  -0.057  0.00  0.00     0.019 A 
ENDBRANCH   1   2
BRANCH   1   8
ATOM      8  N   UNN dAMED       0.417  -0.525   2.068  0.00  0.00    -0.165 NA
BRANCH   8   9
ATOM      9  C   UNN dAMED       0.596   0.783   2.323  0.00  0.00     0.101 A 
ATOM     10  C   UNN dAMED       1.875   1.348   2.295  0.00  0.00     0.021 A 
ATOM     11  C   UNN dAMED       2.080   2.694   2.599  0.00  0.00     0.002 A 
ATOM     12  C   UNN dAMED       1.001   3.500   2.943  0.00  0.00     0.000 A 
ATOM     13  C   UNN dAMED      -0.279   2.959   2.986  0.00  0.00     0.002 A 
ATOM     14  C   UNN dAMED      -0.473   1.611   2.689  0.00  0.00     0.021 A 
ENDBRANCH   8   9
ENDBRANCH   1   8
BRANCH   1  15
ATOM     15  C   UNN dAMED       0.355   0.027  -0.405  0.00  0.00     0.101 C 
BRANCH  15  16
ATOM     16  C   UNN dAMED      -0.448   1.044  -1.186  0.00  0.00     0.022 A 
ATOM     17  C   UNN dAMED      -1.746   0.760  -1.600  0.00  0.00     0.022 A 
ATOM     18  C   UNN dAMED      -2.375   1.668  -2.435  0.00  0.00     0.099 A 
ATOM     19  N   UNN dAMED      -1.800   2.805  -2.884  0.00  0.00    -0.242 NA
ATOM     20  C   UNN dAMED      -0.537   3.043  -2.469  0.00  0.00     0.099 A 
ATOM     21  C   UNN dAMED       0.178   2.203  -1.630  0.00  0.00     0.022 A 
ENDBRANCH  15  16
ENDBRANCH   1  15
TORSDOF 5
