REMARK  10 active torsions:
REMARK  status: ('A' for Active; 'I' for Inactive)
REMARK    1  A    between atoms: C_2  and  C_1 
REMARK    2  A    between atoms: C_1  and  O_16 
REMARK    3  A    between atoms: C_2  and  C_19 
REMARK    4  A    between atoms: C_2  and  C_26 
REMARK    5  A    between atoms: O_3  and  C_19 
REMARK    6  A    between atoms: O_3  and  C_25 
REMARK    7  A    between atoms: C_8  and  O_5 
REMARK    8  A    between atoms: O_5  and  C_21 
REMARK    9  A    between atoms: C_6  and  C_21 
REMARK   10  A    between atoms: C_11  and  C_25 
ROOT
ATOM      1  N   UNN dAMED      -0.471  -2.417  -0.427  0.00  0.00     0.137 N 
ATOM      2  C   UNN dAMED      -1.576  -0.538  -1.453  0.00  0.00     0.153 C 
ATOM      3  C   UNN dAMED      -0.369  -0.920  -0.569  0.00  0.00     0.297 A 
ATOM      4  C   UNN dAMED      -2.266  -1.810  -1.935  0.00  0.00     0.067 C 
ATOM      5  C   UNN dAMED       0.917  -0.729  -1.325  0.00  0.00     0.008 A 
ATOM      6  C   UNN dAMED       1.497  -1.883  -1.659  0.00  0.00     0.004 A 
ATOM      7  C   UNN dAMED      -1.506  -2.967  -1.306  0.00  0.00     0.253 C 
ATOM      8  C   UNN dAMED       0.669  -3.025  -1.096  0.00  0.00     0.276 A 
ENDROOT
BRANCH   5   9
ATOM      9  C   UNN dAMED       1.369   0.622  -1.794  0.00  0.00     0.175 C 
BRANCH   9  10
ATOM     10  O   UNN dAMED       2.730   0.852  -2.024  0.00  0.00    -0.295 OA
BRANCH  10  11
ATOM     11  C   UNN dAMED       2.842   1.095  -3.356  0.00  0.00     0.304 C 
ATOM     12  O   UNN dAMED       2.583   2.191  -3.844  0.00  0.00    -0.261 OA
BRANCH  11  13
ATOM     13  C   UNN dAMED       3.342  -0.115  -4.152  0.00  0.00     0.245 C 
ATOM     14  O   UNN dAMED       2.273  -0.569  -4.773  0.00  0.00    -0.211 OA
BRANCH  13  15
ATOM     15  C   UNN dAMED       3.926  -1.245  -3.295  0.00  0.00     0.185 C 
ATOM     16  C   UNN dAMED       4.278  -2.416  -4.221  0.00  0.00     0.025 C 
BRANCH  15  17
ATOM     17  O   UNN dAMED       5.106  -0.815  -2.628  0.00  0.00    -0.360 OA
ATOM     18  C   UNN dAMED       5.766  -1.994  -2.274  0.00  0.00     0.173 C 
ENDBRANCH  15  17
ENDBRANCH  13  15
BRANCH  13  19
ATOM     19  C   UNN dAMED       4.351   0.429  -5.183  0.00  0.00     0.163 C 
ATOM     20  O   UNN dAMED       5.013  -0.460  -5.882  0.00  0.00    -0.223 OA
ATOM     21  C   UNN dAMED       3.626   1.394  -6.134  0.00  0.00     0.036 C 
ATOM     22  C   UNN dAMED       5.347   1.348  -4.457  0.00  0.00     0.036 C 
ENDBRANCH  13  19
ENDBRANCH  11  13
ENDBRANCH  10  11
ENDBRANCH   9  10
ENDBRANCH   5   9
BRANCH   2  23
ATOM     23  O   UNN dAMED      -2.346   0.588  -1.139  0.00  0.00    -0.299 OA
BRANCH  23  24
ATOM     24  C   UNN dAMED      -2.172   1.464  -2.154  0.00  0.00     0.291 C 
ATOM     25  O   UNN dAMED      -2.292   2.675  -2.057  0.00  0.00    -0.260 OA
BRANCH  24  26
ATOM     26  C   UNN dAMED      -1.754   0.794  -3.388  0.00  0.00     0.026 C 
ATOM     27  C   UNN dAMED      -2.516  -0.190  -3.867  0.00  0.00     0.001 C 
ATOM     28  C   UNN dAMED      -3.685  -0.689  -3.066  0.00  0.00     0.018 C 
ATOM     29  C   UNN dAMED      -0.592   1.317  -4.182  0.00  0.00     0.035 C 
ENDBRANCH  24  26
ENDBRANCH  23  24
ENDBRANCH   2  23
TORSDOF 10
