REMARK  1 active torsions:
REMARK  status: ('A' for Active; 'I' for Inactive)
REMARK    1  A    between atoms: C_13  and  C_18 
ROOT
ATOM      1  N   UNN dAMED      -2.816   2.919   1.951  0.00  0.00    -0.213 NA
ATOM      2  S   UNN dAMED      -4.266   0.602   2.125  0.00  0.00    -0.056 SA
ATOM      3  N   UNN dAMED      -0.858   3.131   0.570  0.00  0.00    -0.326 N 
ATOM      4  H   UNN dAMED      -0.095   3.682   0.189  0.00  0.00     0.168 HD
ATOM      5  N   UNN dAMED      -1.963  -0.191   0.137  0.00  0.00    -0.226 NA
ATOM      6  N   UNN dAMED      -0.352   1.109  -0.671  0.00  0.00    -0.176 NA
ATOM      7  O   UNN dAMED       1.515   0.640   0.890  0.00  0.00    -0.340 OA
ATOM      8  C   UNN dAMED      -3.040   1.599   1.602  0.00  0.00     0.157 A 
ATOM      9  C   UNN dAMED      -2.071   1.075   0.668  0.00  0.00     0.137 A 
ATOM     10  C   UNN dAMED      -1.052   1.861   0.204  0.00  0.00     0.125 A 
ATOM     11  C   UNN dAMED      -0.873  -0.159  -0.614  0.00  0.00     0.156 A 
ATOM     12  C   UNN dAMED      -1.862   3.633   1.515  0.00  0.00     0.177 A 
ATOM     13  C   UNN dAMED       2.843   0.793   1.293  0.00  0.00     0.150 C 
ATOM     14  C   UNN dAMED       3.919   0.862   0.206  0.00  0.00     0.033 C 
ATOM     15  C   UNN dAMED       3.483   1.519  -1.098  0.00  0.00     0.007 C 
ATOM     16  C   UNN dAMED       2.050   1.194  -1.502  0.00  0.00     0.048 C 
ATOM     17  C   UNN dAMED       1.044   1.107  -0.349  0.00  0.00     0.186 C 
ENDROOT
BRANCH  13  18
ATOM     18  C   UNN dAMED       3.248   0.350   2.702  0.00  0.00     0.212 C 
ATOM     19  O   UNN dAMED       4.476  -0.213   2.913  0.00  0.00    -0.218 OA
ENDBRANCH  13  18
TORSDOF 1
