REMARK  1 active torsions:
REMARK  status: ('A' for Active; 'I' for Inactive)
REMARK    1  A    between atoms: CA_9  and  C_12 
ROOT
ATOM      1  O   UNN dAMED      -2.470   1.280   0.986  0.00  0.00    -0.265 OA
ATOM      2  H   UNN dAMED      -2.710  -0.359  -0.950  0.00  0.00     0.173 HD
ATOM      3  N   UNN dAMED      -1.759  -0.238  -0.613  0.00  0.00    -0.273 N 
ATOM      4  F   UNN dAMED       0.062   1.655   1.872  0.00  0.00    -0.197 F 
ATOM      5  O   UNN dAMED      -1.001  -1.739  -2.196  0.00  0.00    -0.247 OA
ATOM      6  N   UNN dAMED       0.518  -0.774  -0.760  0.00  0.00    -0.300 N 
ATOM      7  H   UNN dAMED       1.293  -1.275  -1.186  0.00  0.00     0.171 HD
ATOM      8  C   UNN dAMED      -0.164   0.794   0.862  0.00  0.00     0.217 A 
ATOM      9  CA  UNN dAMED       0.803   0.091   0.267  0.00  0.00     0.158 A 
ATOM     10  C   UNN dAMED      -1.571   0.651   0.438  0.00  0.00     0.290 A 
ATOM     11  C   UNN dAMED      -0.762  -0.976  -1.259  0.00  0.00     0.327 A 
ENDROOT
BRANCH   9  12
ATOM     12  C   UNN dAMED       2.245   0.279   0.735  0.00  0.00     0.230 C 
ATOM     13  O   UNN dAMED       3.064   0.582  -0.180  0.00  0.00    -0.643 OA
ATOM     14  OXT UNN dAMED       2.452   0.083   1.967  0.00  0.00    -0.643 OA
ENDBRANCH   9  12
TORSDOF 1
