REMARK  0 active torsions:
REMARK  status: ('A' for Active; 'I' for Inactive)
ROOT
ATOM      1  C   UNN dAMED      -4.531  -0.716  -0.645  0.00  0.00     0.000 A 
ATOM      2  C   UNN dAMED      -4.828   0.465   0.032  0.00  0.00     0.002 A 
ATOM      3  C   UNN dAMED      -3.204  -1.109  -0.809  0.00  0.00     0.006 A 
ATOM      4  C   UNN dAMED      -3.798   1.252   0.544  0.00  0.00     0.019 A 
ATOM      5  C   UNN dAMED      -2.173  -0.319  -0.294  0.00  0.00     0.074 A 
ATOM      6  C   UNN dAMED      -2.470   0.861   0.382  0.00  0.00     0.088 A 
ATOM      7  O   UNN dAMED      -0.544  -1.794  -1.074  0.00  0.00    -0.267 OA
ATOM      8  N   UNN dAMED      -1.433   1.637   0.889  0.00  0.00    -0.225 NA
ATOM      9  C   UNN dAMED      -0.773  -0.749  -0.469  0.00  0.00     0.267 A 
ATOM     10  N   UNN dAMED       0.185   0.075   0.073  0.00  0.00    -0.257 N 
ATOM     11  C   UNN dAMED      -0.239   1.275   0.736  0.00  0.00     0.185 A 
ATOM     12  C   UNN dAMED       1.570  -0.052   0.039  0.00  0.00     0.068 A 
ATOM     13  C   UNN dAMED       2.216  -0.288  -1.174  0.00  0.00     0.018 A 
ATOM     14  C   UNN dAMED       2.307   0.095   1.213  0.00  0.00     0.018 A 
ATOM     15  C   UNN dAMED       3.697  -0.020   1.175  0.00  0.00     0.013 A 
ATOM     16  C   UNN dAMED       3.601  -0.412  -1.212  0.00  0.00     0.013 A 
ATOM     17  C   UNN dAMED       4.334  -0.278  -0.037  0.00  0.00     0.058 A 
ATOM     18 CL   UNN dAMED       6.042  -0.428  -0.099  0.00  0.00    -0.082 Cl
ENDROOT
TORSDOF 0
