REMARK  2 active torsions:
REMARK  status: ('A' for Active; 'I' for Inactive)
REMARK    1  A    between atoms: N_2  and  C_9 
REMARK    2  A    between atoms: N_3  and  C_10 
ROOT
ATOM      1  C   UNN dAMED       1.140  -0.769  -0.108  0.00  0.00     0.142 A 
ATOM      2  C   UNN dAMED       1.471  -2.130   0.173  0.00  0.00     0.215 A 
ATOM      3  C   UNN dAMED       2.118   0.264  -0.075  0.00  0.00     0.023 A 
ATOM      4  C   UNN dAMED       1.817   1.602  -0.378  0.00  0.00     0.002 A 
ATOM      5  C   UNN dAMED       2.793   2.595  -0.336  0.00  0.00     0.000 A 
ATOM      6  C   UNN dAMED       2.818  -2.354   0.513  0.00  0.00     0.044 A 
ATOM      7  C   UNN dAMED       3.447  -0.048   0.270  0.00  0.00     0.002 A 
ATOM      8  C   UNN dAMED       4.098   2.266   0.010  0.00  0.00     0.000 A 
ATOM      9  C   UNN dAMED       3.790  -1.357   0.567  0.00  0.00     0.003 A 
ATOM     10  C   UNN dAMED       4.424   0.947   0.312  0.00  0.00     0.000 A 
ATOM     11  O   UNN dAMED       0.641  -3.100   0.129  0.00  0.00    -0.285 OA
ENDROOT
BRANCH   1  12
ATOM     12  N   UNN dAMED      -0.186  -0.432  -0.485  0.00  0.00    -0.145 NA
ATOM     13  N   UNN dAMED      -0.868  -0.190   0.536  0.00  0.00    -0.148 NA
BRANCH  13  14
ATOM     14  C   UNN dAMED      -2.195   0.086   0.175  0.00  0.00     0.103 A 
ATOM     15  C   UNN dAMED      -3.022  -0.923  -0.335  0.00  0.00     0.023 A 
ATOM     16  C   UNN dAMED      -4.362  -0.670  -0.614  0.00  0.00     0.031 A 
ATOM     17  C   UNN dAMED      -4.881   0.592  -0.355  0.00  0.00     0.140 A 
ATOM     18  F   UNN dAMED      -6.176   0.833  -0.601  0.00  0.00    -0.204 F 
ATOM     19  C   UNN dAMED      -4.083   1.605   0.166  0.00  0.00     0.031 A 
ATOM     20  C   UNN dAMED      -2.739   1.347   0.433  0.00  0.00     0.023 A 
ENDBRANCH  13  14
ENDBRANCH   1  12
TORSDOF 2
