REMARK  2 active torsions:
REMARK  status: ('A' for Active; 'I' for Inactive)
REMARK    1  A    between atoms: C_9  and  N_16 
REMARK    2  A    between atoms: C_13  and  N_16 
ROOT
ATOM      1  F   UNN dAMED      -2.637   2.018  -0.763  0.00  0.00    -0.204 F 
ATOM      2  C   UNN dAMED      -1.125   0.237  -0.416  0.00  0.00     0.049 A 
ATOM      3  C   UNN dAMED      -2.415   0.762  -0.354  0.00  0.00     0.138 A 
ATOM      4  C   UNN dAMED      -0.852  -1.055   0.059  0.00  0.00     0.086 A 
ATOM      5  C   UNN dAMED      -1.937  -1.802   0.542  0.00  0.00     0.019 A 
ATOM      6  C   UNN dAMED      -3.470   0.008   0.141  0.00  0.00     0.006 A 
ATOM      7  C   UNN dAMED      -3.232  -1.286   0.584  0.00  0.00    -0.001 A 
ATOM      8  C   UNN dAMED      -4.854   0.586   0.206  0.00  0.00     0.033 C 
ENDROOT
BRANCH   4   9
ATOM      9  N   UNN dAMED       0.375  -1.625   0.043  0.00  0.00    -0.220 NA
BRANCH   9  10
ATOM     10  C   UNN dAMED       1.377  -0.871   0.477  0.00  0.00     0.214 A 
ATOM     11  N   UNN dAMED       2.427  -0.606  -0.231  0.00  0.00    -0.145 NA
ATOM     12  N   UNN dAMED       3.306   0.112   0.523  0.00  0.00    -0.259 N 
ATOM     13  C   UNN dAMED       2.945   0.411   1.814  0.00  0.00     0.162 A 
ATOM     14  H   UNN dAMED       4.183   0.382   0.092  0.00  0.00     0.190 HD
ATOM     15  S   UNN dAMED       1.389  -0.316   2.138  0.00  0.00    -0.018 SA
ATOM     16  S   UNN dAMED       3.849   1.312   2.874  0.00  0.00    -0.051 SA
ENDBRANCH   9  10
ENDBRANCH   4   9
TORSDOF 2
