REMARK  3 active torsions:
REMARK  status: ('A' for Active; 'I' for Inactive)
REMARK    1  A    between atoms: S_8  and  C_18 
REMARK    2  A    between atoms: S_8  and  C_22 
REMARK    3  A    between atoms: C_17  and  C_22 
ROOT
ATOM      1  S   UNN dAMED      -4.318   2.905   0.913  0.00  0.00    -0.040 SA
ATOM      2  N   UNN dAMED      -3.987   0.586  -0.422  0.00  0.00    -0.270 N 
ATOM      3  O   UNN dAMED      -3.856  -1.205  -1.901  0.00  0.00    -0.265 OA
ATOM      4  N   UNN dAMED      -2.259   1.178   1.028  0.00  0.00    -0.288 N 
ATOM      5  N   UNN dAMED      -1.051  -1.568  -0.747  0.00  0.00    -0.328 N 
ATOM      6  H   UNN dAMED      -1.081  -2.315  -1.427  0.00  0.00     0.168 HD
ATOM      7  N   UNN dAMED      -0.223  -0.180   0.809  0.00  0.00    -0.204 NA
ATOM      8  C   UNN dAMED      -3.369  -0.521  -1.009  0.00  0.00     0.281 C 
ATOM      9  C   UNN dAMED      -2.050  -0.685  -0.454  0.00  0.00     0.150 A 
ATOM     10  C   UNN dAMED      -1.512   0.145   0.509  0.00  0.00     0.168 A 
ATOM     11  C   UNN dAMED       0.023  -1.214   0.031  0.00  0.00     0.170 A 
ATOM     12  C   UNN dAMED      -3.491   1.520   0.494  0.00  0.00     0.187 C 
ATOM     13  C   UNN dAMED      -5.129   1.040  -1.132  0.00  0.00     0.136 C 
ATOM     14  C   UNN dAMED      -1.486   2.299   1.427  0.00  0.00     0.134 C 
ENDROOT
BRANCH  11  15
ATOM     15  S   UNN dAMED       1.517  -2.066  -0.113  0.00  0.00    -0.071 SA
BRANCH  15  16
ATOM     16  C   UNN dAMED       0.803  -3.559  -0.814  0.00  0.00     0.111 C 
BRANCH  16  17
ATOM     17  C   UNN dAMED       1.537  -4.380  -1.848  0.00  0.00     0.070 A 
ATOM     18  N   UNN dAMED       2.809  -4.772  -1.596  0.00  0.00    -0.247 NA
ATOM     19  C   UNN dAMED       3.404  -5.557  -2.521  0.00  0.00     0.099 A 
ATOM     20  C   UNN dAMED       2.789  -5.986  -3.684  0.00  0.00     0.021 A 
ATOM     21  C   UNN dAMED       1.481  -5.581  -3.907  0.00  0.00     0.003 A 
ATOM     22  C   UNN dAMED       0.838  -4.767  -2.982  0.00  0.00     0.016 A 
ENDBRANCH  16  17
ENDBRANCH  15  16
ENDBRANCH  11  15
TORSDOF 3
