REMARK  0 active torsions:
REMARK  status: ('A' for Active; 'I' for Inactive)
ROOT
ATOM      1  N   UNN dAMED       0.624  -0.510   0.194  0.00  0.00    -0.147 N 
ATOM      2  N   UNN dAMED       0.171   0.771  -0.085  0.00  0.00    -0.147 N 
ATOM      3  N   UNN dAMED      -0.445  -1.369   0.263  0.00  0.00    -0.127 NA
ATOM      4  N   UNN dAMED      -1.182   0.771  -0.244  0.00  0.00    -0.127 NA
ATOM      5  C   UNN dAMED      -1.514  -0.520  -0.009  0.00  0.00     0.205 A 
ATOM      6  C   UNN dAMED      -2.880  -0.993  -0.025  0.00  0.00     0.039 A 
ATOM      7  C   UNN dAMED      -3.161  -2.356   0.065  0.00  0.00     0.003 A 
ATOM      8  C   UNN dAMED      -4.482  -2.801   0.057  0.00  0.00     0.000 A 
ATOM      9  C   UNN dAMED      -5.527  -1.886  -0.041  0.00  0.00     0.000 A 
ATOM     10  C   UNN dAMED      -3.934  -0.081  -0.113  0.00  0.00     0.003 A 
ATOM     11  C   UNN dAMED      -5.253  -0.524  -0.123  0.00  0.00     0.000 A 
ATOM     12  C   UNN dAMED       2.818  -0.872   1.177  0.00  0.00     0.021 A 
ATOM     13  C   UNN dAMED       4.066  -1.482   1.108  0.00  0.00     0.002 A 
ATOM     14  C   UNN dAMED       1.962  -1.017   0.095  0.00  0.00     0.103 A 
ATOM     15  C   UNN dAMED       2.256  -1.820  -1.000  0.00  0.00     0.021 A 
ATOM     16  C   UNN dAMED       4.404  -2.271   0.006  0.00  0.00     0.000 A 
ATOM     17  C   UNN dAMED       3.498  -2.446  -1.042  0.00  0.00     0.002 A 
ATOM     18  C   UNN dAMED       0.863   2.001  -0.071  0.00  0.00     0.103 A 
ATOM     19  C   UNN dAMED       2.170   2.071   0.396  0.00  0.00     0.021 A 
ATOM     20  C   UNN dAMED       0.154   3.176  -0.333  0.00  0.00     0.021 A 
ATOM     21  C   UNN dAMED       0.752   4.415  -0.124  0.00  0.00     0.002 A 
ATOM     22  C   UNN dAMED       2.774   3.310   0.596  0.00  0.00     0.002 A 
ATOM     23  C   UNN dAMED       2.059   4.481   0.350  0.00  0.00     0.000 A 
ENDROOT
TORSDOF 0
