REMARK  0 active torsions:
REMARK  status: ('A' for Active; 'I' for Inactive)
ROOT
ATOM      1  H   UNN dAMED       0.129  -2.152  -0.687  0.00  0.00     0.166 HD
ATOM      2  N   UNN dAMED       0.141  -1.191  -0.380  0.00  0.00    -0.352 N 
ATOM      3  N   UNN dAMED       3.536   0.181   0.044  0.00  0.00    -0.247 NA
ATOM      4  C   UNN dAMED       2.610  -0.761  -0.253  0.00  0.00     0.075 A 
ATOM      5  C   UNN dAMED       1.264  -0.434  -0.143  0.00  0.00     0.070 A 
ATOM      6  C   UNN dAMED       0.829   0.829   0.262  0.00  0.00     0.020 A 
ATOM      7  C   UNN dAMED       1.788   1.804   0.569  0.00  0.00     0.022 A 
ATOM      8  C   UNN dAMED       3.111   1.404   0.436  0.00  0.00     0.099 A 
ATOM      9  C   UNN dAMED      -0.599   0.809   0.261  0.00  0.00     0.017 A 
ATOM     10  C   UNN dAMED      -2.338  -0.830  -0.256  0.00  0.00     0.059 A 
ATOM     11  C   UNN dAMED      -3.370   0.076   0.037  0.00  0.00     0.197 A 
ATOM     12  C   UNN dAMED      -0.994  -0.460  -0.143  0.00  0.00     0.060 A 
ATOM     13  C   UNN dAMED      -2.941   1.351   0.442  0.00  0.00     0.042 A 
ATOM     14  C   UNN dAMED      -1.599   1.746   0.564  0.00  0.00     0.005 A 
ATOM     15  O   UNN dAMED      -4.601  -0.238  -0.059  0.00  0.00    -0.286 OA
ATOM     16  C   UNN dAMED       3.034  -2.134  -0.693  0.00  0.00     0.054 C 
ENDROOT
TORSDOF 0
