REMARK  4 active torsions:
REMARK  status: ('A' for Active; 'I' for Inactive)
REMARK    1  A    between atoms: C_3  and  C_7 
REMARK    2  A    between atoms: C_7  and  C_8 
REMARK    3  A    between atoms: C_8  and  C_9 
REMARK    4  A    between atoms: C_9  and  C_10 
ROOT
ATOM      1  N   UNN dAMED      -3.242  -1.323  -0.158  0.00  0.00    -0.243 NA
ATOM      2  C   UNN dAMED      -1.922  -1.500  -0.389  0.00  0.00     0.095 A 
ATOM      3  C   UNN dAMED      -0.959  -0.539  -0.132  0.00  0.00    -0.003 A 
ATOM      4  C   UNN dAMED      -1.371   0.678   0.393  0.00  0.00    -0.001 A 
ATOM      5  C   UNN dAMED      -2.720   0.898   0.644  0.00  0.00     0.020 A 
ATOM      6  C   UNN dAMED      -3.607  -0.126   0.353  0.00  0.00     0.099 A 
ENDROOT
BRANCH   3   7
ATOM      7  C   UNN dAMED       0.492  -0.808  -0.405  0.00  0.00     0.028 C 
BRANCH   7   8
ATOM      8  C   UNN dAMED       1.426   0.345  -0.786  0.00  0.00     0.005 C 
BRANCH   8   9
ATOM      9  C   UNN dAMED       2.940   0.117  -0.830  0.00  0.00     0.000 C 
BRANCH   9  10
ATOM     10  C   UNN dAMED       3.498  -1.307  -0.921  0.00  0.00     0.000 C 
ATOM     11  C   UNN dAMED       2.845  -2.439  -0.122  0.00  0.00     0.000 C 
ENDBRANCH   9  10
ENDBRANCH   8   9
ENDBRANCH   7   8
ENDBRANCH   3   7
TORSDOF 4
