REMARK  2 active torsions:
REMARK  status: ('A' for Active; 'I' for Inactive)
REMARK    1  A    between atoms: C_13  and  N_22 
REMARK    2  A    between atoms: C_15  and  N_22 
ROOT
ATOM      1  O   UNN dAMED      -6.385   0.311  -0.190  0.00  0.00    -0.300 OA
ATOM      2  C   UNN dAMED      -6.430  -1.025   0.075  0.00  0.00     0.304 A 
ATOM      3  C   UNN dAMED      -5.045   0.567  -0.189  0.00  0.00     0.119 A 
ATOM      4  O   UNN dAMED      -5.226  -1.639   0.243  0.00  0.00    -0.300 OA
ATOM      5  C   UNN dAMED      -4.432   1.792  -0.410  0.00  0.00     0.026 A 
ATOM      6  C   UNN dAMED      -4.344  -0.612   0.071  0.00  0.00     0.119 A 
ATOM      7  C   UNN dAMED      -2.959  -0.686   0.137  0.00  0.00     0.030 A 
ATOM      8  C   UNN dAMED      -3.027   1.736  -0.341  0.00  0.00     0.006 A 
ATOM      9  C   UNN dAMED      -2.303   0.545  -0.074  0.00  0.00     0.045 A 
ATOM     10  C   UNN dAMED      -0.858   0.614  -0.039  0.00  0.00     0.206 A 
ATOM     11  N   UNN dAMED      -0.030   1.407  -0.681  0.00  0.00    -0.119 NA
ATOM     12  O   UNN dAMED      -0.212  -0.258   0.790  0.00  0.00    -0.254 OA
ATOM     13  C   UNN dAMED       1.120   0.056   0.593  0.00  0.00     0.294 A 
ATOM     14  N   UNN dAMED       1.239   1.056  -0.267  0.00  0.00    -0.101 NA
ENDROOT
BRANCH  13  15
ATOM     15  N   UNN dAMED       2.067  -0.633   1.273  0.00  0.00    -0.204 NA
BRANCH  15  16
ATOM     16  C   UNN dAMED       3.372  -0.487   0.952  0.00  0.00     0.085 A 
ATOM     17  C   UNN dAMED       3.876   0.056  -0.240  0.00  0.00     0.020 A 
ATOM     18  C   UNN dAMED       5.243   0.148  -0.502  0.00  0.00     0.013 A 
ATOM     19  C   UNN dAMED       6.146  -0.338   0.432  0.00  0.00     0.058 A 
ATOM     20  C   UNN dAMED       5.697  -0.906   1.616  0.00  0.00     0.013 A 
ATOM     21 CL   UNN dAMED       7.829  -0.239   0.119  0.00  0.00    -0.082 Cl
ATOM     22  C   UNN dAMED       4.325  -0.977   1.860  0.00  0.00     0.020 A 
ENDBRANCH  15  16
ENDBRANCH  13  15
TORSDOF 2
