REMARK  3 active torsions:
REMARK  status: ('A' for Active; 'I' for Inactive)
REMARK    1  A    between atoms: N_4  and  C_7 
REMARK    2  A    between atoms: N_5  and  C_10 
REMARK    3  A    between atoms: C_12  and  O_17 
ROOT
ATOM      1  N   UNN dAMED      -0.671   0.318   0.052  0.00  0.00    -0.143 NA
ATOM      2  N   UNN dAMED      -0.229   0.735  -1.039  0.00  0.00    -0.148 NA
ENDROOT
BRANCH   1   3
ATOM      3  C   UNN dAMED      -2.056   0.202   0.033  0.00  0.00     0.166 A 
ATOM      4  C   UNN dAMED      -2.976   1.045   0.577  0.00  0.00     0.166 A 
ATOM      5  N   UNN dAMED      -4.201   0.497   0.367  0.00  0.00    -0.261 N 
ATOM      6  N   UNN dAMED      -2.716   2.272   1.240  0.00  0.00    -0.079 NA
ATOM      7  H   UNN dAMED      -5.110   0.856   0.633  0.00  0.00     0.190 HD
ATOM      8  N   UNN dAMED      -4.138  -0.689  -0.278  0.00  0.00    -0.156 NA
ATOM      9  C   UNN dAMED      -2.824  -0.856  -0.462  0.00  0.00     0.192 A 
ATOM     10  N   UNN dAMED      -2.275  -1.994  -1.112  0.00  0.00    -0.076 NA
ENDBRANCH   1   3
BRANCH   2  11
ATOM     11  C   UNN dAMED       1.173   0.882  -1.036  0.00  0.00     0.103 A 
ATOM     12  C   UNN dAMED       1.988   0.598   0.071  0.00  0.00     0.023 A 
ATOM     13  C   UNN dAMED       3.369   0.767   0.013  0.00  0.00     0.026 A 
ATOM     14  C   UNN dAMED       3.942   1.225  -1.165  0.00  0.00     0.094 A 
ATOM     15  C   UNN dAMED       3.165   1.518  -2.278  0.00  0.00     0.026 A 
ATOM     16  C   UNN dAMED       1.784   1.344  -2.206  0.00  0.00     0.023 A 
BRANCH  14  17
ATOM     17  O   UNN dAMED       5.293   1.388  -1.231  0.00  0.00    -0.328 OA
ATOM     18  C   UNN dAMED       5.737   1.299   0.091  0.00  0.00     0.181 C 
ENDBRANCH  14  17
ENDBRANCH   2  11
TORSDOF 3
