REMARK  0 active torsions:
REMARK  status: ('A' for Active; 'I' for Inactive)
ROOT
ATOM      1  O   UNN dAMED       5.771  -7.573  -1.496  0.00  0.00    -0.291 OA
ATOM      2  S   UNN dAMED       6.387   0.526  -0.549  0.00  0.00    -0.070 SA
ATOM      3  N   UNN dAMED       4.784  -0.208   1.351  0.00  0.00    -0.244 NA
ATOM      4  C   UNN dAMED       5.986   0.231   1.080  0.00  0.00     0.089 A 
ATOM      5  C   UNN dAMED       4.809   0.044  -0.969  0.00  0.00     0.055 A 
ATOM      6  C   UNN dAMED       4.120  -0.341   0.153  0.00  0.00     0.080 A 
ATOM      7  C   UNN dAMED       2.639  -0.579   0.106  0.00  0.00    -0.027 C 
ATOM      8  C   UNN dAMED       1.829  -2.158   0.387  0.00  0.00     0.011 C 
ATOM      9  C   UNN dAMED       1.720   0.170  -0.841  0.00  0.00     0.023 C 
ATOM     10  C   UNN dAMED       2.943  -0.934  -0.167  0.00  0.00     0.003 C 
ATOM     11  C   UNN dAMED       3.583  -1.354  -1.491  0.00  0.00    -0.005 C 
ATOM     12  C   UNN dAMED       0.483  -0.727  -1.024  0.00  0.00    -0.001 C 
ATOM     13  C   UNN dAMED       0.848  -2.221  -0.819  0.00  0.00     0.017 C 
ATOM     14  C   UNN dAMED       3.066  -2.670  -2.121  0.00  0.00     0.016 C 
ATOM     15  C   UNN dAMED       1.525  -2.635  -2.133  0.00  0.00     0.009 C 
ATOM     16  C   UNN dAMED       3.624  -3.859  -1.333  0.00  0.00     0.010 C 
ATOM     17  C   UNN dAMED       5.148  -3.912  -1.416  0.00  0.00     0.011 C 
ATOM     18  C   UNN dAMED       5.789  -5.247  -1.032  0.00  0.00     0.070 C 
ATOM     19  C   UNN dAMED       0.984  -4.003  -2.575  0.00  0.00    -0.002 C 
ATOM     20  C   UNN dAMED       3.101  -5.173  -1.824  0.00  0.00    -0.042 C 
ATOM     21  C   UNN dAMED       5.264  -6.483  -1.722  0.00  0.00     0.172 C 
ATOM     22  C   UNN dAMED       1.615  -5.253  -1.973  0.00  0.00     0.022 C 
ATOM     23  C   UNN dAMED       3.750  -6.332  -1.652  0.00  0.00     0.029 C 
ATOM     24  C   UNN dAMED       3.227  -3.695   0.139  0.00  0.00     0.004 C 
ATOM     25  C   UNN dAMED       2.713  -0.580   0.159  0.00  0.00     0.004 C 
ATOM     26  C   UNN dAMED       6.994   0.429   2.176  0.00  0.00     0.059 C 
ENDROOT
TORSDOF 0
