REMARK  2 active torsions:
REMARK  status: ('A' for Active; 'I' for Inactive)
REMARK    1  A    between atoms: C_11  and  C_15 
REMARK    2  A    between atoms: C_15  and  C_16 
ROOT
ATOM      1  O   UNN dAMED      -3.684   1.184  -0.391  0.00  0.00    -0.246 OA
ATOM      2  N   UNN dAMED      -2.513  -0.778   0.050  0.00  0.00    -0.246 N 
ATOM      3  O   UNN dAMED      -1.437  -2.597   1.019  0.00  0.00    -0.265 OA
ATOM      4  N   UNN dAMED      -1.385   1.127  -0.683  0.00  0.00    -0.263 N 
ATOM      5  H   UNN dAMED       1.502  -1.886   0.797  0.00  0.00     0.167 HD
ATOM      6  N   UNN dAMED       1.118  -1.039   0.397  0.00  0.00    -0.336 N 
ATOM      7  N   UNN dAMED       1.057   1.025  -0.484  0.00  0.00    -0.214 NA
ATOM      8  C   UNN dAMED      -1.394  -1.510   0.455  0.00  0.00     0.283 C 
ATOM      9  C   UNN dAMED      -0.200  -0.758   0.180  0.00  0.00     0.149 A 
ATOM     10  C   UNN dAMED      -0.200   0.513  -0.358  0.00  0.00     0.169 A 
ATOM     11  C   UNN dAMED       1.820   0.059  -0.021  0.00  0.00     0.119 A 
ATOM     12  C   UNN dAMED      -2.621   0.567  -0.361  0.00  0.00     0.335 C 
ATOM     13  C   UNN dAMED      -3.716  -1.263   0.628  0.00  0.00     0.139 C 
ATOM     14  C   UNN dAMED      -1.354   2.536  -0.515  0.00  0.00     0.137 C 
ENDROOT
BRANCH  11  15
ATOM     15  C   UNN dAMED       3.317   0.086  -0.105  0.00  0.00     0.064 C 
BRANCH  15  16
ATOM     16  C   UNN dAMED       4.131  -1.143   0.313  0.00  0.00     0.008 C 
ATOM     17  C   UNN dAMED       3.677  -2.548  -0.099  0.00  0.00     0.001 C 
ENDBRANCH  15  16
ENDBRANCH  11  15
TORSDOF 2
