REMARK  10 active torsions:
REMARK  status: ('A' for Active; 'I' for Inactive)
REMARK    1  A    between atoms: C_1  and  C_9 
REMARK    2  A    between atoms: C_1  and  C_15 
REMARK    3  A    between atoms: C_11  and  N_25 
REMARK    4  A    between atoms: C_18  and  N_20 
REMARK    5  A    between atoms: N_20  and  C_21 
REMARK    6  A    between atoms: N_20  and  C_23 
REMARK    7  A    between atoms: N_25  and  C_26 
REMARK    8  A    between atoms: N_25  and  C_28 
REMARK    9  A    between atoms: N_30  and  C_31 
REMARK   10  A    between atoms: N_30  and  C_33 
ROOT
ATOM      1  C   UNN dAMED       0.002   0.023   0.001  0.00  0.00     0.000 C 
ATOM      2  C   UNN dAMED      -0.084  -4.199  -0.291  0.00  0.00     0.056 A 
ATOM      3  C   UNN dAMED       1.223  -3.452  -0.251  0.00  0.00     0.017 A 
ATOM      4  C   UNN dAMED      -1.353  -3.394  -0.230  0.00  0.00     0.017 A 
ATOM      5  C   UNN dAMED       1.257  -2.120  -0.160  0.00  0.00     0.002 A 
ATOM      6  C   UNN dAMED      -1.320  -2.062  -0.141  0.00  0.00     0.002 A 
ATOM      7  C   UNN dAMED      -0.014  -1.314  -0.086  0.00  0.00     0.000 A 
ATOM      8  N   UNN dAMED      -0.115  -5.475  -0.376  0.00  0.00    -0.348 N 
ENDROOT
BRANCH   1   9
ATOM      9  C   UNN dAMED       1.332   0.651   0.026  0.00  0.00     0.000 A 
ATOM     10  C   UNN dAMED       1.720   1.532  -0.986  0.00  0.00     0.002 A 
ATOM     11  C   UNN dAMED       2.987   2.117  -0.964  0.00  0.00     0.017 A 
ATOM     12  C   UNN dAMED       3.886   1.818   0.062  0.00  0.00     0.056 A 
ATOM     13  C   UNN dAMED       3.502   0.937   1.072  0.00  0.00     0.017 A 
ATOM     14  C   UNN dAMED       2.230   0.365   1.059  0.00  0.00     0.002 A 
BRANCH  12  15
ATOM     15  N   UNN dAMED       5.160   2.414   0.091  0.00  0.00    -0.348 N 
BRANCH  15  16
ATOM     16  C   UNN dAMED       5.530   3.405  -0.907  0.00  0.00     0.102 C 
ATOM     17  C   UNN dAMED       4.674   3.585  -2.164  0.00  0.00     0.026 C 
ENDBRANCH  15  16
BRANCH  15  18
ATOM     18  C   UNN dAMED       6.291   1.704   0.666  0.00  0.00     0.102 C 
ATOM     19  C   UNN dAMED       7.276   0.962  -0.244  0.00  0.00     0.026 C 
ENDBRANCH  15  18
ENDBRANCH  12  15
ENDBRANCH   1   9
BRANCH   1  20
ATOM     20  C   UNN dAMED      -1.307   0.701   0.062  0.00  0.00     0.000 A 
ATOM     21  C   UNN dAMED      -1.465   1.887   0.783  0.00  0.00     0.002 A 
ATOM     22  C   UNN dAMED      -2.707   2.524   0.842  0.00  0.00     0.017 A 
ATOM     23  C   UNN dAMED      -3.814   1.976   0.192  0.00  0.00     0.056 A 
ATOM     24  C   UNN dAMED      -3.668   0.789  -0.521  0.00  0.00     0.017 A 
ATOM     25  C   UNN dAMED      -2.424   0.166  -0.593  0.00  0.00     0.002 A 
BRANCH  23  26
ATOM     26  N   UNN dAMED      -5.065   2.615   0.244  0.00  0.00    -0.348 N 
BRANCH  26  27
ATOM     27  C   UNN dAMED      -6.095   2.279  -0.729  0.00  0.00     0.102 C 
ATOM     28  C   UNN dAMED      -6.006   0.972  -1.524  0.00  0.00     0.026 C 
ENDBRANCH  26  27
BRANCH  26  29
ATOM     29  C   UNN dAMED      -5.175   3.966   0.771  0.00  0.00     0.102 C 
ATOM     30  C   UNN dAMED      -4.663   5.155  -0.049  0.00  0.00     0.026 C 
ENDBRANCH  26  29
ENDBRANCH  23  26
ENDBRANCH   1  20
BRANCH   8  31
ATOM     31  C   UNN dAMED      -1.363  -6.157  -0.412  0.00  0.00     0.102 C 
ATOM     32  C   UNN dAMED      -1.830  -6.836  -1.704  0.00  0.00     0.026 C 
ENDBRANCH   8  31
BRANCH   8  33
ATOM     33  C   UNN dAMED       1.100  -6.213  -0.436  0.00  0.00     0.102 C 
ATOM     34  C   UNN dAMED       2.282  -5.677  -1.250  0.00  0.00     0.026 C 
ENDBRANCH   8  33
TORSDOF 10
