REMARK  1 active torsions:
REMARK  status: ('A' for Active; 'I' for Inactive)
REMARK    1  A    between atoms: C_9  and  C_17 
ROOT
ATOM      1  C   UNN dAMED      -4.085  -0.277   1.419  0.00  0.00     0.000 A 
ATOM      2  C   UNN dAMED      -3.956  -0.062   0.049  0.00  0.00     0.000 A 
ATOM      3  C   UNN dAMED      -2.950  -0.387   2.218  0.00  0.00     0.000 A 
ATOM      4  C   UNN dAMED      -1.685  -0.278   1.648  0.00  0.00     0.000 A 
ATOM      5  C   UNN dAMED      -2.691   0.045  -0.523  0.00  0.00     0.000 A 
ATOM      6  C   UNN dAMED      -1.552  -0.061   0.276  0.00  0.00     0.000 A 
ATOM      7  C   UNN dAMED      -0.183   0.102  -0.356  0.00  0.00     0.005 A 
ATOM      8  C   UNN dAMED       0.788  -1.036  -0.454  0.00  0.00     0.001 A 
ATOM      9  C   UNN dAMED       0.715   1.278  -0.052  0.00  0.00     0.066 A 
ATOM     10  C   UNN dAMED       0.570  -2.358  -0.786  0.00  0.00     0.000 A 
ATOM     11  C   UNN dAMED       1.689  -3.184  -0.890  0.00  0.00     0.000 A 
ATOM     12  C   UNN dAMED       2.004   0.911  -0.020  0.00  0.00     0.074 A 
ATOM     13  C   UNN dAMED       2.084  -0.525  -0.264  0.00  0.00     0.013 A 
ATOM     14  C   UNN dAMED       2.984  -2.681  -0.680  0.00  0.00     0.000 A 
ATOM     15  C   UNN dAMED       3.196  -1.336  -0.372  0.00  0.00     0.001 A 
ATOM     16  N   UNN dAMED       3.106   1.780   0.190  0.00  0.00    -0.100 NA
ENDROOT
BRANCH   9  17
ATOM     17  C   UNN dAMED       0.342   2.687   0.059  0.00  0.00     0.267 C 
ATOM     18  O   UNN dAMED      -0.798   3.074  -0.156  0.00  0.00    -0.271 OA
ATOM     19  N   UNN dAMED       1.352   3.645   0.359  0.00  0.00    -0.057 NA
ENDBRANCH   9  17
TORSDOF 1
