REMARK  1 active torsions:
REMARK  status: ('A' for Active; 'I' for Inactive)
REMARK    1  A    between atoms: O_1  and  C_3 
ROOT
ATOM      1  C   UNN dAMED      -4.623  -1.398  -0.047  0.00  0.00     0.081 A 
ATOM      2  C   UNN dAMED      -6.105  -1.064  -0.140  0.00  0.00     0.115 A 
ATOM      3  C   UNN dAMED      -6.265   0.450   0.003  0.00  0.00     0.217 A 
ATOM      4  C   UNN dAMED      -2.564   0.243  -0.291  0.00  0.00    -0.008 C 
ATOM      5  C   UNN dAMED      -3.954  -0.074   0.286  0.00  0.00    -0.010 A 
ATOM      6  C   UNN dAMED      -5.041   0.973   0.259  0.00  0.00     0.076 A 
ATOM      7  C   UNN dAMED      -1.591  -0.646  -0.239  0.00  0.00    -0.022 C 
ATOM      8  C   UNN dAMED      -4.751   2.386   0.582  0.00  0.00     0.200 C 
ATOM      9  O   UNN dAMED      -5.515   3.305   0.326  0.00  0.00    -0.286 OA
ATOM     10  C   UNN dAMED      -3.343   2.728   0.981  0.00  0.00     0.065 C 
ATOM     11  C   UNN dAMED      -0.194  -1.054  -0.651  0.00  0.00    -0.004 C 
ATOM     12  C   UNN dAMED      -2.223   2.908  -0.054  0.00  0.00     0.112 C 
ATOM     13  C   UNN dAMED       0.440  -2.037  -0.012  0.00  0.00    -0.000 C 
ATOM     14  C   UNN dAMED      -0.815   2.522   0.394  0.00  0.00     0.059 C 
ATOM     15  C   UNN dAMED       1.959  -2.202  -0.155  0.00  0.00     0.005 C 
ATOM     16  C   UNN dAMED       2.607  -3.088   0.602  0.00  0.00     0.060 C 
ATOM     17  C   UNN dAMED      -0.636   1.338   1.342  0.00  0.00     0.033 C 
ATOM     18  O   UNN dAMED       4.711  -4.047   1.016  0.00  0.00    -0.267 OA
ATOM     19  C   UNN dAMED       4.106  -3.013   0.752  0.00  0.00     0.258 C 
ATOM     20  N   UNN dAMED       4.693  -1.778   0.682  0.00  0.00    -0.324 N 
ATOM     21  H   UNN dAMED       5.679  -1.568   0.584  0.00  0.00     0.169 HD
ATOM     22  C   UNN dAMED       1.485   0.269   0.637  0.00  0.00    -0.024 C 
ATOM     23  C   UNN dAMED       0.190   0.124   0.903  0.00  0.00    -0.030 C 
ATOM     24  C   UNN dAMED       2.323  -0.965   0.292  0.00  0.00     0.069 C 
ATOM     25  C   UNN dAMED       3.829  -0.846   0.036  0.00  0.00     0.041 C 
ATOM     26  O   UNN dAMED      -7.432   0.918  -0.056  0.00  0.00    -0.285 OA
ATOM     27  C   UNN dAMED      -1.649  -2.080   0.265  0.00  0.00     0.031 C 
ATOM     28  O   UNN dAMED      -2.338   3.892  -0.997  0.00  0.00    -0.195 OA
ATOM     29  C   UNN dAMED       4.320  -0.017  -1.131  0.00  0.00     0.012 A 
ATOM     30  C   UNN dAMED       5.111  -0.593  -2.125  0.00  0.00     0.001 A 
ATOM     31  C   UNN dAMED       5.521   0.160  -3.222  0.00  0.00     0.000 A 
ATOM     32  C   UNN dAMED       5.123   1.487  -3.342  0.00  0.00     0.000 A 
ATOM     33  C   UNN dAMED       4.325   2.062  -2.355  0.00  0.00     0.000 A 
ATOM     34  C   UNN dAMED       3.923   1.313  -1.251  0.00  0.00     0.001 A 
ENDROOT
BRANCH   2  35
ATOM     35  O   UNN dAMED      -6.969  -1.863  -0.958  0.00  0.00    -0.329 OA
ATOM     36  C   UNN dAMED      -6.397  -2.330   0.263  0.00  0.00     0.181 C 
ENDBRANCH   2  35
TORSDOF 1
