REMARK  4 active torsions:
REMARK  status: ('A' for Active; 'I' for Inactive)
REMARK    1  A    between atoms: C_1  and  C_13 
REMARK    2  A    between atoms: C_3  and  N_16 
REMARK    3  A    between atoms: C_9  and  N_19 
REMARK    4  A    between atoms: C_10  and  S_20 
REMARK       I    between atoms: N_16  and  C_17 
REMARK       I    between atoms: C_17  and  N_19 
ROOT
ATOM      1  N   UNN dAMED      -1.531  -0.207  -0.503  0.00  0.00    -0.191 NA
ATOM      2  C   UNN dAMED      -0.737   0.751   0.024  0.00  0.00     0.369 C 
ATOM      3  O   UNN dAMED       0.170   0.532   0.823  0.00  0.00    -0.242 OA
ATOM      4  N   UNN dAMED      -1.047   1.982  -0.440  0.00  0.00    -0.191 NA
ENDROOT
BRANCH   1   5
ATOM      5  C   UNN dAMED      -2.570  -0.565   0.289  0.00  0.00     0.090 A 
ATOM      6  C   UNN dAMED      -3.860  -0.013   0.172  0.00  0.00     0.071 A 
ATOM      7  C   UNN dAMED      -4.945  -0.488   0.912  0.00  0.00     0.006 A 
ATOM      8  C   UNN dAMED      -4.759  -1.533   1.809  0.00  0.00     0.000 A 
ATOM      9  C   UNN dAMED      -3.499  -2.102   1.952  0.00  0.00     0.002 A 
ATOM     10  C   UNN dAMED      -2.427  -1.628   1.192  0.00  0.00     0.019 A 
BRANCH   6  11
ATOM     11  C   UNN dAMED      -4.120   1.068  -0.790  0.00  0.00     0.268 C 
ATOM     12  O   UNN dAMED      -4.864   1.994  -0.497  0.00  0.00    -0.271 OA
ATOM     13  N   UNN dAMED      -3.182   1.259  -1.846  0.00  0.00    -0.057 NA
ENDBRANCH   6  11
ENDBRANCH   1   5
BRANCH   4  14
ATOM     14  C   UNN dAMED      -0.526   2.254  -1.659  0.00  0.00     0.086 A 
ATOM     15  C   UNN dAMED      -1.272   2.014  -2.823  0.00  0.00     0.020 A 
ATOM     16  C   UNN dAMED      -0.775   2.314  -4.089  0.00  0.00     0.008 A 
ATOM     17  C   UNN dAMED       0.482   2.893  -4.217  0.00  0.00     0.025 A 
ATOM     18  C   UNN dAMED       1.229   3.176  -3.076  0.00  0.00     0.008 A 
ATOM     19  C   UNN dAMED       0.724   2.864  -1.811  0.00  0.00     0.020 A 
BRANCH  17  20
ATOM     20  S   UNN dAMED       1.118   3.268  -5.827  0.00  0.00    -0.113 SA
ATOM     21  C   UNN dAMED       0.416   1.820  -6.614  0.00  0.00     0.074 C 
ENDBRANCH  17  20
ENDBRANCH   4  14
TORSDOF 4
