REMARK  2 active torsions:
REMARK  status: ('A' for Active; 'I' for Inactive)
REMARK    1  A    between atoms: C_3  and  AS_15 
REMARK    2  A    between atoms: C_9  and  AS_15 
ROOT
ATOM      1  O   UNN dAMED      -0.155   1.037   1.858  0.00  0.00     0.000 OA
ATOM      2 AS   UNN dAMED       0.000   0.109   0.577  0.00  0.00     0.000 As
ATOM      3  O   UNN dAMED      -0.316  -1.562   1.031  0.00  0.00     0.000 OA
ENDROOT
BRANCH   2   4
ATOM      4  C   UNN dAMED       1.784   0.265  -0.112  0.00  0.00     0.003 A 
ATOM      5  C   UNN dAMED       2.335   0.834  -1.235  0.00  0.00     0.000 A 
ATOM      6  C   UNN dAMED       3.708   0.775  -1.427  0.00  0.00     0.003 A 
ATOM      7  C   UNN dAMED       4.518   0.142  -0.479  0.00  0.00     0.042 A 
ATOM      8  C   UNN dAMED       4.020  -0.464   0.686  0.00  0.00     0.196 A 
ATOM      9  C   UNN dAMED       2.627  -0.371   0.827  0.00  0.00     0.042 A 
ATOM     10  O   UNN dAMED       4.766  -1.041   1.542  0.00  0.00    -0.287 OA
ENDBRANCH   2   4
BRANCH   2  11
ATOM     11  C   UNN dAMED      -1.254   0.674  -0.760  0.00  0.00     0.003 A 
ATOM     12  C   UNN dAMED      -1.136   1.526  -1.836  0.00  0.00     0.000 A 
ATOM     13  C   UNN dAMED      -2.245   1.777  -2.631  0.00  0.00     0.003 A 
ATOM     14  C   UNN dAMED      -3.468   1.169  -2.334  0.00  0.00     0.042 A 
ATOM     15  C   UNN dAMED      -3.656   0.294  -1.251  0.00  0.00     0.196 A 
ATOM     16  C   UNN dAMED      -2.503   0.081  -0.481  0.00  0.00     0.042 A 
ATOM     17  O   UNN dAMED      -4.773  -0.254  -0.989  0.00  0.00    -0.287 OA
ENDBRANCH   2  11
TORSDOF 2
