REMARK  2 active torsions:
REMARK  status: ('A' for Active; 'I' for Inactive)
REMARK    1  A    between atoms: C_4  and  C_17 
REMARK    2  A    between atoms: C_9  and  N_16 
REMARK       I    between atoms: N_16  and  C_17 
ROOT
ATOM      1 CL   UNN dAMED      -1.320   3.097  -0.045  0.00  0.00    -0.081 Cl
ATOM      2  C   UNN dAMED      -1.663  -0.909  -0.011  0.00  0.00     0.017 A 
ATOM      3  C   UNN dAMED      -1.059   0.359  -0.005  0.00  0.00     0.095 A 
ATOM      4  C   UNN dAMED      -3.050  -1.065  -0.003  0.00  0.00    -0.007 A 
ATOM      5  C   UNN dAMED      -1.921   1.474  -0.010  0.00  0.00     0.076 A 
ATOM      6  C   UNN dAMED      -3.873   0.054   0.002  0.00  0.00     0.067 A 
ATOM      7  C   UNN dAMED      -3.309   1.324   0.000  0.00  0.00     0.027 A 
ATOM      8  N   UNN dAMED      -5.287  -0.098  -0.057  0.00  0.00    -0.101 NA
ATOM      9  C   UNN dAMED      -3.652  -2.440  -0.059  0.00  0.00     0.032 C 
ENDROOT
BRANCH   3  10
ATOM     10  N   UNN dAMED       0.287   0.456  -0.089  0.00  0.00    -0.207 NA
ATOM     11  C   UNN dAMED       0.909   0.511   1.093  0.00  0.00     0.279 C 
ATOM     12  O   UNN dAMED       0.533   1.002   2.155  0.00  0.00    -0.265 OA
BRANCH  11  13
ATOM     13  C   UNN dAMED       2.282  -0.008   1.047  0.00  0.00     0.058 A 
ATOM     14  C   UNN dAMED       3.291   0.773   0.483  0.00  0.00     0.005 A 
ATOM     15  C   UNN dAMED       4.595   0.287   0.462  0.00  0.00     0.000 A 
ATOM     16  C   UNN dAMED       4.883  -0.959   1.019  0.00  0.00     0.000 A 
ATOM     17  C   UNN dAMED       3.868  -1.723   1.596  0.00  0.00     0.000 A 
ATOM     18  C   UNN dAMED       2.559  -1.251   1.613  0.00  0.00     0.005 A 
ENDBRANCH  11  13
ENDBRANCH   3  10
TORSDOF 2
