REMARK  10 active torsions:
REMARK  status: ('A' for Active; 'I' for Inactive)
REMARK    1  A    between atoms: 7_7  and  41_41 
REMARK    2  A    between atoms: 8_8  and  43_43 
REMARK    3  A    between atoms: 12_12  and  47_47 
REMARK    4  A    between atoms: 13_13  and  46_46 
REMARK    5  A    between atoms: 15_15  and  38_38 
REMARK    6  A    between atoms: 18_18  and  35_35 
REMARK    7  A    between atoms: 21_21  and  52_52 
REMARK    8  A    between atoms: 29_29  and  49_49 
REMARK    9  A    between atoms: 40_40  and  41_41 
REMARK   10  A    between atoms: 52_52  and  53_53 
ROOT
ATOM      1  1   UNN dAMED       4.751 -14.412  -0.000  0.00  0.00    -0.172 OA
ATOM      2  2   UNN dAMED       6.989 -14.258  -0.000  0.00  0.00    -0.334 N 
ATOM      3  3   UNN dAMED       6.220 -15.545  -0.000  0.00  0.00     0.168 HD
ATOM      4  4   UNN dAMED      14.102 -18.353   0.000  0.00  0.00    -0.191 OA
ATOM      5  5   UNN dAMED      15.337 -11.591  -0.000  0.00  0.00    -0.342 OA
ATOM      6  6   UNN dAMED      16.657 -13.829  -0.000  0.00  0.00    -0.325 OA
ATOM      7  7   UNN dAMED       8.825  -2.672  -0.000  0.00  0.00     0.115 A 
ATOM      8  8   UNN dAMED      10.316  -2.516   0.000  0.00  0.00     0.136 A 
ATOM      9  9   UNN dAMED      16.047  -6.781   0.000  0.00  0.00    -0.042 A 
ATOM     10  10  UNN dAMED      14.121 -12.141  -0.000  0.00  0.00     0.157 A 
ATOM     11  11  UNN dAMED      15.204  -5.394   0.000  0.00  0.00     0.019 A 
ATOM     12  12  UNN dAMED      14.431  -4.117   0.000  0.00  0.00     0.098 A 
ATOM     13  13  UNN dAMED      13.201  -3.259  -0.000  0.00  0.00     0.162 A 
ATOM     14  14  UNN dAMED      11.803  -2.715   0.000  0.00  0.00     0.043 A 
ATOM     15  15  UNN dAMED       7.412  -3.176   0.000  0.00  0.00     0.136 A 
ATOM     16  16  UNN dAMED      14.059 -13.854  -0.000  0.00  0.00     0.032 A 
ATOM     17  17  UNN dAMED       6.158  -3.999  -0.000  0.00  0.00     0.040 A 
ATOM     18  18  UNN dAMED       5.133  -5.094   0.000  0.00  0.00     0.131 A 
ATOM     19  19  UNN dAMED      15.365 -14.591  -0.000  0.00  0.00     0.091 A 
ATOM     20  20  UNN dAMED      12.767 -14.616   0.000  0.00  0.00     0.023 A 
ATOM     21  21  UNN dAMED      11.332 -15.052  -0.000  0.00  0.00     0.092 A 
ATOM     22  22  UNN dAMED       9.834 -15.137   0.000  0.00  0.00    -0.001 A 
ATOM     23  23  UNN dAMED       4.395  -6.400  -0.000  0.00  0.00     0.033 A 
ATOM     24  24  UNN dAMED      15.379 -16.091   0.000  0.00  0.00     0.009 A 
ATOM     25  25  UNN dAMED      12.783 -16.115   0.000  0.00  0.00     0.037 A 
ATOM     26  26  UNN dAMED       8.381 -14.882   0.000  0.00  0.00     0.063 A 
ATOM     27  27  UNN dAMED       3.986  -7.843  -0.000  0.00  0.00    -0.020 A 
ATOM     28  28  UNN dAMED      14.088 -16.854   0.000  0.00  0.00     0.126 A 
ATOM     29  29  UNN dAMED      11.041 -18.468   0.001  0.00  0.00     0.172 A 
ATOM     30  30  UNN dAMED       3.929  -9.342  -0.000  0.00  0.00    -0.003 A 
ATOM     31  31  UNN dAMED       5.801 -13.341  -0.000  0.00  0.00     0.185 A 
ATOM     32  32  UNN dAMED       4.863 -12.171  -0.000  0.00  0.00    -0.008 A 
ATOM     33  33  UNN dAMED       4.481 -10.729  -0.000  0.00  0.00     0.011 A 
ATOM     34  34  UNN dAMED      16.643 -12.329  -0.000  0.00  0.00     0.347 A 
ATOM     35  36  UNN dAMED       5.191  -2.851  -0.000  0.00  0.00     0.015 C 
ATOM     36  37  UNN dAMED       3.011  -5.823  -0.000  0.00  0.00     0.017 C 
ATOM     37  44  UNN dAMED       3.589 -12.964  -0.000  0.00  0.00     0.052 C 
ATOM     38  45  UNN dAMED      12.178  -1.262   0.000  0.00  0.00     0.015 C 
ATOM     39  48  UNN dAMED      15.873  -3.704  -0.000  0.00  0.00     0.053 C 
ATOM     40  50  UNN dAMED       9.741 -16.635   0.000  0.00  0.00     0.053 C 
ATOM     41  51  UNN dAMED      17.620  -6.463   0.000  0.00  0.00     0.047 C 
ATOM     42  56  UNN dAMED      16.685 -16.829  -0.000  0.00  0.00     0.054 C 
ENDROOT
BRANCH   7  43
ATOM     43  41  UNN dAMED       8.491  -1.209   0.000  0.00  0.00     0.265 C 
ATOM     44  42  UNN dAMED       7.068  -0.762   0.150  0.00  0.00    -0.191 OA
BRANCH  43  45
ATOM     45  40  UNN dAMED       9.583  -0.183  -0.147  0.00  0.00    -0.353 OA
ATOM     46  39  UNN dAMED       9.636   0.993   0.767  0.00  0.00     0.206 C 
ENDBRANCH  43  45
ENDBRANCH   7  43
BRANCH   8  47
ATOM     47  43  UNN dAMED      10.339  -1.017   0.001  0.00  0.00    -0.394 OA
ATOM     48  H2  UNN dAMED       9.529  -0.691  -0.402  0.00  0.00     0.210 HD
ENDBRANCH   8  47
BRANCH  15  49
ATOM     49  38  UNN dAMED       6.743  -1.835  -0.000  0.00  0.00    -0.394 OA
ATOM     50  H2  UNN dAMED       7.063  -1.317   0.744  0.00  0.00     0.210 HD
ENDBRANCH  15  49
BRANCH  13  51
ATOM     51  46  UNN dAMED      13.904  -1.933  -0.000  0.00  0.00    -0.392 OA
ATOM     52  H2  UNN dAMED      14.241  -1.751  -0.881  0.00  0.00     0.210 HD
ENDBRANCH  13  51
BRANCH  18  53
ATOM     53  35  UNN dAMED       3.924  -4.207  -0.000  0.00  0.00    -0.394 OA
ATOM     54  H2  UNN dAMED       4.006  -3.554   0.701  0.00  0.00     0.210 HD
ENDBRANCH  18  53
BRANCH  12  55
ATOM     55  47  UNN dAMED      14.680  -2.641   0.000  0.00  0.00    -0.384 OA
ATOM     56  H2  UNN dAMED      14.414  -2.270   0.846  0.00  0.00     0.211 HD
ENDBRANCH  12  55
BRANCH  21  57
ATOM     57  52  UNN dAMED      12.027 -14.937   0.000  0.00  0.00    -0.305 OA
BRANCH  57  58
ATOM     58  53  UNN dAMED      11.993 -17.220  -1.272  0.00  0.00     0.258 C 
ATOM     59  54  UNN dAMED      13.397 -17.715  -1.448  0.00  0.00    -0.191 OA
ATOM     60  55  UNN dAMED      10.984 -17.416  -2.364  0.00  0.00     0.088 C 
ENDBRANCH  57  58
ENDBRANCH  21  57
BRANCH  29  61
ATOM     61  49  UNN dAMED      11.474 -18.390   0.000  0.00  0.00    -0.374 OA
ATOM     62  H2  UNN dAMED      11.083 -18.704  -0.819  0.00  0.00     0.211 HD
ENDBRANCH  29  61
TORSDOF 10
