REMARK  7 active torsions:
REMARK  status: ('A' for Active; 'I' for Inactive)
REMARK    1  A    between atoms: N_11  and  P_16 
REMARK    2  A    between atoms: O_12  and  C_13 
REMARK    3  A    between atoms: O_12  and  P_16 
REMARK    4  A    between atoms: C_13  and  C_14 
REMARK    5  A    between atoms: P_16  and  O_17 
REMARK    6  A    between atoms: O_17  and  C_18 
REMARK    7  A    between atoms: C_18  and  C_19 
ROOT
ATOM      1  H   UNN dAMED       0.511  -2.123   0.636  0.00  0.00     0.185 HD
ATOM      2  N   UNN dAMED       0.985  -1.235   0.523  0.00  0.00    -0.174 N 
ATOM      3  O   UNN dAMED       2.790   2.222   0.044  0.00  0.00    -0.265 OA
ATOM      4  N   UNN dAMED       1.029   0.885  -0.589  0.00  0.00    -0.021 NA
ATOM      5  C   UNN dAMED       0.477  -0.259  -0.310  0.00  0.00     0.734 C 
ATOM      6  C   UNN dAMED       2.236  -1.129   1.061  0.00  0.00     0.149 C 
ATOM      7  C   UNN dAMED       2.887   0.010   0.826  0.00  0.00     0.095 C 
ATOM      8  C   UNN dAMED       2.211   1.143   0.072  0.00  0.00     0.298 C 
ATOM      9  N   UNN dAMED       2.829  -2.242   1.716  0.00  0.00    -0.081 NA
ATOM     10  N   UNN dAMED      -0.677  -0.609  -0.882  0.00  0.00    -0.014 NA
ENDROOT
BRANCH  10  11
ATOM     11  P   UNN dAMED      -1.976   0.476  -0.595  0.00  0.00     0.329 P 
ATOM     12  S   UNN dAMED      -2.592   0.438   1.245  0.00  0.00    -0.012 SA
BRANCH  11  13
ATOM     13  O   UNN dAMED      -1.488   1.916  -1.163  0.00  0.00    -0.298 OA
BRANCH  13  14
ATOM     14  C   UNN dAMED      -0.120   1.738  -1.384  0.00  0.00     0.151 C 
BRANCH  14  15
ATOM     15  C   UNN dAMED       0.613   0.587  -0.680  0.00  0.00     0.033 C 
ATOM     16  C   UNN dAMED       1.524  -0.357  -1.472  0.00  0.00     0.003 C 
ENDBRANCH  14  15
ENDBRANCH  13  14
ENDBRANCH  11  13
BRANCH  11  17
ATOM     17  O   UNN dAMED      -3.092   0.075  -1.701  0.00  0.00    -0.298 OA
BRANCH  17  18
ATOM     18  C   UNN dAMED      -2.485   0.313  -2.938  0.00  0.00     0.151 C 
BRANCH  18  19
ATOM     19  C   UNN dAMED      -1.559   1.520  -3.127  0.00  0.00     0.033 C 
ATOM     20  C   UNN dAMED      -2.091   2.944  -2.923  0.00  0.00     0.003 C 
ENDBRANCH  18  19
ENDBRANCH  17  18
ENDBRANCH  11  17
ENDBRANCH  10  11
TORSDOF 7
