REMARK  0 active torsions:
REMARK  status: ('A' for Active; 'I' for Inactive)
ROOT
ATOM      1  C   UNN dAMED      -5.442   1.185  -0.617  0.00  0.00     0.019 A 
ATOM      2  C   UNN dAMED      -5.219   2.442  -1.175  0.00  0.00     0.002 A 
ATOM      3  N   UNN dAMED      -4.675  -0.845   0.297  0.00  0.00    -0.250 NA
ATOM      4  C   UNN dAMED      -4.398   0.354  -0.236  0.00  0.00     0.082 A 
ATOM      5  C   UNN dAMED      -3.920   2.891  -1.363  0.00  0.00     0.000 A 
ATOM      6  C   UNN dAMED      -3.639  -1.631   0.661  0.00  0.00     0.060 A 
ATOM      7  C   UNN dAMED      -3.075   0.808  -0.426  0.00  0.00     0.035 A 
ATOM      8  C   UNN dAMED      -2.858   2.075  -0.990  0.00  0.00     0.003 A 
ATOM      9  C   UNN dAMED      -2.312  -1.257   0.508  0.00  0.00     0.027 A 
ATOM     10  C   UNN dAMED      -2.001  -0.010  -0.050  0.00  0.00     0.084 A 
ATOM     11  N   UNN dAMED      -0.709   0.367  -0.208  0.00  0.00    -0.245 NA
ATOM     12  C   UNN dAMED      -1.283  -2.106   0.905  0.00  0.00    -0.018 A 
ATOM     13  C   UNN dAMED       0.038  -1.711   0.750  0.00  0.00     0.015 A 
ATOM     14  C   UNN dAMED       0.290  -0.470   0.184  0.00  0.00     0.083 A 
ATOM     15  C   UNN dAMED       2.032   1.282   0.446  0.00  0.00     0.062 A 
ATOM     16  C   UNN dAMED       1.652   0.022  -0.002  0.00  0.00     0.044 A 
ATOM     17  N   UNN dAMED       3.278   1.804   0.308  0.00  0.00    -0.250 NA
ATOM     18  C   UNN dAMED       2.640  -0.733  -0.629  0.00  0.00     0.074 A 
ATOM     19  C   UNN dAMED       4.219   1.055  -0.295  0.00  0.00     0.082 A 
ATOM     20  C   UNN dAMED       3.933  -0.233  -0.780  0.00  0.00     0.031 A 
ATOM     21  C   UNN dAMED       4.919  -1.002  -1.401  0.00  0.00     0.003 A 
ATOM     22  C   UNN dAMED       5.513   1.534  -0.457  0.00  0.00     0.019 A 
ATOM     23  C   UNN dAMED       6.207  -0.500  -1.549  0.00  0.00     0.000 A 
ATOM     24  C   UNN dAMED       6.505   0.772  -1.076  0.00  0.00     0.002 A 
ATOM     25  C   UNN dAMED      -3.941  -2.977   1.260  0.00  0.00     0.052 C 
ATOM     26  C   UNN dAMED      -1.602  -3.447   1.505  0.00  0.00     0.031 C 
ATOM     27  C   UNN dAMED       0.982   2.121   1.120  0.00  0.00     0.052 C 
ATOM     28  N   UNN dAMED       2.335  -2.038  -1.110  0.00  0.00    -0.100 NA
ENDROOT
TORSDOF 0
