REMARK  5 active torsions:
REMARK  status: ('A' for Active; 'I' for Inactive)
REMARK    1  A    between atoms: C_2  and  C_21 
REMARK    2  A    between atoms: C_9  and  C_16 
REMARK    3  A    between atoms: C_10  and  N_13 
REMARK    4  A    between atoms: C_17  and  C_18 
REMARK    5  A    between atoms: N_19  and  N_20 
ROOT
ATOM      1  C   UNN dAMED      -1.979   0.814   0.986  0.00  0.00     0.003 C 
ATOM      2  C   UNN dAMED      -1.121  -0.134   1.360  0.00  0.00     0.023 C 
ENDROOT
BRANCH   2   3
ATOM      3  C   UNN dAMED       0.359  -0.012   0.989  0.00  0.00     0.122 C 
ATOM      4  N   UNN dAMED       0.879   1.123   0.876  0.00  0.00    -0.146 NA
BRANCH   4   5
ATOM      5  N   UNN dAMED       2.219   1.243   0.552  0.00  0.00    -0.146 NA
ATOM      6  C   UNN dAMED       2.941   0.218   0.487  0.00  0.00     0.125 C 
BRANCH   6   7
ATOM      7  C   UNN dAMED       4.409   0.310   0.144  0.00  0.00     0.060 A 
ATOM      8  C   UNN dAMED       4.786   0.262  -1.205  0.00  0.00     0.005 A 
ATOM      9  C   UNN dAMED       6.129   0.249  -1.553  0.00  0.00     0.000 A 
ATOM     10  C   UNN dAMED       7.089   0.285  -0.553  0.00  0.00     0.003 A 
ATOM     11  C   UNN dAMED       6.689   0.331   0.785  0.00  0.00     0.042 A 
ATOM     12  C   UNN dAMED       5.345   0.341   1.197  0.00  0.00     0.197 A 
ATOM     13  O   UNN dAMED       5.004   0.367   2.423  0.00  0.00    -0.286 OA
ENDBRANCH   6   7
ENDBRANCH   4   5
ENDBRANCH   2   3
BRANCH   1  14
ATOM     14  C   UNN dAMED      -3.396   0.760   1.474  0.00  0.00     0.022 A 
ATOM     15  C   UNN dAMED      -4.343   1.672   1.023  0.00  0.00     0.002 A 
ATOM     16  C   UNN dAMED      -5.631   1.656   1.562  0.00  0.00     0.000 A 
ATOM     17  C   UNN dAMED      -5.971   0.739   2.559  0.00  0.00     0.002 A 
ATOM     18  C   UNN dAMED      -5.026  -0.169   3.031  0.00  0.00     0.024 A 
ATOM     19  C   UNN dAMED      -3.754  -0.141   2.470  0.00  0.00     0.127 A 
BRANCH  19  20
ATOM     20  N   UNN dAMED      -2.760  -1.062   2.952  0.00  0.00    -0.114 N 
ATOM     21  O   UNN dAMED      -3.042  -2.267   2.915  0.00  0.00    -0.532 OA
ATOM     22  O   UNN dAMED      -1.696  -0.580   3.361  0.00  0.00    -0.532 OA
ENDBRANCH  19  20
ENDBRANCH   1  14
TORSDOF 5
