REMARK  3 active torsions:
REMARK  status: ('A' for Active; 'I' for Inactive)
REMARK    1  A    between atoms: N_13  and  C_15 
REMARK    2  A    between atoms: C_15  and  C_16 
REMARK    3  A    between atoms: C_16  and  C_17 
ROOT
ATOM      1  C   UNN dAMED      -3.451   0.397  -0.343  0.00  0.00     0.008 A 
ATOM      2  C   UNN dAMED      -0.243  -3.837  -0.189  0.00  0.00     0.008 A 
ATOM      3  C   UNN dAMED      -3.510   1.786  -0.284  0.00  0.00     0.001 A 
ATOM      4  C   UNN dAMED      -2.228  -0.274  -0.239  0.00  0.00     0.045 A 
ATOM      5  C   UNN dAMED      -0.559  -2.475  -0.159  0.00  0.00     0.045 A 
ATOM      6  C   UNN dAMED       1.075  -4.267  -0.064  0.00  0.00     0.001 A 
ATOM      7  C   UNN dAMED      -2.341   2.519  -0.121  0.00  0.00     0.002 A 
ATOM      8  C   UNN dAMED      -1.047   0.461  -0.077  0.00  0.00     0.066 A 
ATOM      9  C   UNN dAMED       0.462  -1.530  -0.004  0.00  0.00     0.066 A 
ATOM     10  C   UNN dAMED       2.091  -3.334   0.092  0.00  0.00     0.002 A 
ATOM     11  C   UNN dAMED      -1.120   1.858  -0.018  0.00  0.00     0.018 A 
ATOM     12  C   UNN dAMED       1.784  -1.976   0.121  0.00  0.00     0.018 A 
ATOM     13  N   UNN dAMED       0.232  -0.134   0.031  0.00  0.00    -0.326 N 
ATOM     14  S   UNN dAMED      -2.273  -2.046  -0.329  0.00  0.00    -0.084 SA
ENDROOT
BRANCH  13  15
ATOM     15  C   UNN dAMED       1.386   0.744   0.163  0.00  0.00     0.117 C 
BRANCH  15  16
ATOM     16  C   UNN dAMED       2.603   0.294   0.978  0.00  0.00     0.122 C 
BRANCH  16  17
ATOM     17  C   UNN dAMED       3.818   1.177   1.081  0.00  0.00     0.187 C 
ATOM     18  O   UNN dAMED       4.743   0.775   1.848  0.00  0.00    -0.647 OA
ATOM     19  O   UNN dAMED       3.811   2.234   0.382  0.00  0.00    -0.647 OA
ENDBRANCH  16  17
ENDBRANCH  15  16
ENDBRANCH  13  15
TORSDOF 3
