REMARK  4 active torsions:
REMARK  status: ('A' for Active; 'I' for Inactive)
REMARK    1  A    between atoms: C_8  and  C_20 
REMARK    2  A    between atoms: C_10  and  C_23 
REMARK    3  A    between atoms: C_19  and  C_23 
REMARK    4  A    between atoms: C_20  and  C_23 
ROOT
ATOM      1  C   UNN dAMED      -1.519  -0.143   0.651  0.00  0.00     0.020 C 
ENDROOT
BRANCH   1   2
ATOM      2  C   UNN dAMED      -0.572   0.979   1.000  0.00  0.00    -0.000 A 
ATOM      3  C   UNN dAMED      -0.089   1.108   2.301  0.00  0.00    -0.000 A 
ATOM      4  C   UNN dAMED       0.818   2.119   2.607  0.00  0.00    -0.000 A 
ATOM      5  C   UNN dAMED       1.246   2.997   1.614  0.00  0.00    -0.000 A 
ATOM      6  C   UNN dAMED       0.770   2.862   0.312  0.00  0.00    -0.000 A 
ATOM      7  C   UNN dAMED      -0.139   1.852   0.004  0.00  0.00    -0.000 A 
ENDBRANCH   1   2
BRANCH   1   8
ATOM      8  C   UNN dAMED      -0.939  -1.482   0.170  0.00  0.00     0.028 C 
ATOM      9  N   UNN dAMED      -0.893  -1.765  -1.267  0.00  0.00    -0.377 N 
ATOM     10  H   UNN dAMED      -0.990  -0.988  -1.920  0.00  0.00     0.160 HD
ATOM     11  C   UNN dAMED       0.020  -2.852  -1.602  0.00  0.00     0.098 C 
ATOM     12  C   UNN dAMED       0.011  -4.106  -0.727  0.00  0.00     0.024 C 
ATOM     13  C   UNN dAMED      -0.009  -3.828   0.767  0.00  0.00     0.008 C 
ATOM     14  C   UNN dAMED      -0.913  -2.663   1.151  0.00  0.00     0.043 C 
ENDBRANCH   1   8
BRANCH   1  15
ATOM     15  C   UNN dAMED      -3.011  -0.042   1.026  0.00  0.00     0.165 C 
ATOM     16  C   UNN dAMED      -3.168   1.224   1.876  0.00  0.00     0.042 C 
ATOM     17  O   UNN dAMED      -3.740   0.068  -0.060  0.00  0.00    -0.217 OA
BRANCH  15  18
ATOM     18  C   UNN dAMED      -3.414  -1.235   1.831  0.00  0.00     0.009 A 
ATOM     19  C   UNN dAMED      -4.429  -1.134   2.785  0.00  0.00    -0.002 A 
ATOM     20  C   UNN dAMED      -4.775  -2.235   3.565  0.00  0.00    -0.000 A 
ATOM     21  C   UNN dAMED      -4.095  -3.439   3.408  0.00  0.00    -0.000 A 
ATOM     22  C   UNN dAMED      -3.066  -3.541   2.477  0.00  0.00    -0.000 A 
ATOM     23  C   UNN dAMED      -2.721  -2.440   1.696  0.00  0.00    -0.002 A 
ENDBRANCH  15  18
ENDBRANCH   1  15
TORSDOF 4
