REMARK  8 active torsions:
REMARK  status: ('A' for Active; 'I' for Inactive)
REMARK    1  A    between atoms: C_9  and  C_15 
REMARK    2  A    between atoms: N_12  and  S_19 
REMARK    3  A    between atoms: C_13  and  C_29 
REMARK    4  A    between atoms: C_15  and  O_17 
REMARK    5  A    between atoms: O_17  and  C_18 
REMARK    6  A    between atoms: C_18  and  C_33 
REMARK    7  A    between atoms: S_19  and  C_22 
REMARK    8  A    between atoms: C_29  and  O_31 
ROOT
ATOM      1  C   UNN dAMED      -1.176   0.123  -0.765  0.00  0.00     0.097 A 
ATOM      2  C   UNN dAMED      -1.211   0.857  -1.855  0.00  0.00     0.247 C 
ATOM      3  C   UNN dAMED       0.059   0.795  -2.604  0.00  0.00     0.253 C 
ATOM      4  C   UNN dAMED       1.327   0.589  -1.857  0.00  0.00     0.124 A 
ATOM      5  C   UNN dAMED       1.254   0.074  -0.491  0.00  0.00     0.029 A 
ATOM      6  C   UNN dAMED       0.042  -0.124  -0.013  0.00  0.00     0.018 A 
ATOM      7  N   UNN dAMED       2.568   0.795  -2.196  0.00  0.00    -0.240 NA
ATOM      8  C   UNN dAMED       3.387   0.414  -1.057  0.00  0.00     0.104 A 
ATOM      9  C   UNN dAMED       2.605  -0.033  -0.060  0.00  0.00     0.084 A 
ATOM     10  O   UNN dAMED      -2.081   1.552  -2.239  0.00  0.00    -0.282 OA
ATOM     11  O   UNN dAMED       0.095   0.854  -3.823  0.00  0.00    -0.281 OA
ATOM     12  N   UNN dAMED      -2.295  -0.136   0.135  0.00  0.00    -0.126 NA
ATOM     13  C   UNN dAMED      -1.665  -0.588   1.371  0.00  0.00     0.118 A 
ATOM     14  C   UNN dAMED      -0.332  -0.568   1.346  0.00  0.00     0.019 A 
ENDROOT
BRANCH   9  15
ATOM     15  C   UNN dAMED       3.037  -0.469   1.259  0.00  0.00     0.298 C 
ATOM     16  O   UNN dAMED       2.501  -1.343   1.920  0.00  0.00    -0.259 OA
BRANCH  15  17
ATOM     17  O   UNN dAMED       4.117   0.247   1.635  0.00  0.00    -0.293 OA
BRANCH  17  18
ATOM     18  C   UNN dAMED       4.307   1.195   0.626  0.00  0.00     0.179 C 
BRANCH  18  19
ATOM     19  C   UNN dAMED       4.691   2.606   0.981  0.00  0.00     0.008 A 
ATOM     20  C   UNN dAMED       6.004   2.902   1.343  0.00  0.00    -0.002 A 
ATOM     21  C   UNN dAMED       6.335   4.189   1.759  0.00  0.00    -0.000 A 
ATOM     22  C   UNN dAMED       5.354   5.177   1.811  0.00  0.00    -0.000 A 
ATOM     23  C   UNN dAMED       4.044   4.882   1.444  0.00  0.00    -0.000 A 
ATOM     24  C   UNN dAMED       3.711   3.595   1.029  0.00  0.00    -0.002 A 
ENDBRANCH  18  19
ENDBRANCH  17  18
ENDBRANCH  15  17
ENDBRANCH   9  15
BRANCH  12  25
ATOM     25  S   UNN dAMED      -3.524  -1.169  -0.513  0.00  0.00     0.254 S 
ATOM     26  O   UNN dAMED      -4.492  -1.500   0.516  0.00  0.00    -0.205 OA
ATOM     27  O   UNN dAMED      -3.985  -0.617  -1.775  0.00  0.00    -0.205 OA
BRANCH  25  28
ATOM     28  C   UNN dAMED      -2.703  -2.687  -0.898  0.00  0.00     0.099 A 
ATOM     29  C   UNN dAMED      -1.881  -3.294   0.045  0.00  0.00     0.012 A 
ATOM     30  C   UNN dAMED      -1.300  -4.525  -0.238  0.00  0.00    -0.004 A 
ATOM     31  C   UNN dAMED      -1.579  -5.160  -1.445  0.00  0.00    -0.022 A 
ATOM     32  C   UNN dAMED      -2.438  -4.565  -2.370  0.00  0.00    -0.004 A 
ATOM     33  C   UNN dAMED      -0.984  -6.508  -1.734  0.00  0.00     0.031 C 
ATOM     34  C   UNN dAMED      -3.008  -3.325  -2.096  0.00  0.00     0.012 A 
ENDBRANCH  25  28
ENDBRANCH  12  25
BRANCH  13  35
ATOM     35  C   UNN dAMED      -2.384  -0.674   2.638  0.00  0.00     0.308 C 
ATOM     36  O   UNN dAMED      -3.521  -0.312   2.869  0.00  0.00    -0.258 OA
BRANCH  35  37
ATOM     37  O   UNN dAMED      -1.501  -1.148   3.547  0.00  0.00    -0.295 OA
ATOM     38  C   UNN dAMED      -0.255  -1.042   2.920  0.00  0.00     0.185 C 
ENDBRANCH  35  37
ENDBRANCH  13  35
TORSDOF 8
