REMARK  8 active torsions:
REMARK  status: ('A' for Active; 'I' for Inactive)
REMARK    1  A    between atoms: O_1  and  C_12 
REMARK    2  A    between atoms: O_1  and  C_16 
REMARK    3  A    between atoms: C_3  and  N_36 
REMARK    4  A    between atoms: C_5  and  N_37 
REMARK    5  A    between atoms: C_10  and  N_33 
REMARK    6  A    between atoms: C_18  and  N_32 
REMARK    7  A    between atoms: C_22  and  N_29 
REMARK    8  A    between atoms: C_24  and  N_26 
REMARK       I    between atoms: N_29  and  C_30 
REMARK       I    between atoms: C_30  and  N_32 
REMARK       I    between atoms: N_33  and  C_34 
REMARK       I    between atoms: C_34  and  N_36 
ROOT
ATOM      1  O   UNN dAMED       0.108  -4.395   0.365  0.00  0.00    -0.307 OA
ENDROOT
BRANCH   1   2
ATOM      2  C   UNN dAMED       1.384  -3.984   0.066  0.00  0.00     0.100 A 
ATOM      3  C   UNN dAMED       1.606  -2.750  -0.535  0.00  0.00     0.026 A 
ATOM      4  C   UNN dAMED       2.919  -2.311  -0.719  0.00  0.00     0.021 A 
ATOM      5  C   UNN dAMED       4.021  -3.066  -0.289  0.00  0.00     0.086 A 
ATOM      6  C   UNN dAMED       3.753  -4.285   0.352  0.00  0.00     0.021 A 
ATOM      7  C   UNN dAMED       2.451  -4.748   0.529  0.00  0.00     0.026 A 
BRANCH   5   8
ATOM      8  N   UNN dAMED       5.271  -2.565  -0.434  0.00  0.00    -0.191 NA
ATOM      9  C   UNN dAMED       6.164  -3.435  -0.958  0.00  0.00     0.369 C 
ATOM     10  O   UNN dAMED       7.001  -4.025  -0.277  0.00  0.00    -0.242 OA
ATOM     11  N   UNN dAMED       6.075  -3.436  -2.310  0.00  0.00    -0.191 NA
BRANCH  11  12
ATOM     12  C   UNN dAMED       6.802  -4.387  -2.932  0.00  0.00     0.086 A 
ATOM     13  C   UNN dAMED       6.192  -5.540  -3.453  0.00  0.00     0.021 A 
ATOM     14  C   UNN dAMED       6.901  -6.447  -4.240  0.00  0.00     0.025 A 
ATOM     15  C   UNN dAMED       8.248  -6.198  -4.478  0.00  0.00     0.127 A 
ATOM     16  C   UNN dAMED       8.899  -5.078  -3.979  0.00  0.00     0.025 A 
ATOM     17  C   UNN dAMED       8.161  -4.175  -3.219  0.00  0.00     0.021 A 
BRANCH  15  18
ATOM     18  N   UNN dAMED       8.942  -7.029  -5.427  0.00  0.00    -0.114 N 
ATOM     19  O   UNN dAMED       8.940  -8.247  -5.220  0.00  0.00    -0.532 OA
ATOM     20  O   UNN dAMED       9.474  -6.459  -6.389  0.00  0.00    -0.532 OA
ENDBRANCH  15  18
ENDBRANCH  11  12
ENDBRANCH   5   8
ENDBRANCH   1   2
BRANCH   1  21
ATOM     21  C   UNN dAMED      -0.583  -5.018  -0.649  0.00  0.00     0.100 A 
ATOM     22  C   UNN dAMED       0.024  -5.827  -1.603  0.00  0.00     0.026 A 
ATOM     23  C   UNN dAMED      -0.764  -6.492  -2.542  0.00  0.00     0.021 A 
ATOM     24  C   UNN dAMED      -2.168  -6.432  -2.522  0.00  0.00     0.086 A 
ATOM     25  C   UNN dAMED      -2.746  -5.623  -1.536  0.00  0.00     0.021 A 
ATOM     26  C   UNN dAMED      -1.971  -4.926  -0.607  0.00  0.00     0.026 A 
BRANCH  24  27
ATOM     27  N   UNN dAMED      -2.964  -7.004  -3.461  0.00  0.00    -0.191 NA
ATOM     28  C   UNN dAMED      -2.567  -8.228  -3.877  0.00  0.00     0.369 C 
ATOM     29  N   UNN dAMED      -1.837  -8.116  -5.007  0.00  0.00    -0.191 NA
ATOM     30  O   UNN dAMED      -2.818  -9.281  -3.292  0.00  0.00    -0.242 OA
BRANCH  29  31
ATOM     31  C   UNN dAMED      -2.276  -8.774  -6.102  0.00  0.00     0.086 A 
ATOM     32  C   UNN dAMED      -3.611  -9.140  -6.348  0.00  0.00     0.021 A 
ATOM     33  C   UNN dAMED      -4.008  -9.716  -7.555  0.00  0.00     0.025 A 
ATOM     34  C   UNN dAMED      -3.042  -9.910  -8.533  0.00  0.00     0.127 A 
ATOM     35  C   UNN dAMED      -1.713  -9.561  -8.355  0.00  0.00     0.025 A 
ATOM     36  C   UNN dAMED      -1.348  -9.007  -7.131  0.00  0.00     0.021 A 
BRANCH  34  37
ATOM     37  N   UNN dAMED      -3.460 -10.331  -9.839  0.00  0.00    -0.114 N 
ATOM     38  O   UNN dAMED      -3.939  -9.461 -10.578  0.00  0.00    -0.532 OA
ATOM     39  O   UNN dAMED      -3.296 -11.523 -10.125  0.00  0.00    -0.532 OA
ENDBRANCH  34  37
ENDBRANCH  29  31
ENDBRANCH  24  27
ENDBRANCH   1  21
TORSDOF 8
