REMARK  0 active torsions:
REMARK  status: ('A' for Active; 'I' for Inactive)
ROOT
ATOM      1  C   UNN dAMED      -4.488  -0.779  -0.407  0.00  0.00     0.001 A 
ATOM      2  C   UNN dAMED      -4.465   0.311   0.457  0.00  0.00    -0.004 A 
ATOM      3  C   UNN dAMED      -3.255   0.914   0.806  0.00  0.00    -0.021 A 
ATOM      4  C   UNN dAMED      -2.054   0.414   0.273  0.00  0.00     0.008 A 
ATOM      5  C   UNN dAMED      -2.118  -0.672  -0.600  0.00  0.00     0.040 A 
ATOM      6  C   UNN dAMED      -3.314  -1.297  -0.961  0.00  0.00     0.011 A 
ATOM      7  C   UNN dAMED      -0.670   0.739   0.454  0.00  0.00     0.011 A 
ATOM      8  C   UNN dAMED       0.074  -0.168  -0.307  0.00  0.00     0.043 A 
ATOM      9  N   UNN dAMED      -0.839  -0.902  -1.008  0.00  0.00    -0.230 NA
ATOM     10  C   UNN dAMED       0.016   1.685   1.241  0.00  0.00     0.001 A 
ATOM     11  C   UNN dAMED       1.414   1.684   1.247  0.00  0.00     0.003 A 
ATOM     12  C   UNN dAMED       2.128   0.751   0.500  0.00  0.00     0.043 A 
ATOM     13  C   UNN dAMED       1.474  -0.197  -0.287  0.00  0.00     0.053 A 
ATOM     14  C   UNN dAMED       3.595   0.772   0.545  0.00  0.00     0.196 A 
ATOM     15  C   UNN dAMED       2.241  -1.181  -1.059  0.00  0.00     0.197 A 
ATOM     16  C   UNN dAMED      -3.234   2.067   1.768  0.00  0.00     0.031 C 
ATOM     17  C   UNN dAMED      -0.526  -2.286  -0.913  0.00  0.00     0.100 C 
ATOM     18  O   UNN dAMED       1.697  -2.081  -1.680  0.00  0.00    -0.286 OA
ATOM     19  C   UNN dAMED       3.741  -1.144  -1.000  0.00  0.00     0.045 A 
ATOM     20  C   UNN dAMED       4.368  -0.217  -0.280  0.00  0.00     0.045 A 
ATOM     21  O   UNN dAMED       4.213   1.589   1.210  0.00  0.00    -0.287 OA
ENDROOT
TORSDOF 0
