REMARK  0 active torsions:
REMARK  status: ('A' for Active; 'I' for Inactive)
ROOT
ATOM      1  C   UNN dAMED      -4.428   2.116   0.094  0.00  0.00     0.000 A 
ATOM      2  C   UNN dAMED      -4.514   0.726   0.096  0.00  0.00     0.000 A 
ATOM      3  C   UNN dAMED      -3.183   2.735   0.071  0.00  0.00     0.000 A 
ATOM      4  C   UNN dAMED      -3.359  -0.054   0.076  0.00  0.00     0.002 A 
ATOM      5  C   UNN dAMED      -3.472  -1.444   0.078  0.00  0.00     0.000 A 
ATOM      6  C   UNN dAMED      -2.083   0.561   0.053  0.00  0.00     0.023 A 
ATOM      7  C   UNN dAMED      -2.023   1.963   0.051  0.00  0.00     0.002 A 
ATOM      8  C   UNN dAMED      -2.333  -2.241   0.058  0.00  0.00     0.005 A 
ATOM      9  C   UNN dAMED      -0.928  -0.246   0.032  0.00  0.00     0.103 A 
ATOM     10  C   UNN dAMED      -1.082  -1.634   0.036  0.00  0.00     0.062 A 
ATOM     11  C   UNN dAMED       0.132  -2.442   0.014  0.00  0.00     0.200 A 
ATOM     12  O   UNN dAMED       0.290   0.398   0.005  0.00  0.00    -0.307 OA
ATOM     13  O   UNN dAMED       0.127  -3.663   0.014  0.00  0.00    -0.286 OA
ATOM     14  C   UNN dAMED       1.432  -1.699  -0.009  0.00  0.00     0.067 A 
ATOM     15  C   UNN dAMED       1.442  -0.366   0.007  0.00  0.00     0.105 A 
ATOM     16  C   UNN dAMED       2.697   0.363  -0.043  0.00  0.00     0.042 A 
ATOM     17  C   UNN dAMED       3.002   1.377   0.858  0.00  0.00     0.005 A 
ATOM     18  C   UNN dAMED       3.660   0.022  -0.978  0.00  0.00     0.101 A 
ATOM     19  N   UNN dAMED       4.865   0.628  -1.081  0.00  0.00    -0.242 NA
ATOM     20  C   UNN dAMED       4.228   2.029   0.782  0.00  0.00     0.021 A 
ATOM     21  C   UNN dAMED       5.117   1.619  -0.199  0.00  0.00     0.099 A 
ENDROOT
TORSDOF 0
