REMARK  9 active torsions:
REMARK  status: ('A' for Active; 'I' for Inactive)
REMARK    1  A    between atoms: O_1  and  C_11 
REMARK    2  A    between atoms: O_1  and  C_13 
REMARK    3  A    between atoms: C_3  and  C_11 
REMARK    4  A    between atoms: C_6  and  N_8 
REMARK    5  A    between atoms: C_13  and  C_14 
REMARK    6  A    between atoms: C_14  and  N_15 
REMARK    7  A    between atoms: N_15  and  C_16 
REMARK    8  A    between atoms: C_16  and  C_17 
REMARK    9  A    between atoms: C_16  and  C_19 
ROOT
ATOM      1  C   UNN dAMED      -0.388  -1.895  -0.591  0.00  0.00     0.296 C 
ATOM      2  O   UNN dAMED       0.559  -1.990   0.168  0.00  0.00    -0.259 OA
ENDROOT
BRANCH   1   3
ATOM      3  O   UNN dAMED      -0.532  -2.555  -1.766  0.00  0.00    -0.295 OA
BRANCH   3   4
ATOM      4  C   UNN dAMED       0.593  -3.401  -1.849  0.00  0.00     0.193 C 
BRANCH   4   5
ATOM      5  C   UNN dAMED       0.558  -4.837  -1.302  0.00  0.00     0.219 C 
BRANCH   5   6
ATOM      6  N   UNN dAMED      -0.598  -5.640  -1.480  0.00  0.00    -0.432 NA
BRANCH   6   7
ATOM      7  C   UNN dAMED      -1.746  -6.446  -1.651  0.00  0.00     0.081 C 
BRANCH   7   8
ATOM      8  C   UNN dAMED      -1.583  -7.820  -2.305  0.00  0.00     0.054 C 
ATOM      9  C   UNN dAMED      -2.713  -8.445  -3.124  0.00  0.00     0.007 C 
ENDBRANCH   7   8
BRANCH   7  10
ATOM     10  C   UNN dAMED      -2.933  -6.234  -0.708  0.00  0.00     0.054 C 
ATOM     11  C   UNN dAMED      -3.470  -4.829  -0.432  0.00  0.00     0.007 C 
ENDBRANCH   7  10
ENDBRANCH   6   7
ENDBRANCH   5   6
ENDBRANCH   4   5
ENDBRANCH   3   4
ENDBRANCH   1   3
BRANCH   1  12
ATOM     12  C   UNN dAMED      -1.581  -1.078  -0.359  0.00  0.00     0.063 A 
ATOM     13  C   UNN dAMED      -2.795  -1.710  -0.066  0.00  0.00     0.007 A 
ATOM     14  C   UNN dAMED      -3.928  -0.944   0.206  0.00  0.00     0.024 A 
ATOM     15  C   UNN dAMED      -3.827   0.449   0.202  0.00  0.00     0.127 A 
ATOM     16  C   UNN dAMED      -2.614   1.095  -0.073  0.00  0.00     0.024 A 
ATOM     17  C   UNN dAMED      -1.479   0.316  -0.353  0.00  0.00     0.007 A 
BRANCH  15  18
ATOM     18  N   UNN dAMED      -4.987   1.228   0.506  0.00  0.00    -0.114 N 
ATOM     19  O   UNN dAMED      -5.165   1.529   1.698  0.00  0.00    -0.532 OA
ATOM     20  O   UNN dAMED      -5.721   1.534  -0.446  0.00  0.00    -0.532 OA
ENDBRANCH  15  18
ENDBRANCH   1  12
TORSDOF 9
