REMARK  0 active torsions:
REMARK  status: ('A' for Active; 'I' for Inactive)
ROOT
ATOM      1  C   UNN dAMED       2.370   3.028  -1.700  0.00  0.00     0.002 A 
ATOM      2  C   UNN dAMED       1.703   2.087  -2.499  0.00  0.00    -0.000 A 
ATOM      3  C   UNN dAMED       2.258   2.996  -0.310  0.00  0.00     0.017 A 
ATOM      4  C   UNN dAMED       0.905   1.095  -1.925  0.00  0.00    -0.002 A 
ATOM      5  C   UNN dAMED       0.787   1.068  -0.545  0.00  0.00     0.009 A 
ATOM      6  C   UNN dAMED       1.462   2.007   0.232  0.00  0.00     0.056 A 
ATOM      7  C   UNN dAMED      -2.119   1.191  -0.592  0.00  0.00     0.000 A 
ATOM      8  C   UNN dAMED      -3.512   1.281  -0.682  0.00  0.00     0.042 A 
ATOM      9  N   UNN dAMED       1.219   1.779   1.577  0.00  0.00    -0.324 N 
ATOM     10  C   UNN dAMED       0.004   0.110   0.348  0.00  0.00     0.129 A 
ATOM     11  C   UNN dAMED      -1.516   0.218   0.203  0.00  0.00    -0.007 A 
ATOM     12  H   UNN dAMED       1.614   2.342   2.322  0.00  0.00     0.169 HD
ATOM     13  C   UNN dAMED      -4.389   0.429   0.007  0.00  0.00     0.196 A 
ATOM     14  C   UNN dAMED      -3.748  -0.530   0.806  0.00  0.00     0.042 A 
ATOM     15  C   UNN dAMED      -2.359  -0.640   0.913  0.00  0.00     0.000 A 
ATOM     16  C   UNN dAMED       0.378   0.678   1.768  0.00  0.00     0.245 A 
ATOM     17  O   UNN dAMED      -0.003   0.238   2.844  0.00  0.00    -0.271 OA
ATOM     18  C   UNN dAMED       1.522  -1.848   0.980  0.00  0.00     0.000 A 
ATOM     19  C   UNN dAMED       0.526  -1.317   0.163  0.00  0.00    -0.007 A 
ATOM     20  C   UNN dAMED       2.012  -3.139   0.761  0.00  0.00     0.042 A 
ATOM     21  C   UNN dAMED       0.067  -2.111  -0.890  0.00  0.00     0.000 A 
ATOM     22  C   UNN dAMED       0.573  -3.399  -1.086  0.00  0.00     0.042 A 
ATOM     23  C   UNN dAMED       1.562  -3.973  -0.274  0.00  0.00     0.196 A 
ATOM     24  O   UNN dAMED      -5.655   0.520  -0.085  0.00  0.00    -0.287 OA
ATOM     25  O   UNN dAMED       2.014  -5.149  -0.461  0.00  0.00    -0.287 OA
ENDROOT
TORSDOF 0
