REMARK  3 active torsions:
REMARK  status: ('A' for Active; 'I' for Inactive)
REMARK    1  A    between atoms: C_6  and  C_8 
REMARK       I    between atoms: C_8  and  N_15 
REMARK    2  A    between atoms: C_9  and  N_15 
REMARK    3  A    between atoms: C_10  and  C_16 
ROOT
ATOM      1  C   UNN dAMED       7.804   0.762  -1.063  0.00  0.00     0.058 C 
ATOM      2  C   UNN dAMED       6.420   0.839  -1.721  0.00  0.00    -0.016 C 
ATOM      3  C   UNN dAMED       8.778  -0.305  -1.579  0.00  0.00     0.046 C 
ATOM      4  C   UNN dAMED       8.193  -1.578  -2.200  0.00  0.00     0.006 C 
ATOM      5  C   UNN dAMED       6.172  -0.099  -2.906  0.00  0.00     0.027 C 
ATOM      6  C   UNN dAMED       6.803  -1.491  -2.831  0.00  0.00     0.005 C 
ATOM      7  C   UNN dAMED       9.057  -2.831  -2.381  0.00  0.00     0.000 C 
ENDROOT
BRANCH   1   8
ATOM      8  N   UNN dAMED       7.994   1.295   0.276  0.00  0.00    -0.213 NA
ATOM      9  C   UNN dAMED       8.451   0.489   1.229  0.00  0.00     0.279 C 
ATOM     10  O   UNN dAMED       9.278   0.750   2.095  0.00  0.00    -0.265 OA
BRANCH   9  11
ATOM     11  C   UNN dAMED       7.881  -0.860   1.188  0.00  0.00     0.061 A 
ATOM     12  C   UNN dAMED       6.806  -1.167   2.014  0.00  0.00     0.025 A 
ATOM     13  C   UNN dAMED       6.316  -2.460   1.946  0.00  0.00     0.099 A 
ATOM     14  N   UNN dAMED       6.818  -3.423   1.138  0.00  0.00    -0.242 NA
ATOM     15  C   UNN dAMED       7.870  -3.075   0.363  0.00  0.00     0.099 A 
ATOM     16  C   UNN dAMED       8.445  -1.815   0.350  0.00  0.00     0.025 A 
ENDBRANCH   9  11
ENDBRANCH   1   8
BRANCH   2  17
ATOM     17  C   UNN dAMED       5.590   2.120  -1.600  0.00  0.00    -0.046 C 
ATOM     18  C   UNN dAMED       4.116   2.111  -2.016  0.00  0.00     0.026 C 
ATOM     19  C   UNN dAMED       6.173   3.348  -0.892  0.00  0.00     0.026 C 
ENDBRANCH   2  17
TORSDOF 3
