REMARK  3 active torsions:
REMARK  status: ('A' for Active; 'I' for Inactive)
REMARK    1  A    between atoms: C_12  and  C_20 
REMARK    2  A    between atoms: C_13  and  C_20 
REMARK    3  A    between atoms: C_15  and  N_25 
ROOT
ATOM      1  C   UNN dAMED      -2.973  -4.136   0.895  0.00  0.00     0.091 A 
ATOM      2  C   UNN dAMED      -2.813  -5.440   1.410  0.00  0.00     0.106 A 
ATOM      3  C   UNN dAMED      -1.839  -3.580   0.354  0.00  0.00     0.086 A 
ATOM      4  C   UNN dAMED      -1.522  -5.884   1.208  0.00  0.00     0.121 A 
ATOM      5  S   UNN dAMED      -0.547  -4.713   0.427  0.00  0.00    -0.063 SA
ATOM      6  N   UNN dAMED      -1.023  -7.042   1.705  0.00  0.00    -0.238 NA
ATOM      7  C   UNN dAMED      -3.849  -6.167   2.078  0.00  0.00     0.104 C 
ATOM      8  N   UNN dAMED      -4.686  -6.759   2.619  0.00  0.00    -0.191 NA
ATOM      9  N   UNN dAMED      -4.189  -3.410   1.022  0.00  0.00    -0.099 NA
ENDROOT
BRANCH   3  10
ATOM     10  C   UNN dAMED      -1.618  -2.251  -0.189  0.00  0.00     0.225 C 
ATOM     11  O   UNN dAMED      -0.566  -1.874  -0.695  0.00  0.00    -0.284 OA
BRANCH  10  12
ATOM     12  C   UNN dAMED      -2.760  -1.386  -0.066  0.00  0.00     0.139 A 
ATOM     13  C   UNN dAMED      -3.161  -0.534   0.942  0.00  0.00     0.030 A 
ATOM     14  C   UNN dAMED      -4.352   0.093   0.494  0.00  0.00     0.026 A 
ATOM     15  C   UNN dAMED      -5.244   1.037   1.025  0.00  0.00     0.013 A 
ATOM     16  C   UNN dAMED      -4.592  -0.415  -0.778  0.00  0.00     0.100 A 
ATOM     17  C   UNN dAMED      -6.336   1.420   0.240  0.00  0.00     0.058 A 
ATOM     18 CL   UNN dAMED      -7.449   2.572   0.862  0.00  0.00    -0.082 Cl
ATOM     19  C   UNN dAMED      -6.546   0.892  -1.032  0.00  0.00     0.013 A 
ATOM     20  C   UNN dAMED      -5.672  -0.050  -1.583  0.00  0.00     0.026 A 
ATOM     21  O   UNN dAMED      -3.623  -1.310  -1.120  0.00  0.00    -0.304 OA
ENDBRANCH  10  12
ENDBRANCH   3  10
BRANCH   6  22
ATOM     22  C   UNN dAMED      -0.950  -8.066   0.825  0.00  0.00     0.082 A 
ATOM     23  C   UNN dAMED      -2.076  -8.615   0.193  0.00  0.00     0.015 A 
ATOM     24  C   UNN dAMED      -1.985  -9.752  -0.609  0.00  0.00    -0.020 A 
ATOM     25  C   UNN dAMED      -0.762 -10.393  -0.770  0.00  0.00    -0.004 A 
ATOM     26  C   UNN dAMED      -3.205 -10.275  -1.312  0.00  0.00     0.031 C 
ATOM     27  C   UNN dAMED       0.368  -9.885  -0.139  0.00  0.00     0.001 A 
ATOM     28  C   UNN dAMED       0.268  -8.737   0.648  0.00  0.00     0.019 A 
ENDBRANCH   6  22
TORSDOF 3
