REMARK  5 active torsions:
REMARK  status: ('A' for Active; 'I' for Inactive)
REMARK    1  A    between atoms: C_8  and  O_37 
REMARK    2  A    between atoms: C_22  and  O_25 
REMARK    3  A    between atoms: C_23  and  C_31 
REMARK    4  A    between atoms: C_24  and  O_27 
REMARK    5  A    between atoms: C_31  and  O_33 
ROOT
ATOM      1  N   UNN dAMED      -0.116  -1.459  -1.161  0.00  0.00    -0.238 NA
ATOM      2  N   UNN dAMED       2.139   0.292  -0.031  0.00  0.00    -0.241 NA
ATOM      3  O   UNN dAMED       3.043   2.775  -0.566  0.00  0.00    -0.284 OA
ATOM      4  O   UNN dAMED       6.680  -0.918   0.725  0.00  0.00    -0.284 OA
ATOM      5  C   UNN dAMED       3.868   1.921  -0.271  0.00  0.00     0.228 A 
ATOM      6  C   UNN dAMED       5.311   2.242  -0.224  0.00  0.00     0.136 A 
ATOM      7  C   UNN dAMED       3.466   0.544   0.043  0.00  0.00     0.124 A 
ATOM      8  C   UNN dAMED       6.223   1.320   0.098  0.00  0.00     0.149 A 
ATOM      9  C   UNN dAMED       4.415  -0.406   0.375  0.00  0.00     0.062 A 
ATOM     10  C   UNN dAMED       5.844  -0.074   0.427  0.00  0.00     0.220 A 
ATOM     11  C   UNN dAMED       3.984  -1.697   0.654  0.00  0.00     0.006 A 
ATOM     12  C   UNN dAMED       2.628  -1.994   0.583  0.00  0.00     0.021 A 
ATOM     13  C   UNN dAMED      -0.521  -1.277   1.210  0.00  0.00     0.089 A 
ATOM     14  C   UNN dAMED      -1.879  -1.546   1.029  0.00  0.00     0.015 A 
ATOM     15  C   UNN dAMED       0.322  -1.240   0.103  0.00  0.00     0.112 A 
ATOM     16  C   UNN dAMED       1.742  -0.976   0.240  0.00  0.00     0.100 A 
ATOM     17  C   UNN dAMED      -2.341  -1.758  -0.269  0.00  0.00     0.002 A 
ATOM     18  C   UNN dAMED      -2.790  -1.656   2.175  0.00  0.00     0.042 A 
ATOM     19  C   UNN dAMED      -3.001  -2.959   2.678  0.00  0.00     0.005 A 
ATOM     20  C   UNN dAMED      -3.851  -3.201   3.746  0.00  0.00     0.026 A 
ATOM     21  C   UNN dAMED      -3.441  -0.520   2.751  0.00  0.00     0.220 A 
ATOM     22  C   UNN dAMED      -4.496  -2.127   4.323  0.00  0.00     0.119 A 
ATOM     23  C   UNN dAMED      -1.435  -1.711  -1.317  0.00  0.00     0.140 A 
ATOM     24  C   UNN dAMED      -4.295  -0.831   3.842  0.00  0.00     0.155 A 
ATOM     25  O   UNN dAMED      -3.276   0.678   2.326  0.00  0.00    -0.284 OA
ATOM     26  C   UNN dAMED      -3.789  -2.062  -0.524  0.00  0.00     0.033 C 
ATOM     27  N   UNN dAMED      -0.002  -1.054   2.516  0.00  0.00    -0.099 NA
ATOM     28  N   UNN dAMED       5.737   3.564  -0.535  0.00  0.00    -0.095 NA
ENDROOT
BRANCH  23  29
ATOM     29  C   UNN dAMED      -1.854  -1.946  -2.707  0.00  0.00     0.313 C 
ATOM     30  O   UNN dAMED      -1.139  -1.755  -3.676  0.00  0.00    -0.257 OA
BRANCH  29  31
ATOM     31  O   UNN dAMED      -3.118  -2.418  -2.754  0.00  0.00    -0.295 OA
ATOM     32  C   UNN dAMED      -3.493  -2.585  -1.419  0.00  0.00     0.185 C 
ENDBRANCH  29  31
ENDBRANCH  23  29
BRANCH  24  33
ATOM     33  O   UNN dAMED      -4.975   0.186   4.473  0.00  0.00    -0.323 OA
ATOM     34  C   UNN dAMED      -4.296   1.353   4.115  0.00  0.00     0.182 C 
ENDBRANCH  24  33
BRANCH  22  35
ATOM     35  O   UNN dAMED      -5.337  -2.359   5.371  0.00  0.00    -0.326 OA
ATOM     36  C   UNN dAMED      -5.728  -1.093   5.814  0.00  0.00     0.181 C 
ENDBRANCH  22  35
BRANCH   8  37
ATOM     37  O   UNN dAMED       7.561   1.639   0.130  0.00  0.00    -0.324 OA
ATOM     38  C   UNN dAMED       7.599   3.011   0.389  0.00  0.00     0.182 C 
ENDBRANCH   8  37
TORSDOF 5
