REMARK  0 active torsions:
REMARK  status: ('A' for Active; 'I' for Inactive)
ROOT
ATOM      1  N   UNN dAMED      -2.124   1.044  -0.000  0.00  0.00    -0.211 NA
ATOM      2  N   UNN dAMED      -1.313  -1.220   0.000  0.00  0.00    -0.194 NA
ATOM      3  N   UNN dAMED       1.531   0.781   0.000  0.00  0.00    -0.324 N 
ATOM      4  H   UNN dAMED       2.066   1.638  -0.000  0.00  0.00     0.169 HD
ATOM      5  N   UNN dAMED       1.093  -1.407   0.000  0.00  0.00    -0.195 NA
ATOM      6  C   UNN dAMED      -0.875   1.560  -0.000  0.00  0.00     0.122 A 
ATOM      7  C   UNN dAMED       0.169   0.665   0.000  0.00  0.00     0.115 A 
ATOM      8  C   UNN dAMED      -0.077  -0.695   0.000  0.00  0.00     0.185 A 
ATOM      9  C   UNN dAMED       2.029  -0.489   0.000  0.00  0.00     0.217 A 
ATOM     10  C   UNN dAMED      -2.288  -0.300   0.000  0.00  0.00     0.239 A 
ATOM     11  N   UNN dAMED      -3.630  -0.784   0.000  0.00  0.00    -0.060 NA
ATOM     12  N   UNN dAMED       3.419  -0.794  -0.001  0.00  0.00    -0.061 NA
ENDROOT
TORSDOF 0
