REMARK  1 active torsions:
REMARK  status: ('A' for Active; 'I' for Inactive)
REMARK    1  A    between atoms: C_7  and  N_16 
REMARK       I    between atoms: C_12  and  N_16 
ROOT
ATOM      1  H   UNN dAMED      -2.036   2.306   0.178  0.00  0.00     0.184 HD
ATOM      2  N   UNN dAMED      -2.268   1.327   0.037  0.00  0.00    -0.185 N 
ATOM      3  O   UNN dAMED      -2.795  -2.559  -0.578  0.00  0.00    -0.265 OA
ATOM      4  N   UNN dAMED      -1.345  -0.889   0.034  0.00  0.00    -0.021 NA
ATOM      5  C   UNN dAMED      -1.260   0.397   0.205  0.00  0.00     0.731 C 
ATOM      6  C   UNN dAMED      -3.623   0.833  -0.037  0.00  0.00     0.094 C 
ATOM      7  C   UNN dAMED      -3.785  -0.484  -0.154  0.00  0.00     0.082 C 
ATOM      8  C   UNN dAMED      -2.581  -1.386  -0.303  0.00  0.00     0.297 C 
ATOM      9  N   UNN dAMED      -0.082   0.936   0.537  0.00  0.00    -0.061 NA
ENDROOT
BRANCH   9  10
ATOM     10  C   UNN dAMED       0.155   0.916   1.871  0.00  0.00     0.100 A 
ATOM     11  C   UNN dAMED       0.308  -0.283   2.587  0.00  0.00     0.021 A 
ATOM     12  C   UNN dAMED       0.595  -0.297   3.950  0.00  0.00     0.013 A 
ATOM     13  C   UNN dAMED       0.771   0.906   4.617  0.00  0.00     0.058 A 
ATOM     14 CL   UNN dAMED       1.142   0.898   6.291  0.00  0.00    -0.082 Cl
ATOM     15  C   UNN dAMED       0.658   2.114   3.937  0.00  0.00     0.013 A 
ATOM     16  C   UNN dAMED       0.353   2.111   2.575  0.00  0.00     0.021 A 
ENDBRANCH   9  10
TORSDOF 1
