REMARK  4 active torsions:
REMARK  status: ('A' for Active; 'I' for Inactive)
REMARK    1  A    between atoms: N_4  and  C_13 
REMARK    2  A    between atoms: N_5  and  C_17 
REMARK    3  A    between atoms: C_19  and  S_25 
REMARK    4  A    between atoms: N_22  and  S_25 
ROOT
ATOM      1  N   UNN dAMED       0.151   0.521   0.930  0.00  0.00    -0.140 NA
ATOM      2  N   UNN dAMED       0.680  -0.104   1.878  0.00  0.00    -0.147 NA
ENDROOT
BRANCH   1   3
ATOM      3  C   UNN dAMED      -1.094   0.040   0.564  0.00  0.00     0.197 A 
ATOM      4  C   UNN dAMED      -1.270  -0.873  -0.434  0.00  0.00     0.221 A 
ATOM      5  C   UNN dAMED      -2.703  -1.259  -0.692  0.00  0.00     0.056 A 
ATOM      6  O   UNN dAMED      -0.355  -1.404  -1.138  0.00  0.00    -0.285 OA
ATOM      7  C   UNN dAMED      -3.760  -0.688   0.017  0.00  0.00     0.062 A 
ATOM      8  C   UNN dAMED      -3.030  -2.215  -1.668  0.00  0.00     0.005 A 
ATOM      9  N   UNN dAMED      -3.501   0.262   1.000  0.00  0.00    -0.320 N 
ATOM     10  C   UNN dAMED      -5.089  -1.041  -0.233  0.00  0.00     0.017 A 
ATOM     11  H   UNN dAMED      -4.288   0.670   1.497  0.00  0.00     0.169 HD
ATOM     12  C   UNN dAMED      -2.233   0.668   1.326  0.00  0.00     0.280 A 
ATOM     13  O   UNN dAMED      -2.015   1.512   2.196  0.00  0.00    -0.265 OA
ATOM     14  C   UNN dAMED      -5.384  -1.990  -1.205  0.00  0.00     0.002 A 
ATOM     15  C   UNN dAMED      -4.351  -2.582  -1.924  0.00  0.00     0.000 A 
ENDBRANCH   1   3
BRANCH   2  16
ATOM     16  C   UNN dAMED       1.790   0.612   2.373  0.00  0.00     0.115 A 
ATOM     17  C   UNN dAMED       1.555   1.647   3.292  0.00  0.00     0.021 A 
ATOM     18  C   UNN dAMED       2.607   2.361   3.866  0.00  0.00    -0.003 A 
ATOM     19  C   UNN dAMED       3.920   2.042   3.541  0.00  0.00    -0.021 A 
ATOM     20  C   UNN dAMED       4.179   1.003   2.654  0.00  0.00     0.010 A 
ATOM     21  C   UNN dAMED       5.056   2.796   4.170  0.00  0.00     0.031 C 
ATOM     22  C   UNN dAMED       3.123   0.287   2.085  0.00  0.00     0.117 A 
BRANCH  22  23
ATOM     23  S   UNN dAMED       3.550  -1.052   1.019  0.00  0.00     0.248 S 
ATOM     24  O   UNN dAMED       2.825  -0.856  -0.221  0.00  0.00    -0.206 OA
ATOM     25  O   UNN dAMED       4.994  -1.179   1.025  0.00  0.00    -0.206 OA
BRANCH  23  26
ATOM     26  N   UNN dAMED       2.883  -2.379   1.868  0.00  0.00    -0.174 NA
ATOM     27  C   UNN dAMED       2.840  -3.771   1.201  0.00  0.00     0.107 C 
ATOM     28  C   UNN dAMED       2.839  -3.772   1.199  0.00  0.00     0.107 C 
ENDBRANCH  23  26
ENDBRANCH  22  23
ENDBRANCH   2  16
TORSDOF 4
