REMARK  2 active torsions:
REMARK  status: ('A' for Active; 'I' for Inactive)
REMARK    1  A    between atoms: C_7  and  C_16 
REMARK    2  A    between atoms: C_11  and  C_16 
ROOT
ATOM      1 CL   UNN dAMED      -4.905   1.224  -0.254  0.00  0.00    -0.081 Cl
ATOM      2 CL   UNN dAMED      -4.005  -1.978   0.278  0.00  0.00    -0.081 Cl
ATOM      3 CL   UNN dAMED      -2.048   3.124  -0.392  0.00  0.00    -0.081 Cl
ATOM      4 CL   UNN dAMED      -0.632  -2.155   0.481  0.00  0.00    -0.081 Cl
ATOM      5  C   UNN dAMED      -2.194   1.459  -0.148  0.00  0.00     0.070 A 
ATOM      6  C   UNN dAMED      -3.298   0.695  -0.093  0.00  0.00     0.080 A 
ATOM      7  C   UNN dAMED      -1.060   0.579   0.034  0.00  0.00     0.023 A 
ATOM      8  C   UNN dAMED      -1.562  -0.768   0.209  0.00  0.00     0.070 A 
ATOM      9  C   UNN dAMED      -2.902  -0.691   0.131  0.00  0.00     0.080 A 
ENDROOT
BRANCH   7  10
ATOM     10  C   UNN dAMED       0.193   1.052   0.012  0.00  0.00     0.002 C 
BRANCH  10  11
ATOM     11  C   UNN dAMED       1.486   0.267   0.011  0.00  0.00     0.000 A 
ATOM     12  C   UNN dAMED       2.002  -0.220  -1.190  0.00  0.00    -0.000 A 
ATOM     13  C   UNN dAMED       3.193  -0.940  -1.195  0.00  0.00    -0.004 A 
ATOM     14  C   UNN dAMED       3.876  -1.159  -0.001  0.00  0.00    -0.022 A 
ATOM     15  C   UNN dAMED       3.378  -0.650   1.195  0.00  0.00    -0.004 A 
ATOM     16  C   UNN dAMED       5.156  -1.946  -0.006  0.00  0.00     0.031 C 
ATOM     17  C   UNN dAMED       2.185   0.069   1.201  0.00  0.00    -0.000 A 
ENDBRANCH  10  11
ENDBRANCH   7  10
TORSDOF 2
