REMARK  1 active torsions:
REMARK  status: ('A' for Active; 'I' for Inactive)
REMARK    1  A    between atoms: C_16  and  S_19 
ROOT
ATOM      1  N   UNN dAMED       1.711  -0.502   0.041  0.00  0.00    -0.289 N 
ATOM      2  N   UNN dAMED       4.071  -0.263  -0.192  0.00  0.00    -0.351 N 
ATOM      3  H   UNN dAMED       4.979  -0.656  -0.420  0.00  0.00     0.163 HD
ATOM      4  S   UNN dAMED       3.205  -2.581  -1.050  0.00  0.00    -0.040 SA
ATOM      5  C   UNN dAMED       4.042   1.021   0.461  0.00  0.00     0.083 C 
ATOM      6  C   UNN dAMED       2.684   1.652   0.216  0.00  0.00     0.007 C 
ATOM      7  C   UNN dAMED       1.609   0.867   0.247  0.00  0.00     0.041 C 
ATOM      8  C   UNN dAMED       2.951  -1.064  -0.349  0.00  0.00     0.180 C 
ATOM      9  C   UNN dAMED       0.478  -1.239   0.048  0.00  0.00     0.066 A 
ATOM     10  C   UNN dAMED      -0.578  -0.736  -0.727  0.00  0.00     0.018 A 
ATOM     11  C   UNN dAMED       0.265  -2.394   0.845  0.00  0.00     0.016 A 
ATOM     12  C   UNN dAMED       1.244  -2.972   1.678  0.00  0.00     0.002 A 
ATOM     13  C   UNN dAMED       1.038  -4.189   2.324  0.00  0.00     0.014 A 
ATOM     14  C   UNN dAMED      -1.830  -1.342  -0.720  0.00  0.00     0.002 A 
ATOM     15  C   UNN dAMED      -0.994  -3.044   0.773  0.00  0.00     0.002 A 
ATOM     16  C   UNN dAMED      -0.185  -4.825   2.172  0.00  0.00     0.104 A 
ATOM     17  C   UNN dAMED      -2.028  -2.503   0.015  0.00  0.00     0.000 A 
ATOM     18  C   UNN dAMED      -1.212  -4.254   1.429  0.00  0.00     0.014 A 
ATOM     19  C   UNN dAMED       0.257   1.521   0.165  0.00  0.00     0.050 C 
ATOM     20  C   UNN dAMED       5.286   1.931  -0.102  0.00  0.00     0.027 C 
ATOM     21  C   UNN dAMED       5.286   1.931  -0.102  0.00  0.00     0.027 C 
ENDROOT
BRANCH  16  22
ATOM     22  S   UNN dAMED      -0.466  -6.413   2.935  0.00  0.00     0.139 S 
ATOM     23  O   UNN dAMED       0.803  -6.703   3.597  0.00  0.00    -0.591 OA
ATOM     24  O   UNN dAMED      -0.775  -7.260   1.786  0.00  0.00    -0.591 OA
ATOM     25  O   UNN dAMED      -1.584  -6.126   3.828  0.00  0.00    -0.591 OA
ENDBRANCH  16  22
TORSDOF 1
