REMARK  4 active torsions:
REMARK  status: ('A' for Active; 'I' for Inactive)
REMARK    1  A    between atoms: C_5  and  C_8 
REMARK    2  A    between atoms: C_6  and  N_17 
REMARK    3  A    between atoms: C_8  and  C_13 
REMARK    4  A    between atoms: C_9  and  C_10 
REMARK       I    between atoms: C_9  and  N_17 
ROOT
ATOM      1  C   UNN dAMED       1.957   0.984  -0.488  0.00  0.00     0.020 A 
ATOM      2  C   UNN dAMED       1.948   2.298  -0.025  0.00  0.00     0.013 A 
ATOM      3  C   UNN dAMED       0.806   2.783   0.587  0.00  0.00     0.058 A 
ATOM      4  C   UNN dAMED      -0.303   1.964   0.741  0.00  0.00     0.016 A 
ATOM      5  C   UNN dAMED      -0.295   0.632   0.292  0.00  0.00     0.059 A 
ATOM      6  C   UNN dAMED       0.860   0.110  -0.337  0.00  0.00     0.087 A 
ATOM      7 CL   UNN dAMED       0.762   4.394   1.172  0.00  0.00    -0.082 Cl
ENDROOT
BRANCH   5   8
ATOM      8  C   UNN dAMED      -1.557  -0.109   0.606  0.00  0.00     0.214 C 
ATOM      9  O   UNN dAMED      -2.263   0.331   1.512  0.00  0.00    -0.285 OA
BRANCH   8  10
ATOM     10  C   UNN dAMED      -1.928  -1.309  -0.116  0.00  0.00     0.120 A 
ATOM     11  C   UNN dAMED      -2.123  -2.557   0.484  0.00  0.00     0.024 A 
ATOM     12  C   UNN dAMED      -2.536  -3.430  -0.568  0.00  0.00     0.022 A 
ATOM     13  C   UNN dAMED      -2.553  -2.616  -1.687  0.00  0.00     0.099 A 
ATOM     14  N   UNN dAMED      -2.214  -1.295  -1.477  0.00  0.00    -0.241 NA
ENDBRANCH   8  10
ENDBRANCH   5   8
BRANCH   6  15
ATOM     15  N   UNN dAMED       0.953  -1.113  -0.897  0.00  0.00    -0.210 NA
ATOM     16  C   UNN dAMED       1.456  -2.007  -0.052  0.00  0.00     0.296 C 
ATOM     17  O   UNN dAMED       1.512  -3.217  -0.235  0.00  0.00    -0.268 OA
BRANCH  16  18
ATOM     18  C   UNN dAMED       2.009  -1.488   1.247  0.00  0.00     0.427 C 
ATOM     19  N   UNN dAMED       1.740  -0.121   1.659  0.00  0.00     0.629 N 
ENDBRANCH  16  18
ENDBRANCH   6  15
TORSDOF 4
