REMARK  18 active torsions:
REMARK  status: ('A' for Active; 'I' for Inactive)
REMARK    1  A    between atoms: C_4  and  N_35 
REMARK    2  A    between atoms: C_8  and  N_31 
REMARK    3  A    between atoms: C_9  and  N_31 
REMARK    4  A    between atoms: C_13  and  C_14 
REMARK    5  A    between atoms: C_14  and  C_15 
REMARK    6  A    between atoms: C_15  and  C_16 
REMARK    7  A    between atoms: C_16  and  C_17 
REMARK    8  A    between atoms: C_17  and  C_18 
REMARK    9  A    between atoms: C_18  and  C_19 
REMARK   10  A    between atoms: C_19  and  C_20 
REMARK   11  A    between atoms: C_20  and  C_21 
REMARK   12  A    between atoms: C_21  and  C_22 
REMARK   13  A    between atoms: C_22  and  C_23 
REMARK   14  A    between atoms: C_23  and  C_24 
REMARK   15  A    between atoms: C_24  and  C_25 
REMARK   16  A    between atoms: C_25  and  C_26 
REMARK       I    between atoms: C_26  and  N_34 
REMARK   17  A    between atoms: C_28  and  C_29 
REMARK   18  A    between atoms: C_28  and  N_34 
REMARK       I    between atoms: C_29  and  N_35 
ROOT
ATOM      1  C   UNN dAMED      -1.059   2.375  -5.938  0.00  0.00     0.299 C 
ATOM      2  O   UNN dAMED      -0.582   1.254  -5.812  0.00  0.00    -0.263 OA
ATOM      3  N   UNN dAMED      -0.374   3.511  -6.033  0.00  0.00    -0.203 NA
ENDROOT
BRANCH   1   4
ATOM      4  C   UNN dAMED      -2.568   2.477  -5.890  0.00  0.00     0.164 C 
BRANCH   4   5
ATOM      5  N   UNN dAMED      -3.386   2.509  -7.100  0.00  0.00    -0.205 NA
ATOM      6  C   UNN dAMED      -3.521   1.445  -7.882  0.00  0.00     0.256 C 
ATOM      7  O   UNN dAMED      -4.042   0.378  -7.582  0.00  0.00    -0.270 OA
BRANCH   6   8
ATOM      8  C   UNN dAMED      -3.074   1.616  -9.311  0.00  0.00     0.090 C 
BRANCH   8   9
ATOM      9  C   UNN dAMED      -3.486   0.621 -10.403  0.00  0.00     0.010 C 
BRANCH   9  10
ATOM     10  C   UNN dAMED      -2.899   0.761 -11.814  0.00  0.00     0.001 C 
BRANCH  10  11
ATOM     11  C   UNN dAMED      -1.454   1.245 -11.996  0.00  0.00     0.000 C 
BRANCH  11  12
ATOM     12  C   UNN dAMED      -0.872   1.446 -13.401  0.00  0.00     0.000 C 
BRANCH  12  13
ATOM     13  C   UNN dAMED      -0.756   2.855 -13.994  0.00  0.00     0.000 C 
BRANCH  13  14
ATOM     14  C   UNN dAMED      -0.416   4.046 -13.092  0.00  0.00     0.000 C 
BRANCH  14  15
ATOM     15  C   UNN dAMED      -1.375   4.450 -11.968  0.00  0.00     0.000 C 
BRANCH  15  16
ATOM     16  C   UNN dAMED      -1.187   5.786 -11.241  0.00  0.00     0.000 C 
BRANCH  16  17
ATOM     17  C   UNN dAMED      -2.272   6.865 -11.323  0.00  0.00     0.000 C 
BRANCH  17  18
ATOM     18  C   UNN dAMED      -2.346   7.791 -12.542  0.00  0.00     0.000 C 
BRANCH  18  19
ATOM     19  C   UNN dAMED      -1.057   8.277 -13.213  0.00  0.00     0.000 C 
BRANCH  19  20
ATOM     20  C   UNN dAMED      -0.840   9.774 -13.453  0.00  0.00     0.000 C 
ATOM     21  C   UNN dAMED      -1.578  10.802 -12.590  0.00  0.00     0.000 C 
ATOM     22  C   UNN dAMED       0.133  10.243 -14.540  0.00  0.00     0.000 C 
ENDBRANCH  19  20
ENDBRANCH  18  19
ENDBRANCH  17  18
ENDBRANCH  16  17
ENDBRANCH  15  16
ENDBRANCH  14  15
ENDBRANCH  13  14
ENDBRANCH  12  13
ENDBRANCH  11  12
ENDBRANCH  10  11
ENDBRANCH   9  10
ENDBRANCH   8   9
ENDBRANCH   6   8
ENDBRANCH   4   5
ENDBRANCH   1   4
BRANCH   3  23
ATOM     23  C   UNN dAMED       0.985   3.489  -6.565  0.00  0.00     0.131 C 
ATOM     24  C   UNN dAMED       1.720   2.153  -6.627  0.00  0.00     0.100 C 
ATOM     25  O   UNN dAMED       2.846   1.978  -5.821  0.00  0.00    -0.290 OA
ATOM     26  C   UNN dAMED       1.009   0.933  -7.219  0.00  0.00     0.060 C 
ATOM     27  C   UNN dAMED       3.772   3.027  -5.761  0.00  0.00     0.212 C 
ATOM     28  C   UNN dAMED       3.246   4.487  -5.753  0.00  0.00     0.199 C 
ATOM     29  C   UNN dAMED       1.889   4.721  -6.449  0.00  0.00     0.179 C 
ATOM     30  O   UNN dAMED       3.661   5.362  -4.777  0.00  0.00    -0.184 OA
ATOM     31  O   UNN dAMED       1.701   5.792  -7.288  0.00  0.00    -0.186 OA
BRANCH  27  32
ATOM     32  N   UNN dAMED       5.186   2.727  -5.519  0.00  0.00    -0.199 NA
BRANCH  32  33
ATOM     33  C   UNN dAMED       5.859   1.875  -6.299  0.00  0.00     0.187 A 
ATOM     34  N   UNN dAMED       6.252   2.267  -7.548  0.00  0.00    -0.203 NA
ATOM     35  C   UNN dAMED       6.932   1.370  -8.325  0.00  0.00     0.202 A 
ATOM     36  N   UNN dAMED       7.290   0.091  -8.031  0.00  0.00    -0.203 NA
ATOM     37  C   UNN dAMED       6.874  -0.258  -6.763  0.00  0.00     0.186 A 
ATOM     38  C   UNN dAMED       6.179   0.581  -5.895  0.00  0.00     0.155 A 
ATOM     39  N   UNN dAMED       7.056  -1.440  -6.140  0.00  0.00    -0.203 NA
ATOM     40  N   UNN dAMED       5.900  -0.026  -4.703  0.00  0.00    -0.218 NA
ATOM     41  C   UNN dAMED       6.444  -1.217  -4.912  0.00  0.00     0.201 A 
ENDBRANCH  32  33
ENDBRANCH  27  32
ENDBRANCH   3  23
TORSDOF 18
