REMARK  2 active torsions:
REMARK  status: ('A' for Active; 'I' for Inactive)
REMARK    1  A    between atoms: C_15  and  O_23 
REMARK    2  A    between atoms: C_18  and  O_25 
ROOT
ATOM      1  O   UNN dAMED      -0.424   2.083  -0.804  0.00  0.00    -0.287 OA
ATOM      2  N   UNN dAMED       1.360  -2.403   1.263  0.00  0.00    -0.246 NA
ATOM      3  O   UNN dAMED       6.073   1.139  -0.443  0.00  0.00    -0.300 OA
ATOM      4  O   UNN dAMED       5.387  -1.022  -0.006  0.00  0.00    -0.299 OA
ATOM      5  C   UNN dAMED       3.840   2.183  -0.414  0.00  0.00     0.026 A 
ATOM      6  C   UNN dAMED       2.484   1.841  -0.218  0.00  0.00     0.002 A 
ATOM      7  C   UNN dAMED       4.713   1.108  -0.311  0.00  0.00     0.119 A 
ATOM      8  C   UNN dAMED       4.297  -0.200  -0.056  0.00  0.00     0.120 A 
ATOM      9  C   UNN dAMED       2.040   0.516   0.016  0.00  0.00     0.006 A 
ATOM     10  C   UNN dAMED       2.961  -0.540   0.131  0.00  0.00     0.036 A 
ATOM     11  C   UNN dAMED       0.573   0.247   0.321  0.00  0.00     0.042 C 
ATOM     12  C   UNN dAMED      -0.586   0.950  -0.373  0.00  0.00     0.196 C 
ATOM     13  C   UNN dAMED      -1.953   0.434  -0.216  0.00  0.00     0.041 A 
ATOM     14  C   UNN dAMED      -3.031   1.197  -0.671  0.00  0.00     0.029 A 
ATOM     15  C   UNN dAMED      -4.323   0.728  -0.475  0.00  0.00     0.116 A 
ATOM     16  C   UNN dAMED       2.566  -1.972   0.362  0.00  0.00     0.049 C 
ATOM     17  C   UNN dAMED      -2.160  -0.789   0.411  0.00  0.00     0.002 A 
ATOM     18  C   UNN dAMED      -4.537  -0.492   0.146  0.00  0.00     0.116 A 
ATOM     19  C   UNN dAMED      -3.464  -1.255   0.594  0.00  0.00     0.026 A 
ATOM     20  C   UNN dAMED      -1.034  -1.502   1.100  0.00  0.00    -0.008 C 
ATOM     21  C   UNN dAMED       0.338  -1.722   0.452  0.00  0.00     0.103 C 
ATOM     22  C   UNN dAMED       6.420  -0.165  -0.247  0.00  0.00     0.304 A 
ATOM     23  C   UNN dAMED       2.569  -1.971   0.360  0.00  0.00     0.095 C 
ENDROOT
BRANCH  15  24
ATOM     24  O   UNN dAMED      -5.374   1.511  -0.845  0.00  0.00    -0.326 OA
ATOM     25  C   UNN dAMED      -5.880   2.027   0.354  0.00  0.00     0.181 C 
ENDBRANCH  15  24
BRANCH  18  26
ATOM     26  O   UNN dAMED      -5.805  -0.950   0.355  0.00  0.00    -0.326 OA
ATOM     27  C   UNN dAMED      -6.646   0.068  -0.103  0.00  0.00     0.181 C 
ENDBRANCH  18  26
TORSDOF 2
