REMARK  3 active torsions:
REMARK  status: ('A' for Active; 'I' for Inactive)
REMARK    1  A    between atoms: C_4  and  S_6 
REMARK    2  A    between atoms: C_5  and  N_14 
REMARK    3  A    between atoms: S_6  and  C_7 
ROOT
ATOM      1  N   UNN dAMED       2.964  -0.606  -0.297  0.00  0.00    -0.207 NA
ATOM      2  C   UNN dAMED       2.176  -1.504  -0.856  0.00  0.00     0.155 C 
ATOM      3  N   UNN dAMED       0.928  -0.990  -1.072  0.00  0.00    -0.205 NA
ATOM      4  C   UNN dAMED       0.839   0.223  -0.455  0.00  0.00     0.115 C 
ATOM      5  C   UNN dAMED       2.131   0.449  -0.047  0.00  0.00     0.226 C 
ATOM      6  C   UNN dAMED      -0.035  -1.866  -0.499  0.00  0.00     0.102 C 
ENDROOT
BRANCH   4   7
ATOM      7  S   UNN dAMED      -0.616   1.141  -0.307  0.00  0.00    -0.034 SA
BRANCH   7   8
ATOM      8  C   UNN dAMED      -1.734   0.135  -1.143  0.00  0.00     0.195 A 
ATOM      9  N   UNN dAMED      -2.132  -1.078  -0.840  0.00  0.00    -0.122 NA
ATOM     10  N   UNN dAMED      -3.083  -1.440  -1.773  0.00  0.00    -0.125 NA
ATOM     11  C   UNN dAMED      -3.255  -0.421  -2.592  0.00  0.00     0.200 A 
ATOM     12  N   UNN dAMED      -2.421   0.598  -2.223  0.00  0.00    -0.314 N 
ATOM     13  H   UNN dAMED      -2.348   1.512  -2.652  0.00  0.00     0.170 HD
ENDBRANCH   7   8
ENDBRANCH   4   7
BRANCH   5  14
ATOM     14  N   UNN dAMED       2.657   1.579   0.615  0.00  0.00    -0.093 N 
ATOM     15  O   UNN dAMED       2.587   1.580   1.848  0.00  0.00    -0.530 OA
ATOM     16  O   UNN dAMED       3.143   2.459  -0.103  0.00  0.00    -0.530 OA
ENDBRANCH   5  14
TORSDOF 3
