REMARK  7 active torsions:
REMARK  status: ('A' for Active; 'I' for Inactive)
REMARK    1  A    between atoms: C_8  and  N_20 
REMARK    2  A    between atoms: C_9  and  O_11 
REMARK       I    between atoms: C_9  and  N_20 
REMARK    3  A    between atoms: O_11  and  C_12 
REMARK    4  A    between atoms: C_17  and  N_21 
REMARK    5  A    between atoms: C_19  and  N_21 
REMARK    6  A    between atoms: N_22  and  C_23 
REMARK    7  A    between atoms: C_23  and  C_24 
ROOT
ATOM      1  C   UNN dAMED      -3.446  -1.072  -3.875  0.00  0.00     0.105 A 
ATOM      2  C   UNN dAMED      -2.725  -1.666  -4.903  0.00  0.00     0.026 A 
ATOM      3  C   UNN dAMED      -3.868   0.251  -3.952  0.00  0.00     0.026 A 
ATOM      4  C   UNN dAMED      -2.380  -0.897  -6.011  0.00  0.00     0.021 A 
ATOM      5  C   UNN dAMED      -3.515   1.002  -5.075  0.00  0.00     0.021 A 
ATOM      6  C   UNN dAMED      -2.775   0.446  -6.131  0.00  0.00     0.084 A 
ENDROOT
BRANCH   1   7
ATOM      7  O   UNN dAMED      -3.755  -1.843  -2.755  0.00  0.00    -0.258 OA
BRANCH   7   8
ATOM      8  C   UNN dAMED      -2.800  -1.662  -1.746  0.00  0.00     0.392 C 
ATOM      9  O   UNN dAMED      -1.610  -1.463  -1.977  0.00  0.00    -0.236 OA
ATOM     10  N   UNN dAMED      -3.325  -1.865  -0.534  0.00  0.00    -0.186 NA
BRANCH  10  11
ATOM     11  C   UNN dAMED      -4.228  -0.924  -0.189  0.00  0.00     0.087 A 
ATOM     12  C   UNN dAMED      -3.869   0.400   0.089  0.00  0.00     0.020 A 
ATOM     13  C   UNN dAMED      -4.831   1.355   0.416  0.00  0.00     0.014 A 
ATOM     14  C   UNN dAMED      -6.174   0.995   0.498  0.00  0.00     0.068 A 
ATOM     15 CL   UNN dAMED      -7.303   2.229   0.907  0.00  0.00    -0.082 Cl
ATOM     16  C   UNN dAMED      -6.551  -0.324   0.262  0.00  0.00     0.070 A 
ATOM     17 CL   UNN dAMED      -8.178  -0.874   0.375  0.00  0.00    -0.081 Cl
ATOM     18  C   UNN dAMED      -5.581  -1.268  -0.076  0.00  0.00     0.032 A 
ENDBRANCH  10  11
ENDBRANCH   7   8
ENDBRANCH   1   7
BRANCH   6  19
ATOM     19  N   UNN dAMED      -2.401   1.175  -7.210  0.00  0.00    -0.218 NA
BRANCH  19  20
ATOM     20  C   UNN dAMED      -3.383   1.413  -8.096  0.00  0.00     0.217 C 
ATOM     21  S   UNN dAMED      -4.261   0.247  -8.954  0.00  0.00    -0.037 SA
ATOM     22  N   UNN dAMED      -3.521   2.711  -8.381  0.00  0.00    -0.239 NA
BRANCH  22  23
ATOM     23  C   UNN dAMED      -2.783   3.757  -7.684  0.00  0.00     0.154 C 
BRANCH  23  24
ATOM     24  C   UNN dAMED      -2.681   5.158  -8.311  0.00  0.00     0.000 C 
ATOM     25  C   UNN dAMED      -2.259   6.201  -7.595  0.00  0.00    -0.003 C 
ENDBRANCH  23  24
ENDBRANCH  22  23
ENDBRANCH  19  20
ENDBRANCH   6  19
TORSDOF 7
