REMARK  3 active torsions:
REMARK  status: ('A' for Active; 'I' for Inactive)
REMARK       I    between atoms: C_1  and  N_25 
REMARK    1  A    between atoms: C_3  and  N_26 
REMARK    2  A    between atoms: C_10  and  N_25 
REMARK    3  A    between atoms: C_18  and  N_26 
ROOT
ATOM      1  C   UNN dAMED      -1.406   1.064  -0.566  0.00  0.00     0.752 A 
ATOM      2  N   UNN dAMED      -0.762  -0.054  -0.129  0.00  0.00    -0.040 NA
ATOM      3  C   UNN dAMED       0.490   0.064   0.392  0.00  0.00     0.185 A 
ATOM      4  C   UNN dAMED       1.068   1.338   0.439  0.00  0.00     0.087 A 
ATOM      5  C   UNN dAMED       0.298   2.393  -0.023  0.00  0.00     0.162 A 
ATOM      6  N   UNN dAMED      -0.946   2.337  -0.523  0.00  0.00    -0.046 NA
ATOM      7  C   UNN dAMED       2.270   1.951   0.861  0.00  0.00     0.120 C 
ATOM      8  N   UNN dAMED       2.240   3.283   0.738  0.00  0.00    -0.188 NA
ATOM      9  N   UNN dAMED       1.084   3.497   0.095  0.00  0.00    -0.137 NA
ATOM     10  C   UNN dAMED       0.359   4.513   0.776  0.00  0.00     0.123 C 
ATOM     11  N   UNN dAMED      -2.661   0.877  -1.021  0.00  0.00    -0.059 NA
ENDROOT
BRANCH  11  12
ATOM     12  C   UNN dAMED      -2.798   0.784  -2.366  0.00  0.00     0.101 A 
ATOM     13  C   UNN dAMED      -1.806   0.319  -3.246  0.00  0.00     0.020 A 
ATOM     14  C   UNN dAMED      -2.032   0.180  -4.617  0.00  0.00     0.002 A 
ATOM     15  C   UNN dAMED      -3.283   0.473  -5.145  0.00  0.00     0.011 A 
ATOM     16  C   UNN dAMED      -4.288   0.915  -4.296  0.00  0.00     0.059 A 
ATOM     17  C   UNN dAMED      -4.048   1.071  -2.931  0.00  0.00     0.031 A 
ATOM     18 CL   UNN dAMED      -5.852   1.235  -4.925  0.00  0.00    -0.082 Cl
ENDBRANCH  11  12
BRANCH   3  19
ATOM     19  N   UNN dAMED       1.141  -1.061   0.743  0.00  0.00    -0.226 NA
BRANCH  19  20
ATOM     20  C   UNN dAMED       1.366  -1.180   2.070  0.00  0.00     0.084 A 
ATOM     21  C   UNN dAMED       0.353  -1.505   2.984  0.00  0.00     0.019 A 
ATOM     22  C   UNN dAMED       0.623  -1.672   4.344  0.00  0.00     0.002 A 
ATOM     23  C   UNN dAMED       1.925  -1.543   4.816  0.00  0.00     0.011 A 
ATOM     24  C   UNN dAMED       2.946  -1.251   3.922  0.00  0.00     0.059 A 
ATOM     25  C   UNN dAMED       2.672  -1.080   2.567  0.00  0.00     0.031 A 
ATOM     26 CL   UNN dAMED       4.561  -1.105   4.481  0.00  0.00    -0.082 Cl
ENDBRANCH  19  20
ENDBRANCH   3  19
TORSDOF 3
