REMARK  4 active torsions:
REMARK  status: ('A' for Active; 'I' for Inactive)
REMARK    1  A    between atoms: N_1  and  C_6 
REMARK    2  A    between atoms: C_6  and  C_7 
REMARK    3  A    between atoms: C_7  and  C_8 
REMARK    4  A    between atoms: C_8  and  C_9 
ROOT
ATOM      1  C   UNN dAMED      -1.708   1.240  -2.807  0.00  0.00     0.105 C 
ATOM      2  C   UNN dAMED      -1.879   2.305  -3.779  0.00  0.00     0.074 C 
ATOM      3  N   UNN dAMED      -2.016   3.157  -4.555  0.00  0.00    -0.196 NA
ENDROOT
BRANCH   1   4
ATOM      4  C   UNN dAMED      -0.314   0.659  -2.546  0.00  0.00     0.018 C 
BRANCH   4   5
ATOM      5  C   UNN dAMED      -0.146  -0.544  -1.611  0.00  0.00     0.025 C 
BRANCH   5   6
ATOM      6  C   UNN dAMED      -0.567  -0.436  -0.142  0.00  0.00     0.097 C 
BRANCH   6   7
ATOM      7  N   UNN dAMED      -1.852   0.112   0.180  0.00  0.00    -0.368 N 
ATOM      8  C   UNN dAMED      -2.726  -1.048  -0.138  0.00  0.00     0.097 C 
ATOM      9  C   UNN dAMED      -4.209  -0.787   0.090  0.00  0.00     0.026 C 
ATOM     10  C   UNN dAMED      -4.279   0.678   0.421  0.00  0.00     0.026 C 
ATOM     11  C   UNN dAMED      -2.841   1.169   0.292  0.00  0.00     0.097 C 
ENDBRANCH   6   7
ENDBRANCH   5   6
ENDBRANCH   4   5
ENDBRANCH   1   4
TORSDOF 4
