REMARK  1 active torsions:
REMARK  status: ('A' for Active; 'I' for Inactive)
REMARK    1  A    between atoms: N_2  and  C_19 
ROOT
ATOM      1  N   UNN dAMED      -3.350  -0.815  -1.064  0.00  0.00    -0.245 NA
ATOM      2  O   UNN dAMED      -6.187  -1.828  -1.094  0.00  0.00    -0.265 OA
ATOM      3  N   UNN dAMED      -5.197  -3.784  -1.987  0.00  0.00    -0.277 N 
ATOM      4 CL   UNN dAMED      -6.372  -8.735  -1.643  0.00  0.00    -0.082 Cl
ATOM      5 CL   UNN dAMED      -1.418  -9.011  -4.717  0.00  0.00    -0.082 Cl
ATOM      6  C   UNN dAMED      -2.891  -3.093  -1.661  0.00  0.00     0.095 C 
ATOM      7  C   UNN dAMED      -3.817  -4.248  -1.944  0.00  0.00     0.050 C 
ATOM      8  C   UNN dAMED      -3.812  -1.972  -1.389  0.00  0.00     0.121 C 
ATOM      9  C   UNN dAMED      -3.208  -5.428  -2.682  0.00  0.00     0.013 A 
ATOM     10  C   UNN dAMED      -3.441  -5.641  -4.040  0.00  0.00     0.002 A 
ATOM     11  C   UNN dAMED      -2.886  -6.753  -4.671  0.00  0.00     0.011 A 
ATOM     12  C   UNN dAMED      -2.084  -7.630  -3.945  0.00  0.00     0.058 A 
ATOM     13  C   UNN dAMED      -2.388  -6.303  -1.966  0.00  0.00     0.002 A 
ATOM     14  C   UNN dAMED      -5.236  -2.482  -1.474  0.00  0.00     0.278 C 
ATOM     15  C   UNN dAMED      -1.824  -7.406  -2.597  0.00  0.00     0.011 A 
ATOM     16  C   UNN dAMED      -6.194  -4.757  -1.816  0.00  0.00     0.068 A 
ATOM     17  C   UNN dAMED      -7.546  -4.409  -1.861  0.00  0.00     0.018 A 
ATOM     18  C   UNN dAMED      -5.852  -6.100  -1.701  0.00  0.00     0.029 A 
ATOM     19  C   UNN dAMED      -6.835  -7.082  -1.652  0.00  0.00     0.059 A 
ATOM     20  C   UNN dAMED      -8.535  -5.390  -1.761  0.00  0.00     0.002 A 
ATOM     21  C   UNN dAMED      -8.180  -6.734  -1.672  0.00  0.00     0.011 A 
ENDROOT
BRANCH   1  22
ATOM     22  C   UNN dAMED      -4.134   0.247  -0.610  0.00  0.00     0.082 A 
ATOM     23  C   UNN dAMED      -5.063   0.898  -1.424  0.00  0.00     0.019 A 
ATOM     24  C   UNN dAMED      -5.678   2.078  -1.002  0.00  0.00     0.002 A 
ATOM     25  C   UNN dAMED      -5.304   2.665   0.205  0.00  0.00     0.011 A 
ATOM     26  C   UNN dAMED      -4.344   2.049   0.997  0.00  0.00     0.059 A 
ATOM     27 CL   UNN dAMED      -3.800   2.804   2.437  0.00  0.00    -0.082 Cl
ATOM     28  C   UNN dAMED      -3.769   0.848   0.597  0.00  0.00     0.030 A 
ENDBRANCH   1  22
TORSDOF 1
