REMARK  0 active torsions:
REMARK  status: ('A' for Active; 'I' for Inactive)
ROOT
ATOM      1  C   UNN dAMED      -3.497   0.890   0.103  0.00  0.00     0.012 A 
ATOM      2  C   UNN dAMED      -2.884   1.937  -0.593  0.00  0.00     0.002 A 
ATOM      3  C   UNN dAMED      -2.744  -0.184   0.578  0.00  0.00     0.062 A 
ATOM      4  C   UNN dAMED      -1.509   1.924  -0.823  0.00  0.00     0.019 A 
ATOM      5 CL   UNN dAMED      -3.554  -1.441   1.427  0.00  0.00    -0.082 Cl
ATOM      6  C   UNN dAMED      -1.373  -0.201   0.351  0.00  0.00     0.059 A 
ATOM      7  C   UNN dAMED      -0.773   0.849  -0.344  0.00  0.00     0.084 A 
ATOM      8  N   UNN dAMED       0.603   0.749  -0.526  0.00  0.00    -0.216 N 
ATOM      9  C   UNN dAMED      -0.504  -1.303   0.822  0.00  0.00     0.155 A 
ATOM     10  N   UNN dAMED       0.782  -1.350   0.626  0.00  0.00    -0.211 NA
ATOM     11  C   UNN dAMED       1.342  -0.315  -0.055  0.00  0.00     0.191 A 
ATOM     12  N   UNN dAMED       1.373   1.649  -1.166  0.00  0.00     0.013 NA
ATOM     13  N   UNN dAMED       2.623   1.198  -1.129  0.00  0.00    -0.144 NA
ATOM     14  C   UNN dAMED       2.617   0.009  -0.459  0.00  0.00     0.201 A 
ATOM     15  N   UNN dAMED      -1.117  -2.375   1.532  0.00  0.00    -0.080 NA
ATOM     16  C   UNN dAMED       3.815  -0.724  -0.256  0.00  0.00     0.125 C 
ATOM     17  N   UNN dAMED       4.795  -1.323  -0.090  0.00  0.00    -0.190 NA
ENDROOT
TORSDOF 0
