REMARK  0 active torsions:
REMARK  status: ('A' for Active; 'I' for Inactive)
ROOT
ATOM      1  N   UNN dAMED       1.005   0.798  -0.395  0.00  0.00    -0.345 N 
ATOM      2  H   UNN dAMED       1.472   1.502  -0.958  0.00  0.00     0.163 HD
ATOM      3  O   UNN dAMED       2.518  -0.968  -0.738  0.00  0.00    -0.268 OA
ATOM      4  C   UNN dAMED      -0.294   1.011   0.313  0.00  0.00     0.067 A 
ATOM      5  C   UNN dAMED      -0.591  -0.351   0.917  0.00  0.00     0.042 A 
ATOM      6  C   UNN dAMED      -1.485   0.650  -0.644  0.00  0.00     0.021 C 
ATOM      7  C   UNN dAMED      -1.850  -0.388   0.140  0.00  0.00     0.007 C 
ATOM      8  C   UNN dAMED       0.551  -1.296   0.553  0.00  0.00     0.013 A 
ATOM      9  C   UNN dAMED       1.514  -0.480  -0.249  0.00  0.00     0.246 A 
ATOM     10  C   UNN dAMED      -3.150  -0.588  -0.588  0.00  0.00     0.001 C 
ATOM     11  C   UNN dAMED      -0.736   2.457   0.098  0.00  0.00     0.022 C 
ATOM     12  C   UNN dAMED       1.047  -2.348   1.551  0.00  0.00     0.031 C 
ENDROOT
TORSDOF 0
