REMARK  2 active torsions:
REMARK  status: ('A' for Active; 'I' for Inactive)
REMARK    1  A    between atoms: C_10  and  C_11 
REMARK    2  A    between atoms: C_10  and  C_13 
ROOT
ATOM      1  O   UNN dAMED      -0.333   0.630   1.265  0.00  0.00    -0.330 OA
ATOM      2  N   UNN dAMED       0.234  -0.250  -0.921  0.00  0.00     0.140 N 
ATOM      3  H   UNN dAMED       0.095  -1.211  -1.231  0.00  0.00     0.321 HD
ATOM      4  C   UNN dAMED      -1.875   1.034  -0.621  0.00  0.00     0.059 C 
ATOM      5  C   UNN dAMED      -0.812   0.099   0.035  0.00  0.00     0.281 C 
ATOM      6  C   UNN dAMED      -3.015   0.262  -1.277  0.00  0.00     0.005 C 
ATOM      7  C   UNN dAMED      -2.944  -1.131  -0.700  0.00  0.00     0.005 C 
ATOM      8  C   UNN dAMED      -1.767  -1.111   0.270  0.00  0.00     0.059 C 
ATOM      9  C   UNN dAMED       1.035   0.380   1.199  0.00  0.00     0.181 C 
ATOM     10  C   UNN dAMED       1.484  -0.166  -0.169  0.00  0.00     0.278 C 
ENDROOT
BRANCH  10  11
ATOM     11  C   UNN dAMED       2.570  -0.836  -0.950  0.00  0.00     0.218 C 
ATOM     12  O   UNN dAMED       3.827  -0.961  -0.424  0.00  0.00    -0.218 OA
ENDBRANCH  10  11
BRANCH  10  13
ATOM     13  C   UNN dAMED       1.508   1.198   0.628  0.00  0.00     0.218 C 
ATOM     14  O   UNN dAMED       2.266   2.254   0.193  0.00  0.00    -0.218 OA
ENDBRANCH  10  13
TORSDOF 2
