REMARK  2 active torsions:
REMARK  status: ('A' for Active; 'I' for Inactive)
REMARK       I    between atoms: N_1  and  C_23 
REMARK    1  A    between atoms: C_2  and  C_23 
REMARK    2  A    between atoms: C_3  and  C_25 
REMARK       I    between atoms: N_4  and  C_25 
ROOT
ATOM      1  C   UNN dAMED      -2.678   2.629   0.133  0.00  0.00     0.073 C 
ATOM      2  C   UNN dAMED      -2.158   3.820   0.455  0.00  0.00     0.073 C 
ENDROOT
BRANCH   1   3
ATOM      3  C   UNN dAMED      -1.754   1.499  -0.146  0.00  0.00     0.225 C 
ATOM      4  N   UNN dAMED      -2.433   0.403  -0.613  0.00  0.00    -0.216 NA
ATOM      5  C   UNN dAMED      -3.826   0.635  -0.351  0.00  0.00     0.106 C 
ATOM      6  C   UNN dAMED      -2.068  -0.712   0.209  0.00  0.00     0.085 C 
ATOM      7  C   UNN dAMED      -4.810  -0.507  -0.358  0.00  0.00    -0.010 A 
ATOM      8  C   UNN dAMED      -4.357  -1.806  -0.115  0.00  0.00    -0.023 A 
ATOM      9  C   UNN dAMED      -6.167  -0.264  -0.533  0.00  0.00    -0.003 A 
ATOM     10  C   UNN dAMED      -5.240  -2.876  -0.121  0.00  0.00    -0.004 A 
ATOM     11  C   UNN dAMED      -2.879  -1.998   0.048  0.00  0.00     0.044 C 
ATOM     12  C   UNN dAMED      -6.596  -2.634  -0.326  0.00  0.00    -0.000 A 
ATOM     13  C   UNN dAMED      -7.060  -1.332  -0.519  0.00  0.00    -0.000 A 
ATOM     14  O   UNN dAMED      -0.541   1.550   0.013  0.00  0.00    -0.275 OA
ENDBRANCH   1   3
BRANCH   2  15
ATOM     15  C   UNN dAMED      -2.968   5.026   0.764  0.00  0.00     0.225 C 
ATOM     16  N   UNN dAMED      -4.293   4.928   0.439  0.00  0.00    -0.216 NA
ATOM     17  C   UNN dAMED      -4.352   4.341  -0.873  0.00  0.00     0.106 C 
ATOM     18  C   UNN dAMED      -4.776   6.258   0.206  0.00  0.00     0.085 C 
ATOM     19  C   UNN dAMED      -5.622   4.391  -1.682  0.00  0.00    -0.010 A 
ATOM     20  C   UNN dAMED      -5.877   3.436  -2.657  0.00  0.00    -0.003 A 
ATOM     21  C   UNN dAMED      -6.509   5.451  -1.488  0.00  0.00    -0.023 A 
ATOM     22  C   UNN dAMED      -7.053   3.517  -3.398  0.00  0.00    -0.000 A 
ATOM     23  C   UNN dAMED      -7.959   4.553  -3.169  0.00  0.00    -0.000 A 
ATOM     24  C   UNN dAMED      -7.689   5.528  -2.213  0.00  0.00    -0.004 A 
ATOM     25  C   UNN dAMED      -6.173   6.418  -0.396  0.00  0.00     0.044 C 
ATOM     26  O   UNN dAMED      -2.442   6.031   1.231  0.00  0.00    -0.275 OA
ENDBRANCH   2  15
TORSDOF 2
