REMARK  2 active torsions:
REMARK  status: ('A' for Active; 'I' for Inactive)
REMARK    1  A    between atoms: C_7  and  C_14 
REMARK    2  A    between atoms: C_8  and  C_13 
ROOT
ATOM      1  C   UNN dAMED       0.216  -0.992   0.844  0.00  0.00     0.021 C 
ATOM      2  C   UNN dAMED      -0.646  -0.031   1.171  0.00  0.00     0.021 C 
ENDROOT
BRANCH   1   3
ATOM      3  C   UNN dAMED       1.600  -0.993   1.429  0.00  0.00     0.082 A 
ATOM      4  N   UNN dAMED       1.908  -1.934   2.351  0.00  0.00    -0.244 NA
ATOM      5  C   UNN dAMED       3.165  -1.913   2.846  0.00  0.00     0.099 A 
ATOM      6  C   UNN dAMED       4.135  -1.001   2.466  0.00  0.00     0.021 A 
ATOM      7  C   UNN dAMED       3.786  -0.052   1.514  0.00  0.00     0.003 A 
ATOM      8  C   UNN dAMED       2.502  -0.038   0.984  0.00  0.00     0.019 A 
ENDBRANCH   1   3
BRANCH   2   9
ATOM      9  C   UNN dAMED      -2.030  -0.035   0.584  0.00  0.00     0.082 A 
ATOM     10  N   UNN dAMED      -2.683  -1.216   0.486  0.00  0.00    -0.244 NA
ATOM     11  C   UNN dAMED      -3.929  -1.180  -0.039  0.00  0.00     0.099 A 
ATOM     12  C   UNN dAMED      -4.558  -0.026  -0.472  0.00  0.00     0.021 A 
ATOM     13  C   UNN dAMED      -3.861   1.169  -0.348  0.00  0.00     0.003 A 
ATOM     14  C   UNN dAMED      -2.578   1.174   0.185  0.00  0.00     0.019 A 
ENDBRANCH   2   9
TORSDOF 2
