REMARK  3 active torsions:
REMARK  status: ('A' for Active; 'I' for Inactive)
REMARK    1  A    between atoms: C_8  and  C_17 
REMARK    2  A    between atoms: C_12  and  N_20 
REMARK    3  A    between atoms: C_15  and  N_21 
REMARK       I    between atoms: C_17  and  N_20 
ROOT
ATOM      1  C   UNN dAMED       0.037  -2.024  -0.156  0.00  0.00     0.282 C 
ATOM      2  O   UNN dAMED       0.693  -2.110   0.878  0.00  0.00    -0.265 OA
ATOM      3  N   UNN dAMED       0.362  -2.514  -1.358  0.00  0.00    -0.208 NA
ENDROOT
BRANCH   1   4
ATOM      4  C   UNN dAMED      -1.294  -1.375  -0.063  0.00  0.00     0.097 A 
ATOM      5  C   UNN dAMED      -2.464  -2.116   0.237  0.00  0.00     0.200 A 
ATOM      6  C   UNN dAMED      -3.630  -1.329   0.293  0.00  0.00     0.042 A 
ATOM      7  O   UNN dAMED      -2.504  -3.375   0.444  0.00  0.00    -0.286 OA
ATOM      8  C   UNN dAMED      -3.661   0.057   0.082  0.00  0.00     0.003 A 
ATOM      9  C   UNN dAMED      -4.858   0.772   0.144  0.00  0.00     0.000 A 
ATOM     10  C   UNN dAMED      -2.465   0.736  -0.198  0.00  0.00     0.000 A 
ATOM     11  C   UNN dAMED      -4.863   2.149  -0.074  0.00  0.00     0.000 A 
ATOM     12  C   UNN dAMED      -3.674   2.818  -0.355  0.00  0.00     0.000 A 
ATOM     13  C   UNN dAMED      -2.475   2.113  -0.416  0.00  0.00     0.000 A 
ATOM     14  C   UNN dAMED      -1.283   0.016  -0.258  0.00  0.00     0.008 A 
ENDBRANCH   1   4
BRANCH   3  15
ATOM     15  C   UNN dAMED       0.843  -1.575  -2.205  0.00  0.00     0.086 A 
ATOM     16  C   UNN dAMED       0.133  -1.261  -3.376  0.00  0.00     0.019 A 
ATOM     17  C   UNN dAMED       0.587  -0.300  -4.286  0.00  0.00     0.003 A 
ATOM     18  C   UNN dAMED       1.779   0.371  -4.048  0.00  0.00     0.024 A 
ATOM     19  C   UNN dAMED       2.486   0.048  -2.899  0.00  0.00     0.128 A 
ATOM     20  C   UNN dAMED       2.055  -0.910  -1.984  0.00  0.00     0.043 A 
BRANCH  19  21
ATOM     21  N   UNN dAMED       3.706   0.749  -2.628  0.00  0.00    -0.114 N 
ATOM     22  O   UNN dAMED       4.761   0.167  -2.908  0.00  0.00    -0.532 OA
ATOM     23  O   UNN dAMED       3.604   1.880  -2.136  0.00  0.00    -0.532 OA
ENDBRANCH  19  21
ENDBRANCH   3  15
TORSDOF 3
