REMARK  3 active torsions:
REMARK  status: ('A' for Active; 'I' for Inactive)
REMARK    1  A    between atoms: C_2  and  C_3 
REMARK    2  A    between atoms: N_12  and  C_15 
REMARK    3  A    between atoms: C_15  and  C_16 
ROOT
ATOM      1  N   UNN dAMED      -2.280  -0.960  -1.292  0.00  0.00    -0.218 NA
ATOM      2  C   UNN dAMED      -2.162  -0.063  -0.257  0.00  0.00     0.172 A 
ATOM      3  C   UNN dAMED      -1.050  -1.349  -1.548  0.00  0.00     0.188 A 
ATOM      4  N   UNN dAMED      -0.146  -0.728  -0.727  0.00  0.00    -0.222 N 
ATOM      5  C   UNN dAMED      -0.843   0.096   0.117  0.00  0.00     0.198 A 
ATOM      6  N   UNN dAMED      -0.189   0.812   1.062  0.00  0.00    -0.110 NA
ATOM      7  C   UNN dAMED       1.226  -0.867  -0.690  0.00  0.00     0.355 C 
ATOM      8  O   UNN dAMED       1.790  -1.658  -1.427  0.00  0.00    -0.244 OA
ATOM      9  N   UNN dAMED       1.064   0.735   1.156  0.00  0.00    -0.059 NA
ATOM     10  N   UNN dAMED       1.734   0.003   0.231  0.00  0.00    -0.183 N 
ENDROOT
BRANCH   2  11
ATOM     11  C   UNN dAMED      -3.297   0.588   0.337  0.00  0.00     0.287 C 
ATOM     12  O   UNN dAMED      -4.389   0.666  -0.211  0.00  0.00    -0.269 OA
ATOM     13  N   UNN dAMED      -3.146   1.151   1.636  0.00  0.00    -0.056 NA
ENDBRANCH   2  11
BRANCH  10  14
ATOM     14  C   UNN dAMED       2.993  -0.434   0.721  0.00  0.00     0.152 C 
BRANCH  14  15
ATOM     15  C   UNN dAMED       4.084   0.578   1.084  0.00  0.00     0.121 C 
ATOM     16 CL   UNN dAMED       5.540   0.027   1.892  0.00  0.00    -0.112 Cl
ENDBRANCH  14  15
ENDBRANCH  10  14
TORSDOF 3
