REMARK  6 active torsions:
REMARK  status: ('A' for Active; 'I' for Inactive)
REMARK    1  A    between atoms: C_2  and  N_18 
REMARK    2  A    between atoms: C_5  and  C_22 
REMARK    3  A    between atoms: C_14  and  O_16 
REMARK    4  A    between atoms: O_16  and  C_23 
REMARK    5  A    between atoms: N_17  and  C_24 
REMARK    6  A    between atoms: C_23  and  C_24 
ROOT
ATOM      1  C   UNN dAMED      -1.036  -1.156   1.067  0.00  0.00     0.024 A 
ATOM      2  C   UNN dAMED      -0.262  -1.890   2.127  0.00  0.00     0.056 A 
ATOM      3  C   UNN dAMED      -0.059  -0.388   0.228  0.00  0.00     0.192 A 
ATOM      4  O   UNN dAMED      -0.278   0.358  -0.701  0.00  0.00    -0.287 OA
ATOM      5  C   UNN dAMED       1.270  -0.709   0.750  0.00  0.00     0.037 A 
ATOM      6  C   UNN dAMED       1.169  -1.561   1.853  0.00  0.00    -0.015 A 
ATOM      7  C   UNN dAMED       2.473  -0.317   0.205  0.00  0.00     0.027 A 
ATOM      8  C   UNN dAMED       2.307  -2.038   2.473  0.00  0.00    -0.002 A 
ATOM      9  C   UNN dAMED       3.613  -0.817   0.815  0.00  0.00     0.094 A 
ATOM     10  C   UNN dAMED       3.547  -1.658   1.938  0.00  0.00     0.024 A 
ATOM     11  C   UNN dAMED      -2.345  -1.266   0.820  0.00  0.00     0.030 C 
ENDROOT
BRANCH  11  12
ATOM     12  C   UNN dAMED      -3.069  -0.712  -0.384  0.00  0.00     0.125 C 
ATOM     13  N   UNN dAMED      -2.757  -1.095  -1.609  0.00  0.00    -0.230 NA
ATOM     14  C   UNN dAMED      -2.960   0.021  -2.401  0.00  0.00     0.136 C 
ATOM     15  C   UNN dAMED      -3.395   1.063  -1.620  0.00  0.00     0.190 C 
ATOM     16  N   UNN dAMED      -3.566   0.556  -0.377  0.00  0.00    -0.195 NA
ATOM     17  C   UNN dAMED      -2.852   1.343   0.565  0.00  0.00     0.103 C 
BRANCH  15  18
ATOM     18  N   UNN dAMED      -3.587   2.433  -1.899  0.00  0.00    -0.101 N 
ATOM     19  O   UNN dAMED      -4.419   3.033  -1.210  0.00  0.00    -0.531 OA
ATOM     20  O   UNN dAMED      -2.895   2.918  -2.801  0.00  0.00    -0.531 OA
ENDBRANCH  15  18
ENDBRANCH  11  12
BRANCH   9  21
ATOM     21  O   UNN dAMED       4.811  -0.573   0.205  0.00  0.00    -0.329 OA
BRANCH  21  22
ATOM     22  C   UNN dAMED       4.601   0.582  -0.567  0.00  0.00     0.184 C 
BRANCH  22  23
ATOM     23  C   UNN dAMED       4.380   0.535  -2.105  0.00  0.00     0.283 C 
BRANCH  23  24
ATOM     24  N   UNN dAMED       3.919   1.988  -2.903  0.00  0.00     0.144 N 
ATOM     25  C   UNN dAMED       4.373   0.556  -2.116  0.00  0.00     0.286 C 
ATOM     26  C   UNN dAMED       4.373   0.558  -2.118  0.00  0.00     0.286 C 
ENDBRANCH  23  24
ENDBRANCH  22  23
ENDBRANCH  21  22
ENDBRANCH   9  21
TORSDOF 6
