REMARK  1 active torsions:
REMARK  status: ('A' for Active; 'I' for Inactive)
REMARK    1  A    between atoms: C_1  and  C_24 
ROOT
ATOM      1  C   UNN dAMED       3.764   0.291   0.391  0.00  0.00    -0.029 C 
ATOM      2  C   UNN dAMED       3.690   1.190   1.618  0.00  0.00     0.023 C 
ATOM      3  C   UNN dAMED       2.272  -0.091  -0.031  0.00  0.00     0.013 C 
ATOM      4  C   UNN dAMED       1.520  -1.010  -0.947  0.00  0.00     0.033 C 
ATOM      5  C   UNN dAMED      -0.009  -0.874  -1.116  0.00  0.00     0.122 C 
ATOM      6  C   UNN dAMED       2.236   1.126   2.082  0.00  0.00    -0.002 C 
ATOM      7  C   UNN dAMED       1.529  -0.017   1.324  0.00  0.00     0.017 C 
ATOM      8  C   UNN dAMED      -0.646  -0.831   0.278  0.00  0.00     0.041 C 
ATOM      9  C   UNN dAMED       0.044   0.219   1.168  0.00  0.00     0.010 C 
ATOM     10  C   UNN dAMED      -2.162  -0.652   0.262  0.00  0.00    -0.007 C 
ATOM     11  C   UNN dAMED      -2.814  -1.455  -0.873  0.00  0.00     0.005 C 
ATOM     12  C   UNN dAMED      -4.340  -1.441  -0.936  0.00  0.00     0.044 C 
ATOM     13  C   UNN dAMED      -0.208   1.582   0.516  0.00  0.00    -0.007 C 
ATOM     14  C   UNN dAMED      -2.672   0.783   0.247  0.00  0.00     0.024 C 
ATOM     15  C   UNN dAMED      -5.008  -0.110  -0.700  0.00  0.00     0.066 C 
ATOM     16  C   UNN dAMED      -1.535   1.696  -0.229  0.00  0.00    -0.006 C 
ATOM     17  C   UNN dAMED      -3.897   0.923  -0.679  0.00  0.00     0.038 C 
ATOM     18  N   UNN dAMED      -6.189   0.151  -1.129  0.00  0.00    -0.105 NA
ATOM     19  O   UNN dAMED      -6.393   1.505  -1.140  0.00  0.00    -0.061 OA
ATOM     20  C   UNN dAMED      -0.398  -2.181  -1.815  0.00  0.00     0.033 C 
ATOM     21  C   UNN dAMED      -2.786  -1.421   1.447  0.00  0.00    -0.001 C 
ATOM     22  O   UNN dAMED      -0.292   0.138  -1.894  0.00  0.00    -0.227 OA
ATOM     23  C   UNN dAMED       3.843   0.095   0.238  0.00  0.00     0.004 C 
ENDROOT
BRANCH   1  24
ATOM     24  C   UNN dAMED       4.894   0.339  -0.596  0.00  0.00     0.081 C 
ATOM     25  C   UNN dAMED       5.003  -0.731  -1.643  0.00  0.00     0.054 C 
ATOM     26  N   UNN dAMED       5.859   1.181  -0.445  0.00  0.00    -0.101 NA
ATOM     27  O   UNN dAMED       6.839   0.914  -1.359  0.00  0.00    -0.061 OA
ENDBRANCH   1  24
TORSDOF 1
