REMARK  2 active torsions:
REMARK  status: ('A' for Active; 'I' for Inactive)
REMARK    1  A    between atoms: C_11  and  C_20 
REMARK    2  A    between atoms: C_16  and  O_18 
ROOT
ATOM      1  N   UNN dAMED      -0.233  -0.552   0.933  0.00  0.00    -0.246 NA
ATOM      2 CL   UNN dAMED      -6.850  -1.099   0.440  0.00  0.00    -0.082 Cl
ATOM      3  C   UNN dAMED      -3.043  -1.340  -0.700  0.00  0.00     0.002 A 
ATOM      4  C   UNN dAMED      -4.410  -1.581  -0.581  0.00  0.00     0.011 A 
ATOM      5  C   UNN dAMED      -2.429  -0.325   0.043  0.00  0.00     0.018 A 
ATOM      6  C   UNN dAMED      -5.166  -0.808   0.294  0.00  0.00     0.058 A 
ATOM      7  C   UNN dAMED      -3.210   0.441   0.915  0.00  0.00     0.002 A 
ATOM      8  C   UNN dAMED      -1.002  -0.082  -0.079  0.00  0.00     0.082 A 
ATOM      9  C   UNN dAMED      -0.480   0.589  -1.173  0.00  0.00     0.025 A 
ATOM     10  C   UNN dAMED      -4.575   0.202   1.044  0.00  0.00     0.011 A 
ATOM     11  C   UNN dAMED       0.896   0.793  -1.233  0.00  0.00     0.067 A 
ATOM     12  C   UNN dAMED       1.717   0.321  -0.191  0.00  0.00     0.025 A 
ATOM     13  C   UNN dAMED       1.885  -0.833   1.914  0.00  0.00     0.021 A 
ATOM     14  C   UNN dAMED       1.094  -0.354   0.880  0.00  0.00     0.082 A 
ATOM     15  C   UNN dAMED       3.267  -0.668   1.923  0.00  0.00     0.026 A 
ATOM     16  C   UNN dAMED       3.869  -0.005   0.869  0.00  0.00     0.094 A 
ATOM     17  C   UNN dAMED       3.113   0.491  -0.184  0.00  0.00     0.026 A 
ENDROOT
BRANCH  11  18
ATOM     18  C   UNN dAMED       1.444   1.510  -2.419  0.00  0.00     0.211 C 
ATOM     19  O   UNN dAMED       1.271   2.766  -2.448  0.00  0.00    -0.644 OA
ATOM     20  O   UNN dAMED       2.014   0.795  -3.298  0.00  0.00    -0.644 OA
ENDBRANCH  11  18
BRANCH  16  21
ATOM     21  O   UNN dAMED       5.220   0.164   0.878  0.00  0.00    -0.328 OA
ATOM     22  C   UNN dAMED       5.549   0.602  -0.406  0.00  0.00     0.181 C 
ENDBRANCH  16  21
TORSDOF 2
