REMARK  4 active torsions:
REMARK  status: ('A' for Active; 'I' for Inactive)
REMARK    1  A    between atoms: C_6  and  N_26 
REMARK    2  A    between atoms: C_13  and  N_21 
REMARK       I    between atoms: C_17  and  N_26 
REMARK    3  A    between atoms: C_18  and  N_21 
REMARK    4  A    between atoms: C_19  and  N_22 
ROOT
ATOM      1  N   UNN dAMED       0.196  -1.157   0.014  0.00  0.00    -0.038 NA
ATOM      2  N   UNN dAMED       1.320  -2.590   1.587  0.00  0.00    -0.062 NA
ATOM      3  C   UNN dAMED       1.296  -1.782   0.502  0.00  0.00     0.751 A 
ATOM      4  C   UNN dAMED      -0.977  -1.318   0.680  0.00  0.00     0.204 A 
ATOM      5  C   UNN dAMED      -1.013  -2.135   1.804  0.00  0.00     0.177 A 
ATOM      6  C   UNN dAMED       0.150  -2.744   2.235  0.00  0.00     0.103 A 
ATOM      7  C   UNN dAMED       0.090  -3.671   3.416  0.00  0.00     0.055 C 
ATOM      8  N   UNN dAMED       2.420  -1.664  -0.235  0.00  0.00    -0.059 NA
ENDROOT
BRANCH   8   9
ATOM      9  C   UNN dAMED       3.442  -1.076   0.424  0.00  0.00     0.100 A 
ATOM     10  C   UNN dAMED       3.503   0.312   0.623  0.00  0.00     0.022 A 
ATOM     11  C   UNN dAMED       4.590   0.909   1.261  0.00  0.00     0.031 A 
ATOM     12  C   UNN dAMED       5.647   0.114   1.687  0.00  0.00     0.140 A 
ATOM     13  F   UNN dAMED       6.693   0.680   2.305  0.00  0.00    -0.204 F 
ATOM     14  C   UNN dAMED       5.636  -1.259   1.483  0.00  0.00     0.031 A 
ATOM     15  C   UNN dAMED       4.540  -1.840   0.849  0.00  0.00     0.022 A 
ENDBRANCH   8   9
BRANCH   4  16
ATOM     16  N   UNN dAMED      -2.058  -0.726   0.116  0.00  0.00    -0.225 NA
BRANCH  16  17
ATOM     17  C   UNN dAMED      -2.058   0.624   0.224  0.00  0.00     0.083 A 
ATOM     18  C   UNN dAMED      -1.499   1.431  -0.780  0.00  0.00     0.021 A 
ATOM     19  C   UNN dAMED      -1.570   2.822  -0.731  0.00  0.00     0.031 A 
ATOM     20  C   UNN dAMED      -2.234   3.427   0.327  0.00  0.00     0.140 A 
ATOM     21  F   UNN dAMED      -2.322   4.764   0.374  0.00  0.00    -0.204 F 
ATOM     22  C   UNN dAMED      -2.818   2.666   1.331  0.00  0.00     0.031 A 
ATOM     23  C   UNN dAMED      -2.733   1.275   1.267  0.00  0.00     0.021 A 
ENDBRANCH  16  17
ENDBRANCH   4  16
BRANCH   5  24
ATOM     24  N   UNN dAMED      -2.230  -2.460   2.506  0.00  0.00    -0.110 N 
ATOM     25  O   UNN dAMED      -2.535  -3.658   2.574  0.00  0.00    -0.532 OA
ATOM     26  O   UNN dAMED      -2.863  -1.525   3.012  0.00  0.00    -0.532 OA
ENDBRANCH   5  24
TORSDOF 4
