REMARK  3 active torsions:
REMARK  status: ('A' for Active; 'I' for Inactive)
REMARK    1  A    between atoms: N_18  and  C_28 
REMARK    2  A    between atoms: N_19  and  C_29 
REMARK    3  A    between atoms: C_28  and  C_29 
ROOT
ATOM      1  C   UNN dAMED      -3.250  -0.421  -5.207  0.00  0.00     0.196 A 
ATOM      2  C   UNN dAMED      -4.176  -1.483  -4.988  0.00  0.00     0.043 A 
ATOM      3  C   UNN dAMED      -2.176  -0.342  -4.292  0.00  0.00     0.043 A 
ATOM      4  C   UNN dAMED      -4.081  -2.431  -3.964  0.00  0.00     0.020 A 
ATOM      5  C   UNN dAMED      -2.058  -1.264  -3.272  0.00  0.00     0.020 A 
ATOM      6  C   UNN dAMED      -3.002  -2.290  -3.128  0.00  0.00     0.057 A 
ATOM      7  N   UNN dAMED      -2.679  -3.127  -2.053  0.00  0.00    -0.354 N 
ATOM      8  H   UNN dAMED      -3.241  -3.935  -1.794  0.00  0.00     0.166 HD
ATOM      9  C   UNN dAMED      -1.109  -1.470  -2.201  0.00  0.00     0.013 A 
ATOM     10  C   UNN dAMED      -1.595  -2.698  -1.504  0.00  0.00     0.052 A 
ATOM     11  C   UNN dAMED      -0.860  -3.259  -0.364  0.00  0.00    -0.006 A 
ATOM     12  C   UNN dAMED      -0.040  -0.808  -1.750  0.00  0.00    -0.019 A 
ATOM     13  C   UNN dAMED       0.598  -1.309  -0.551  0.00  0.00     0.007 A 
ATOM     14  C   UNN dAMED       0.190  -2.554   0.073  0.00  0.00    -0.001 A 
ATOM     15  C   UNN dAMED       1.506  -0.561   0.087  0.00  0.00     0.051 C 
ATOM     16  C   UNN dAMED       1.022  -3.002   1.233  0.00  0.00     0.012 C 
ATOM     17  C   UNN dAMED       1.881  -2.122   1.753  0.00  0.00     0.051 C 
ATOM     18  N   UNN dAMED       1.681  -0.652   1.551  0.00  0.00    -0.228 NA
ATOM     19  O   UNN dAMED      -3.384   0.401  -6.171  0.00  0.00    -0.287 OA
ATOM     20  C   UNN dAMED       0.420   0.458  -2.408  0.00  0.00     0.031 C 
ATOM     21  C   UNN dAMED      -1.271  -4.550   0.280  0.00  0.00     0.033 C 
ENDROOT
BRANCH  18  22
ATOM     22  C   UNN dAMED       3.138  -0.707   1.808  0.00  0.00     0.105 C 
BRANCH  22  23
ATOM     23  C   UNN dAMED       3.675  -0.859   3.228  0.00  0.00     0.115 C 
BRANCH  23  24
ATOM     24  N   UNN dAMED       3.560  -2.123   3.909  0.00  0.00    -0.367 N 
ATOM     25  C   UNN dAMED       3.540  -3.402   4.524  0.00  0.00     0.097 C 
ATOM     26  C   UNN dAMED       3.641  -4.630   3.623  0.00  0.00     0.024 C 
ATOM     27  C   UNN dAMED       4.734  -4.542   2.558  0.00  0.00     0.004 C 
ATOM     28  C   UNN dAMED       4.890  -3.151   1.936  0.00  0.00     0.024 C 
ATOM     29  C   UNN dAMED       4.658  -1.990   2.909  0.00  0.00     0.097 C 
ENDBRANCH  23  24
ENDBRANCH  22  23
ENDBRANCH  18  22
TORSDOF 3
