REMARK  2 active torsions:
REMARK  status: ('A' for Active; 'I' for Inactive)
REMARK    1  A    between atoms: C_4  and  AS_15 
REMARK    2  A    between atoms: C_10  and  AS_15 
ROOT
ATOM      1  O   UNN dAMED       0.543   2.466  -0.115  0.00  0.00     0.000 OA
ATOM      2 AS   UNN dAMED       0.370   1.019   0.521  0.00  0.00     0.000 As
ATOM      3  O   UNN dAMED       1.633  -0.035  -0.103  0.00  0.00     0.000 OA
ENDROOT
BRANCH   2   4
ATOM      4  C   UNN dAMED       0.528   1.148   2.429  0.00  0.00     0.000 A 
ATOM      5  C   UNN dAMED      -0.567   1.698   3.104  0.00  0.00     0.000 A 
ATOM      6  C   UNN dAMED      -0.525   1.861   4.485  0.00  0.00     0.000 A 
ATOM      7  C   UNN dAMED       0.612   1.486   5.194  0.00  0.00     0.000 A 
ATOM      8  C   UNN dAMED       1.700   0.935   4.523  0.00  0.00     0.000 A 
ATOM      9  C   UNN dAMED       1.658   0.766   3.141  0.00  0.00     0.000 A 
ENDBRANCH   2   4
BRANCH   2  10
ATOM     10  C   UNN dAMED      -1.341   0.297   0.037  0.00  0.00     0.000 A 
ATOM     11  C   UNN dAMED      -2.112   0.856  -0.970  0.00  0.00     0.003 A 
ATOM     12  C   UNN dAMED      -3.394   0.361  -1.220  0.00  0.00     0.042 A 
ATOM     13  C   UNN dAMED      -3.970  -0.698  -0.501  0.00  0.00     0.196 A 
ATOM     14  C   UNN dAMED      -3.144  -1.234   0.499  0.00  0.00     0.042 A 
ATOM     15  O   UNN dAMED      -5.144  -1.134  -0.736  0.00  0.00    -0.287 OA
ATOM     16  C   UNN dAMED      -1.858  -0.761   0.775  0.00  0.00     0.003 A 
ENDBRANCH   2  10
TORSDOF 2
