REMARK  4 active torsions:
REMARK  status: ('A' for Active; 'I' for Inactive)
REMARK    1  A    between atoms: C_3  and  O_24 
REMARK    2  A    between atoms: C_4  and  N_21 
REMARK    3  A    between atoms: C_6  and  O_22 
REMARK    4  A    between atoms: C_10  and  C_19 
REMARK       I    between atoms: C_19  and  N_21 
ROOT
ATOM      1  C   UNN dAMED      -0.317   0.156   0.526  0.00  0.00     0.282 C 
ATOM      2  O   UNN dAMED      -0.364  -0.014   1.741  0.00  0.00    -0.265 OA
ATOM      3  N   UNN dAMED       0.499  -0.435  -0.358  0.00  0.00    -0.206 NA
ENDROOT
BRANCH   1   4
ATOM      4  C   UNN dAMED      -1.344   1.035  -0.108  0.00  0.00     0.097 A 
ATOM      5  C   UNN dAMED      -2.204   0.398  -1.020  0.00  0.00     0.008 A 
ATOM      6  C   UNN dAMED      -3.141   1.131  -1.736  0.00  0.00     0.000 A 
ATOM      7  C   UNN dAMED      -3.245   2.511  -1.504  0.00  0.00     0.003 A 
ATOM      8  C   UNN dAMED      -3.958   0.521  -2.688  0.00  0.00     0.000 A 
ATOM      9  C   UNN dAMED      -4.177   3.264  -2.221  0.00  0.00     0.000 A 
ATOM     10  C   UNN dAMED      -2.400   3.110  -0.564  0.00  0.00     0.042 A 
ATOM     11  C   UNN dAMED      -4.992   2.649  -3.170  0.00  0.00     0.000 A 
ATOM     12  C   UNN dAMED      -4.880   1.281  -3.405  0.00  0.00     0.000 A 
ATOM     13  C   UNN dAMED      -1.410   2.426   0.172  0.00  0.00     0.200 A 
ATOM     14  O   UNN dAMED      -0.661   3.051   0.995  0.00  0.00    -0.286 OA
ENDBRANCH   1   4
BRANCH   3  15
ATOM     15  C   UNN dAMED       1.813  -0.209  -0.133  0.00  0.00     0.109 A 
ATOM     16  C   UNN dAMED       2.337   1.093  -0.124  0.00  0.00     0.046 A 
ATOM     17  C   UNN dAMED       3.692   1.333   0.089  0.00  0.00     0.106 A 
ATOM     18  C   UNN dAMED       4.576   0.280   0.276  0.00  0.00     0.082 A 
ATOM     19 CL   UNN dAMED       6.252   0.538   0.557  0.00  0.00    -0.080 Cl
ATOM     20  C   UNN dAMED       4.101  -1.023   0.230  0.00  0.00     0.039 A 
ATOM     21  C   UNN dAMED       2.740  -1.253   0.021  0.00  0.00     0.113 A 
BRANCH  17  22
ATOM     22  O   UNN dAMED       4.119   2.627   0.103  0.00  0.00    -0.327 OA
ATOM     23  C   UNN dAMED       4.423   2.922  -1.228  0.00  0.00     0.181 C 
ENDBRANCH  17  22
BRANCH  21  24
ATOM     24  O   UNN dAMED       2.350  -2.563  -0.060  0.00  0.00    -0.327 OA
ATOM     25  C   UNN dAMED       3.484  -3.245  -0.513  0.00  0.00     0.181 C 
ENDBRANCH  21  24
ENDBRANCH   3  15
TORSDOF 4
