REMARK  3 active torsions:
REMARK  status: ('A' for Active; 'I' for Inactive)
REMARK    1  A    between atoms: C_3  and  O_14 
REMARK    2  A    between atoms: C_5  and  O_7 
REMARK    3  A    between atoms: C_6  and  S_10 
ROOT
ATOM      1  C   UNN dAMED       2.168  -0.592   0.345  0.00  0.00     0.094 A 
ATOM      2  C   UNN dAMED       1.195  -1.512   0.734  0.00  0.00     0.041 A 
ATOM      3  C   UNN dAMED       1.783   0.628  -0.205  0.00  0.00     0.108 A 
ATOM      4  C   UNN dAMED       0.445   0.952  -0.385  0.00  0.00     0.040 A 
ATOM      5  C   UNN dAMED      -0.148  -1.197   0.564  0.00  0.00     0.107 A 
ATOM      6  C   UNN dAMED      -0.512   0.023   0.008  0.00  0.00     0.131 A 
ATOM      7  N   UNN dAMED       3.548  -0.913   0.476  0.00  0.00    -0.098 NA
ENDROOT
BRANCH   6   8
ATOM      8  S   UNN dAMED      -2.212   0.422  -0.203  0.00  0.00     0.304 S 
ATOM      9  O   UNN dAMED      -2.410   1.666   0.519  0.00  0.00    -0.197 OA
ATOM     10  O   UNN dAMED      -2.443   0.365  -1.635  0.00  0.00    -0.197 OA
ATOM     11  N   UNN dAMED      -3.149  -0.792   0.546  0.00  0.00    -0.043 N 
ENDBRANCH   6   8
BRANCH   5  12
ATOM     12  O   UNN dAMED      -1.084  -2.107   0.951  0.00  0.00    -0.327 OA
ATOM     13  C   UNN dAMED      -2.248  -1.746   0.269  0.00  0.00     0.181 C 
ENDBRANCH   5  12
BRANCH   3  14
ATOM     14  O   UNN dAMED       2.741   1.528  -0.564  0.00  0.00    -0.327 OA
ATOM     15  C   UNN dAMED       3.076   1.201  -1.880  0.00  0.00     0.181 C 
ENDBRANCH   3  14
TORSDOF 3
