REMARK  4 active torsions:
REMARK  status: ('A' for Active; 'I' for Inactive)
REMARK    1  A    between atoms: C_3  and  N_21 
REMARK    2  A    between atoms: C_4  and  O_22 
REMARK    3  A    between atoms: C_9  and  C_13 
REMARK       I    between atoms: N_18  and  C_19 
REMARK       I    between atoms: C_19  and  N_21 
REMARK    4  A    between atoms: O_22  and  C_23 
ROOT
ATOM      1  C   UNN dAMED      -2.039  -3.562  -2.238  0.00  0.00     0.021 A 
ATOM      2  C   UNN dAMED      -1.367  -3.272  -1.050  0.00  0.00     0.082 A 
ATOM      3  C   UNN dAMED      -3.354  -4.048  -2.236  0.00  0.00     0.033 A 
ATOM      4  C   UNN dAMED      -2.060  -3.517   0.137  0.00  0.00    -0.001 A 
ATOM      5  C   UNN dAMED      -4.083  -4.275  -1.057  0.00  0.00     0.195 A 
ATOM      6  C   UNN dAMED      -3.378  -3.990   0.122  0.00  0.00     0.039 A 
ATOM      7  O   UNN dAMED      -5.282  -4.706  -1.058  0.00  0.00    -0.287 OA
ATOM      8  C   UNN dAMED      -1.391  -3.243   1.454  0.00  0.00     0.033 C 
ATOM      9  N   UNN dAMED      -0.078  -2.867  -1.070  0.00  0.00    -0.191 NA
ATOM     10  C   UNN dAMED       0.110  -1.626  -0.562  0.00  0.00     0.369 C 
ATOM     11  O   UNN dAMED      -0.422  -0.600  -0.983  0.00  0.00    -0.242 OA
ATOM     12  N   UNN dAMED       0.958  -1.680   0.491  0.00  0.00    -0.191 NA
ENDROOT
BRANCH  12  13
ATOM     13  C   UNN dAMED       2.146  -1.082   0.249  0.00  0.00     0.086 A 
ATOM     14  C   UNN dAMED       2.426   0.193   0.763  0.00  0.00     0.021 A 
ATOM     15  C   UNN dAMED       3.678   0.789   0.599  0.00  0.00     0.026 A 
ATOM     16  C   UNN dAMED       4.671   0.096  -0.078  0.00  0.00     0.094 A 
ATOM     17  C   UNN dAMED       4.439  -1.172  -0.590  0.00  0.00     0.026 A 
ATOM     18  C   UNN dAMED       3.184  -1.754  -0.414  0.00  0.00     0.021 A 
BRANCH  16  19
ATOM     19  O   UNN dAMED       5.897   0.666  -0.241  0.00  0.00    -0.331 OA
BRANCH  19  20
ATOM     20  C   UNN dAMED       5.745   1.991   0.176  0.00  0.00     0.149 C 
ATOM     21  C   UNN dAMED       6.115   2.391   1.608  0.00  0.00     0.035 C 
ENDBRANCH  19  20
ENDBRANCH  16  19
ENDBRANCH  12  13
BRANCH   3  22
ATOM     22  C   UNN dAMED      -4.007  -4.366  -3.553  0.00  0.00    -0.040 C 
ATOM     23  C   UNN dAMED      -3.852  -3.402  -4.734  0.00  0.00     0.026 C 
ATOM     24  C   UNN dAMED      -4.662  -5.735  -3.770  0.00  0.00     0.026 C 
ENDBRANCH   3  22
TORSDOF 4
