REMARK  0 active torsions:
REMARK  status: ('A' for Active; 'I' for Inactive)
ROOT
ATOM      1 CL   UNN dAMED      -4.686  -0.925   0.116  0.00  0.00    -0.077 Cl
ATOM      2  C   UNN dAMED      -3.017  -0.519   0.063  0.00  0.00     0.115 A 
ATOM      3  C   UNN dAMED      -2.081  -1.475   0.244  0.00  0.00     0.093 A 
ATOM      4  C   UNN dAMED      -2.646   0.910  -0.189  0.00  0.00     0.212 A 
ATOM      5  O   UNN dAMED      -3.450   1.816  -0.359  0.00  0.00    -0.285 OA
ATOM      6  O   UNN dAMED      -0.701  -1.235   0.217  0.00  0.00    -0.293 OA
ATOM      7  C   UNN dAMED      -0.362   0.034  -0.007  0.00  0.00     0.188 A 
ATOM      8  C   UNN dAMED      -1.219   1.089  -0.208  0.00  0.00     0.096 A 
ATOM      9  C   UNN dAMED      -0.379   2.183  -0.400  0.00  0.00     0.086 A 
ATOM     10  N   UNN dAMED       0.925   0.532  -0.086  0.00  0.00    -0.208 N 
ATOM     11  N   UNN dAMED       0.919   1.874  -0.338  0.00  0.00    -0.168 NA
ATOM     12  C   UNN dAMED      -2.557  -2.881   0.488  0.00  0.00     0.059 C 
ATOM     13  C   UNN dAMED      -0.887   3.572  -0.656  0.00  0.00     0.054 C 
ATOM     14  C   UNN dAMED       2.141  -0.168   0.051  0.00  0.00     0.085 A 
ATOM     15  C   UNN dAMED       2.353  -1.329  -0.689  0.00  0.00     0.019 A 
ATOM     16  C   UNN dAMED       3.558  -2.020  -0.556  0.00  0.00     0.002 A 
ATOM     17  C   UNN dAMED       4.550  -1.545   0.301  0.00  0.00     0.000 A 
ATOM     18  C   UNN dAMED       4.336  -0.375   1.031  0.00  0.00     0.002 A 
ATOM     19  C   UNN dAMED       3.128   0.318   0.910  0.00  0.00     0.019 A 
ENDROOT
TORSDOF 0
