REMARK  5 active torsions:
REMARK  status: ('A' for Active; 'I' for Inactive)
REMARK    1  A    between atoms: C_3  and  N_7 
REMARK    2  A    between atoms: C_4  and  C_15 
REMARK       I    between atoms: N_7  and  C_8 
REMARK    3  A    between atoms: C_8  and  C_10 
REMARK    4  A    between atoms: C_10  and  S_11 
REMARK    5  A    between atoms: S_11  and  C_12 
ROOT
ATOM      1  C   UNN dAMED       0.688  -1.230   0.470  0.00  0.00     0.019 A 
ATOM      2  C   UNN dAMED       1.710  -2.143   0.718  0.00  0.00     0.002 A 
ATOM      3  C   UNN dAMED       0.940   0.086   0.042  0.00  0.00     0.090 A 
ATOM      4  C   UNN dAMED       2.289   0.452  -0.172  0.00  0.00     0.082 A 
ATOM      5  C   UNN dAMED       3.028  -1.766   0.514  0.00  0.00     0.000 A 
ATOM      6  C   UNN dAMED       3.312  -0.481   0.065  0.00  0.00     0.008 A 
ENDROOT
BRANCH   3   7
ATOM      7  N   UNN dAMED      -0.111   0.889  -0.234  0.00  0.00    -0.207 NA
ATOM      8  C   UNN dAMED      -0.564   1.601   0.805  0.00  0.00     0.286 C 
ATOM      9  O   UNN dAMED      -0.361   1.400   2.000  0.00  0.00    -0.265 OA
BRANCH   8  10
ATOM     10  C   UNN dAMED      -1.617   2.659   0.512  0.00  0.00     0.102 C 
BRANCH  10  11
ATOM     11  S   UNN dAMED      -1.964   3.355  -1.116  0.00  0.00    -0.025 SA
BRANCH  11  12
ATOM     12  C   UNN dAMED      -0.956   4.772  -0.901  0.00  0.00     0.297 C 
ATOM     13  O   UNN dAMED      -0.433   5.346  -1.845  0.00  0.00    -0.263 OA
ATOM     14  N   UNN dAMED      -0.744   5.269   0.416  0.00  0.00    -0.051 NA
ENDBRANCH  11  12
ENDBRANCH  10  11
ENDBRANCH   8  10
ENDBRANCH   3   7
BRANCH   4  15
ATOM     15  C   UNN dAMED       2.704   1.814  -0.648  0.00  0.00     0.212 C 
ATOM     16  O   UNN dAMED       3.631   2.383   0.008  0.00  0.00    -0.644 OA
ATOM     17  O   UNN dAMED       2.121   2.271  -1.678  0.00  0.00    -0.644 OA
ENDBRANCH   4  15
TORSDOF 5
