REMARK  3 active torsions:
REMARK  status: ('A' for Active; 'I' for Inactive)
REMARK    1  A    between atoms: C_12  and  C_15 
REMARK    2  A    between atoms: C_15  and  O_17 
REMARK    3  A    between atoms: O_17  and  C_18 
ROOT
ATOM      1  O   UNN dAMED      -4.123  -0.209   0.161  0.00  0.00    -0.246 OA
ATOM      2  N   UNN dAMED      -2.284   1.199  -0.003  0.00  0.00    -0.247 N 
ATOM      3  N   UNN dAMED      -1.991  -1.125   0.212  0.00  0.00    -0.296 N 
ATOM      4  H   UNN dAMED      -2.297  -2.087   0.310  0.00  0.00     0.171 HD
ATOM      5  O   UNN dAMED      -0.541   2.748  -0.044  0.00  0.00    -0.267 OA
ATOM      6  N   UNN dAMED       0.381  -1.687   0.285  0.00  0.00    -0.139 NA
ATOM      7  N   UNN dAMED       1.580  -1.115   0.079  0.00  0.00    -0.184 NA
ATOM      8  C   UNN dAMED      -2.903  -0.059   0.123  0.00  0.00     0.331 A 
ATOM      9  C   UNN dAMED      -0.652  -0.820   0.181  0.00  0.00     0.126 A 
ATOM     10  C   UNN dAMED      -0.098   0.432   0.069  0.00  0.00     0.109 A 
ATOM     11  C   UNN dAMED      -0.949   1.595  -0.004  0.00  0.00     0.268 A 
ATOM     12  C   UNN dAMED       1.295   0.198   0.013  0.00  0.00     0.165 C 
ATOM     13  C   UNN dAMED      -3.198   2.283   0.055  0.00  0.00     0.138 C 
ATOM     14  C   UNN dAMED       0.204  -2.738  -0.657  0.00  0.00     0.123 C 
ENDROOT
BRANCH  12  15
ATOM     15  C   UNN dAMED       2.352   1.159  -0.166  0.00  0.00     0.315 C 
ATOM     16  O   UNN dAMED       2.857   1.800   0.745  0.00  0.00    -0.257 OA
BRANCH  15  17
ATOM     17  O   UNN dAMED       2.712   1.278  -1.469  0.00  0.00    -0.297 OA
BRANCH  17  18
ATOM     18  C   UNN dAMED       1.903   0.363  -2.148  0.00  0.00     0.152 C 
ATOM     19  C   UNN dAMED       1.793   0.416  -3.675  0.00  0.00     0.035 C 
ENDBRANCH  17  18
ENDBRANCH  15  17
ENDBRANCH  12  15
TORSDOF 3
