REMARK  2 active torsions:
REMARK  status: ('A' for Active; 'I' for Inactive)
REMARK    1  A    between atoms: C_6  and  N_24 
REMARK    2  A    between atoms: C_16  and  C_27 
REMARK       I    between atoms: C_27  and  N_28 
ROOT
ATOM      1  C   UNN dAMED       1.975  -2.492   1.481  0.00  0.00     0.029 C 
ATOM      2  C   UNN dAMED       1.218  -0.412   0.262  0.00  0.00     0.178 C 
ATOM      3  C   UNN dAMED       1.075  -3.495  -0.576  0.00  0.00     0.026 C 
ATOM      4  C   UNN dAMED       0.728  -2.719   0.708  0.00  0.00     0.098 C 
ATOM      5  C   UNN dAMED      -0.080  -4.064  -1.402  0.00  0.00     0.002 C 
ATOM      6  C   UNN dAMED      -0.312  -3.518   1.507  0.00  0.00     0.026 C 
ATOM      7  C   UNN dAMED      -1.140  -4.797  -0.586  0.00  0.00     0.000 C 
ATOM      8  C   UNN dAMED      -1.495  -4.107   0.730  0.00  0.00     0.002 C 
ATOM      9  N   UNN dAMED       1.042   0.712  -0.359  0.00  0.00    -0.222 NA
ATOM     10  C   UNN dAMED      -1.034  -1.304  -0.230  0.00  0.00     0.269 C 
ATOM     11  N   UNN dAMED       0.231  -1.401   0.354  0.00  0.00    -0.275 N 
ATOM     12  S   UNN dAMED       2.671  -0.954   1.106  0.00  0.00    -0.053 SA
ATOM     13  O   UNN dAMED      -1.282  -1.699  -1.368  0.00  0.00    -0.266 OA
ATOM     14  C   UNN dAMED       2.755  -3.514   1.828  0.00  0.00     0.004 C 
ENDROOT
BRANCH  10  15
ATOM     15  C   UNN dAMED      -2.033  -0.713   0.636  0.00  0.00     0.096 A 
ATOM     16  C   UNN dAMED      -2.775  -1.296   1.640  0.00  0.00     0.069 A 
ATOM     17 CL   UNN dAMED      -2.653  -2.938   2.125  0.00  0.00    -0.082 Cl
ATOM     18  C   UNN dAMED      -3.696  -0.379   2.253  0.00  0.00     0.017 A 
ATOM     19  C   UNN dAMED      -3.615   0.886   1.666  0.00  0.00     0.030 A 
ATOM     20  C   UNN dAMED      -4.629  -0.558   3.301  0.00  0.00     0.001 A 
ATOM     21  C   UNN dAMED      -4.423   1.955   2.090  0.00  0.00     0.006 A 
ATOM     22  S   UNN dAMED      -2.441   0.926   0.412  0.00  0.00    -0.081 SA
ATOM     23  C   UNN dAMED      -5.330   1.740   3.127  0.00  0.00     0.001 A 
ATOM     24  C   UNN dAMED      -5.434   0.497   3.730  0.00  0.00     0.000 A 
ENDBRANCH  10  15
BRANCH   9  25
ATOM     25  C   UNN dAMED       2.108   1.623  -0.459  0.00  0.00     0.090 A 
ATOM     26  C   UNN dAMED       3.000   1.610  -1.542  0.00  0.00     0.075 A 
ATOM     27  C   UNN dAMED       4.050   2.524  -1.609  0.00  0.00     0.013 A 
ATOM     28 CL   UNN dAMED       2.851   0.468  -2.825  0.00  0.00    -0.081 Cl
ATOM     29  C   UNN dAMED       4.215   3.471  -0.602  0.00  0.00     0.001 A 
ATOM     30  C   UNN dAMED       3.323   3.510   0.465  0.00  0.00    -0.003 A 
ATOM     31  C   UNN dAMED       2.273   2.596   0.531  0.00  0.00    -0.003 A 
ATOM     32  C   UNN dAMED       1.327   2.634   1.696  0.00  0.00     0.033 C 
ENDBRANCH   9  25
TORSDOF 2
