REMARK  7 active torsions:
REMARK  status: ('A' for Active; 'I' for Inactive)
REMARK    1  A    between atoms: C_3  and  C_15 
REMARK    2  A    between atoms: C_5  and  C_12 
REMARK    3  A    between atoms: CA_6  and  C_7 
REMARK    4  A    between atoms: C_9  and  O_11 
REMARK    5  A    between atoms: O_11  and  C_12 
REMARK    6  A    between atoms: C_15  and  O_17 
REMARK    7  A    between atoms: O_17  and  C_18 
ROOT
ATOM      1  N   UNN dAMED       0.823  -0.671  -0.754  0.00  0.00    -0.351 N 
ATOM      2  H   UNN dAMED       1.444  -1.132  -1.404  0.00  0.00     0.166 HD
ATOM      3  C   UNN dAMED       1.224   0.003   0.380  0.00  0.00     0.117 A 
ATOM      4  C   UNN dAMED       0.069   0.491   0.949  0.00  0.00     0.005 A 
ATOM      5  C   UNN dAMED      -1.058   0.120   0.187  0.00  0.00     0.075 A 
ATOM      6  CA  UNN dAMED      -0.535  -0.581  -0.873  0.00  0.00     0.072 A 
ATOM      7  C   UNN dAMED       0.018   1.300   2.207  0.00  0.00     0.033 C 
ENDROOT
BRANCH   3   8
ATOM      8  C   UNN dAMED       2.586   0.156   0.796  0.00  0.00     0.311 C 
ATOM      9  O   UNN dAMED       3.485   0.683   0.154  0.00  0.00    -0.258 OA
BRANCH   8  10
ATOM     10  O   UNN dAMED       2.753  -0.369   2.037  0.00  0.00    -0.297 OA
BRANCH  10  11
ATOM     11  C   UNN dAMED       4.085  -0.100   2.364  0.00  0.00     0.152 C 
ATOM     12  C   UNN dAMED       4.690   1.269   2.038  0.00  0.00     0.035 C 
ENDBRANCH  10  11
ENDBRANCH   8  10
ENDBRANCH   3   8
BRANCH   6  13
ATOM     13  C   UNN dAMED      -1.332  -1.216  -1.982  0.00  0.00     0.226 C 
ATOM     14  O   UNN dAMED      -1.986  -0.459  -2.921  0.00  0.00    -0.214 OA
ENDBRANCH   6  13
BRANCH   5  15
ATOM     15  C   UNN dAMED      -2.440   0.447   0.417  0.00  0.00     0.297 C 
ATOM     16  O   UNN dAMED      -2.837   1.579   0.657  0.00  0.00    -0.259 OA
BRANCH  15  17
ATOM     17  O   UNN dAMED      -3.265  -0.632   0.354  0.00  0.00    -0.298 OA
BRANCH  17  18
ATOM     18  C   UNN dAMED      -2.485  -1.717   0.758  0.00  0.00     0.152 C 
ATOM     19  C   UNN dAMED      -1.933  -2.692  -0.285  0.00  0.00     0.035 C 
ENDBRANCH  17  18
ENDBRANCH  15  17
ENDBRANCH   5  15
TORSDOF 7
