REMARK  1 active torsions:
REMARK  status: ('A' for Active; 'I' for Inactive)
REMARK    1  A    between atoms: C_21  and  O_23 
ROOT
ATOM      1  N   UNN dAMED       0.362   1.294  -0.992  0.00  0.00    -0.251 NA
ATOM      2  O   UNN dAMED      -4.856  -1.921  -0.115  0.00  0.00    -0.300 OA
ATOM      3  O   UNN dAMED      -5.887   0.091   0.358  0.00  0.00    -0.300 OA
ATOM      4  C   UNN dAMED      -6.011  -1.251   0.155  0.00  0.00     0.304 A 
ATOM      5  C   UNN dAMED      -3.922  -0.927  -0.080  0.00  0.00     0.119 A 
ATOM      6  C   UNN dAMED      -4.546   0.290   0.207  0.00  0.00     0.119 A 
ATOM      7  C   UNN dAMED      -2.555  -1.063  -0.295  0.00  0.00     0.027 A 
ATOM      8  C   UNN dAMED      -3.868   1.499   0.312  0.00  0.00     0.022 A 
ATOM      9  C   UNN dAMED      -1.844   0.148  -0.199  0.00  0.00     0.005 A 
ATOM     10  C   UNN dAMED      -2.482   1.378   0.105  0.00  0.00    -0.018 A 
ATOM     11  C   UNN dAMED      -0.339   0.137  -0.370  0.00  0.00     0.018 C 
ATOM     12  C   UNN dAMED       0.389  -1.215  -0.317  0.00  0.00     0.064 C 
ATOM     13  C   UNN dAMED       1.873  -1.179  -0.117  0.00  0.00    -0.017 A 
ATOM     14  C   UNN dAMED       2.632  -2.323   0.042  0.00  0.00    -0.001 A 
ATOM     15  C   UNN dAMED       4.011  -2.193   0.237  0.00  0.00     0.044 A 
ATOM     16  C   UNN dAMED      -1.597   2.586   0.102  0.00  0.00     0.044 C 
ATOM     17  C   UNN dAMED       2.479   0.069  -0.107  0.00  0.00     0.016 A 
ATOM     18  C   UNN dAMED       4.694  -0.960   0.284  0.00  0.00     0.217 A 
ATOM     19  C   UNN dAMED      -0.097   2.304  -0.007  0.00  0.00     0.081 C 
ATOM     20  C   UNN dAMED       1.615   1.302  -0.193  0.00  0.00     0.105 C 
ATOM     21  C   UNN dAMED       3.855   0.161   0.105  0.00  0.00     0.130 A 
ATOM     22  O   UNN dAMED       5.954  -0.901   0.475  0.00  0.00    -0.284 OA
ENDROOT
BRANCH  21  23
ATOM     23  O   UNN dAMED       4.384   1.428   0.132  0.00  0.00    -0.325 OA
ATOM     24  C   UNN dAMED       5.768   1.241   0.156  0.00  0.00     0.181 C 
ENDBRANCH  21  23
TORSDOF 1
