REMARK  0 active torsions:
REMARK  status: ('A' for Active; 'I' for Inactive)
ROOT
ATOM      1  C   UNN dAMED      -2.938   2.040  -0.258  0.00  0.00     0.000 A 
ATOM      2  C   UNN dAMED      -3.855   0.978  -0.218  0.00  0.00     0.000 A 
ATOM      3  C   UNN dAMED      -1.560   1.805  -0.250  0.00  0.00     0.001 A 
ATOM      4  C   UNN dAMED      -3.418  -0.344  -0.174  0.00  0.00     0.004 A 
ATOM      5  C   UNN dAMED      -1.111   0.500  -0.206  0.00  0.00     0.015 A 
ATOM      6  C   UNN dAMED      -2.051  -0.543  -0.176  0.00  0.00     0.052 A 
ATOM      7  C   UNN dAMED      -1.326  -1.821  -0.137  0.00  0.00     0.240 C 
ATOM      8  O   UNN dAMED      -1.808  -2.924   0.025  0.00  0.00    -0.273 OA
ATOM      9  C   UNN dAMED       0.225  -0.105  -0.169  0.00  0.00     0.049 C 
ATOM     10  N   UNN dAMED      -0.012  -1.464  -0.280  0.00  0.00    -0.198 NA
ATOM     11  C   UNN dAMED       1.444   0.428  -0.007  0.00  0.00     0.085 A 
ATOM     12  C   UNN dAMED       0.882  -2.255   0.481  0.00  0.00     0.091 C 
ATOM     13  C   UNN dAMED       2.111   1.723   0.165  0.00  0.00     0.299 A 
ATOM     14  C   UNN dAMED       2.359  -1.933   0.312  0.00  0.00     0.066 C 
ATOM     15  C   UNN dAMED       2.588  -0.479   0.109  0.00  0.00     0.088 A 
ATOM     16  N   UNN dAMED       3.711   0.139   0.328  0.00  0.00    -0.149 NA
ATOM     17  N   UNN dAMED       3.402   1.558   0.346  0.00  0.00    -0.106 NA
ATOM     18  O   UNN dAMED       1.355   2.696   0.108  0.00  0.00    -0.264 OA
ENDROOT
TORSDOF 0
