REMARK  0 active torsions:
REMARK  status: ('A' for Active; 'I' for Inactive)
ROOT
ATOM      1  N   UNN dAMED       1.524   0.971  -0.000  0.00  0.00    -0.250 NA
ATOM      2  C   UNN dAMED      -0.620   1.897  -0.000  0.00  0.00    -0.004 A 
ATOM      3  C   UNN dAMED       0.198   0.779  -0.000  0.00  0.00     0.080 A 
ATOM      4  C   UNN dAMED      -2.011   1.791  -0.000  0.00  0.00    -0.003 A 
ATOM      5  C   UNN dAMED      -0.405  -0.507  -0.000  0.00  0.00     0.052 A 
ATOM      6  C   UNN dAMED      -2.612   0.540  -0.000  0.00  0.00    -0.004 A 
ATOM      7  C   UNN dAMED       0.382  -1.688   0.000  0.00  0.00     0.198 A 
ATOM      8  C   UNN dAMED       2.281  -0.148   0.000  0.00  0.00     0.063 A 
ATOM      9  C   UNN dAMED       1.760  -1.440   0.000  0.00  0.00     0.057 A 
ATOM     10  C   UNN dAMED      -1.807  -0.592   0.000  0.00  0.00    -0.017 A 
ATOM     11  C   UNN dAMED       0.021   3.251  -0.000  0.00  0.00     0.033 C 
ATOM     12  C   UNN dAMED      -2.403  -1.971   0.000  0.00  0.00     0.031 C 
ATOM     13  O   UNN dAMED      -0.082  -2.881   0.000  0.00  0.00    -0.286 OA
ATOM     14  C   UNN dAMED       3.775  -0.002   0.000  0.00  0.00     0.052 C 
ENDROOT
TORSDOF 0
