REMARK  4 active torsions:
REMARK  status: ('A' for Active; 'I' for Inactive)
REMARK       I    between atoms: N_1  and  C_22 
REMARK       I    between atoms: N_2  and  C_24 
REMARK    1  A    between atoms: C_5  and  N_26 
REMARK    2  A    between atoms: C_6  and  O_27 
REMARK    3  A    between atoms: C_15  and  N_21 
REMARK    4  A    between atoms: C_17  and  O_19 
REMARK       I    between atoms: N_21  and  C_22 
REMARK       I    between atoms: C_24  and  N_26 
ROOT
ATOM      1  N   UNN dAMED      -1.694  -0.226  -0.314  0.00  0.00    -0.201 NA
ATOM      2  N   UNN dAMED       1.428  -0.855  -0.247  0.00  0.00    -0.201 NA
ATOM      3  C   UNN dAMED       0.365  -1.650  -0.778  0.00  0.00     0.099 C 
ATOM      4  C   UNN dAMED      -0.902  -0.956  -1.260  0.00  0.00     0.099 C 
ATOM      5  C   UNN dAMED       0.662  -0.054   0.671  0.00  0.00     0.099 C 
ATOM      6  C   UNN dAMED      -0.630   0.614   0.168  0.00  0.00     0.099 C 
ATOM      7  N   UNN dAMED      -2.758  -0.009  -2.286  0.00  0.00    -0.198 NA
ATOM      8  C   UNN dAMED      -2.564   0.544  -1.076  0.00  0.00     0.325 C 
ATOM      9  O   UNN dAMED      -3.002   1.623  -0.683  0.00  0.00    -0.251 OA
ATOM     10  C   UNN dAMED       2.226  -1.728   0.486  0.00  0.00     0.325 C 
ATOM     11  O   UNN dAMED       3.445  -1.555   0.533  0.00  0.00    -0.251 OA
ATOM     12  N   UNN dAMED       1.472  -2.683   1.064  0.00  0.00    -0.198 NA
ENDROOT
BRANCH   7  13
ATOM     13  C   UNN dAMED      -3.890  -0.740  -2.436  0.00  0.00     0.086 A 
ATOM     14  C   UNN dAMED      -4.673  -1.242  -1.383  0.00  0.00     0.021 A 
ATOM     15  C   UNN dAMED      -5.848  -1.964  -1.607  0.00  0.00     0.026 A 
ATOM     16  C   UNN dAMED      -6.247  -2.217  -2.910  0.00  0.00     0.094 A 
ATOM     17  C   UNN dAMED      -5.483  -1.786  -3.983  0.00  0.00     0.026 A 
ATOM     18  C   UNN dAMED      -4.315  -1.061  -3.735  0.00  0.00     0.021 A 
BRANCH  16  19
ATOM     19  O   UNN dAMED      -7.433  -2.849  -3.138  0.00  0.00    -0.328 OA
ATOM     20  C   UNN dAMED      -7.097  -4.161  -3.481  0.00  0.00     0.181 C 
ENDBRANCH  16  19
ENDBRANCH   7  13
BRANCH  12  21
ATOM     21  C   UNN dAMED       2.079  -3.779   1.580  0.00  0.00     0.086 A 
ATOM     22  C   UNN dAMED       3.418  -3.839   2.000  0.00  0.00     0.021 A 
ATOM     23  C   UNN dAMED       3.964  -4.955   2.633  0.00  0.00     0.026 A 
ATOM     24  C   UNN dAMED       3.149  -6.044   2.885  0.00  0.00     0.094 A 
ATOM     25  C   UNN dAMED       1.819  -6.043   2.495  0.00  0.00     0.026 A 
ATOM     26  C   UNN dAMED       1.301  -4.917   1.848  0.00  0.00     0.021 A 
BRANCH  24  27
ATOM     27  O   UNN dAMED       3.656  -7.114   3.557  0.00  0.00    -0.328 OA
ATOM     28  C   UNN dAMED       3.354  -6.877   4.901  0.00  0.00     0.181 C 
ENDBRANCH  24  27
ENDBRANCH  12  21
TORSDOF 4
