REMARK  2 active torsions:
REMARK  status: ('A' for Active; 'I' for Inactive)
REMARK    1  A    between atoms: C_4  and  C_13 
REMARK    2  A    between atoms: C_9  and  C_13 
ROOT
ATOM      1  C   UNN dAMED       0.138   0.287  -0.773  0.00  0.00     0.211 C 
ATOM      2  O   UNN dAMED      -0.354   1.361  -1.107  0.00  0.00    -0.285 OA
ENDROOT
BRANCH   1   3
ATOM      3  C   UNN dAMED      -0.505  -0.952  -1.241  0.00  0.00     0.040 A 
ATOM      4  C   UNN dAMED      -0.883  -1.933  -0.327  0.00  0.00     0.003 A 
ATOM      5  C   UNN dAMED      -1.533  -3.079  -0.776  0.00  0.00     0.000 A 
ATOM      6  C   UNN dAMED      -1.833  -3.228  -2.129  0.00  0.00     0.000 A 
ATOM      7  C   UNN dAMED      -1.485  -2.227  -3.033  0.00  0.00     0.000 A 
ATOM      8  C   UNN dAMED      -0.815  -1.087  -2.594  0.00  0.00     0.003 A 
ENDBRANCH   1   3
BRANCH   1   9
ATOM      9  C   UNN dAMED       1.331   0.175   0.028  0.00  0.00     0.096 A 
ATOM     10  N   UNN dAMED       2.584   0.534  -0.411  0.00  0.00    -0.350 N 
ATOM     11  H   UNN dAMED       2.791   0.889  -1.333  0.00  0.00     0.166 HD
ATOM     12  C   UNN dAMED       3.498   0.388   0.598  0.00  0.00     0.073 A 
ATOM     13  C   UNN dAMED       2.830  -0.067   1.710  0.00  0.00     0.020 A 
ATOM     14  C   UNN dAMED       1.465  -0.183   1.356  0.00  0.00     0.022 A 
ENDBRANCH   1   9
TORSDOF 2
