REMARK  3 active torsions:
REMARK  status: ('A' for Active; 'I' for Inactive)
REMARK    1  A    between atoms: C_6  and  C_7 
REMARK       I    between atoms: C_7  and  N_23 
REMARK    2  A    between atoms: C_9  and  N_23 
REMARK    3  A    between atoms: C_16  and  C_17 
REMARK       I    between atoms: C_16  and  N_25 
ROOT
ATOM      1  C   UNN dAMED      -2.311   2.284  -0.110  0.00  0.00     0.088 A 
ATOM      2  C   UNN dAMED      -1.436   2.780   0.869  0.00  0.00     0.063 A 
ATOM      3  C   UNN dAMED      -3.050   3.226  -0.811  0.00  0.00     0.021 A 
ATOM      4  C   UNN dAMED      -2.919   4.582  -0.528  0.00  0.00     0.024 A 
ATOM      5  C   UNN dAMED      -1.258   4.143   1.215  0.00  0.00     0.215 A 
ATOM      6  C   UNN dAMED      -2.025   5.070   0.445  0.00  0.00     0.124 A 
ATOM      7  O   UNN dAMED      -0.972   6.862  -1.359  0.00  0.00    -0.263 OA
ATOM      8  C   UNN dAMED      -1.193   7.088  -0.171  0.00  0.00     0.302 C 
ATOM      9  O   UNN dAMED      -0.459   4.467   2.160  0.00  0.00    -0.285 OA
ATOM     10  N   UNN dAMED      -1.999   6.413   0.659  0.00  0.00    -0.203 NA
ENDROOT
BRANCH   1  11
ATOM     11  N   UNN dAMED      -2.338   0.980  -0.463  0.00  0.00    -0.208 NA
ATOM     12  C   UNN dAMED      -3.073   0.219   0.355  0.00  0.00     0.279 C 
ATOM     13  O   UNN dAMED      -2.681  -0.320   1.388  0.00  0.00    -0.265 OA
BRANCH  12  14
ATOM     14  C   UNN dAMED      -4.453  -0.090  -0.102  0.00  0.00     0.058 A 
ATOM     15  C   UNN dAMED      -5.401  -0.464   0.852  0.00  0.00     0.006 A 
ATOM     16  C   UNN dAMED      -6.699  -0.777   0.456  0.00  0.00     0.014 A 
ATOM     17  C   UNN dAMED      -7.051  -0.706  -0.891  0.00  0.00     0.070 A 
ATOM     18  C   UNN dAMED      -6.109  -0.326  -1.844  0.00  0.00     0.014 A 
ATOM     19  N   UNN dAMED      -8.398  -0.944  -1.283  0.00  0.00    -0.101 NA
ATOM     20  C   UNN dAMED      -4.806  -0.031  -1.452  0.00  0.00     0.006 A 
ENDBRANCH  12  14
ENDBRANCH   1  11
BRANCH   8  21
ATOM     21  C   UNN dAMED      -0.641   8.244   0.494  0.00  0.00     0.158 A 
ATOM     22  C   UNN dAMED      -1.099   9.062   1.509  0.00  0.00     0.032 A 
ATOM     23  C   UNN dAMED      -0.141  10.088   1.666  0.00  0.00     0.029 A 
ATOM     24  C   UNN dAMED       0.839   9.853   0.728  0.00  0.00     0.123 A 
ATOM     25  O   UNN dAMED       0.540   8.734   0.011  0.00  0.00    -0.300 OA
ENDBRANCH   8  21
TORSDOF 3
