REMARK  4 active torsions:
REMARK  status: ('A' for Active; 'I' for Inactive)
REMARK    1  A    between atoms: C_4  and  C_15 
REMARK    2  A    between atoms: C_9  and  C_18 
REMARK    3  A    between atoms: C_11  and  N_19 
REMARK    4  A    between atoms: C_15  and  C_17 
ROOT
ATOM      1  C   UNN dAMED      -1.573  -2.317  -1.306  0.00  0.00     0.042 C 
ATOM      2  C   UNN dAMED      -0.384  -2.416  -1.897  0.00  0.00     0.003 C 
ENDROOT
BRANCH   1   3
ATOM      3  C   UNN dAMED      -1.739  -1.477  -0.073  0.00  0.00     0.199 C 
ATOM      4  O   UNN dAMED      -1.010  -1.673   0.887  0.00  0.00    -0.286 OA
BRANCH   3   5
ATOM      5  C   UNN dAMED      -2.880  -0.545  -0.034  0.00  0.00     0.079 A 
ATOM      6  C   UNN dAMED      -3.894  -0.661  -1.015  0.00  0.00     0.199 A 
ATOM      7  C   UNN dAMED      -4.916   0.298  -0.886  0.00  0.00     0.043 A 
ATOM      8  O   UNN dAMED      -3.919  -1.535  -1.945  0.00  0.00    -0.286 OA
ATOM      9  C   UNN dAMED      -4.948   1.282   0.106  0.00  0.00     0.015 A 
ATOM     10  C   UNN dAMED      -3.919   1.341   1.031  0.00  0.00     0.058 A 
ATOM     11 CL   UNN dAMED      -3.937   2.540   2.255  0.00  0.00    -0.082 Cl
ATOM     12  C   UNN dAMED      -2.875   0.433   0.969  0.00  0.00     0.018 A 
ENDBRANCH   3   5
ENDBRANCH   1   3
BRANCH   2  13
ATOM     13  C   UNN dAMED      -0.323  -2.749  -3.359  0.00  0.00     0.000 A 
ATOM     14  C   UNN dAMED      -0.585  -1.752  -4.294  0.00  0.00     0.002 A 
ATOM     15  C   UNN dAMED      -0.599  -2.059  -5.652  0.00  0.00     0.017 A 
ATOM     16  C   UNN dAMED      -0.354  -3.364  -6.078  0.00  0.00     0.056 A 
ATOM     17  C   UNN dAMED      -0.099  -4.361  -5.135  0.00  0.00     0.017 A 
ATOM     18  C   UNN dAMED      -0.086  -4.056  -3.775  0.00  0.00     0.002 A 
BRANCH  16  19
ATOM     19  N   UNN dAMED      -0.367  -3.672  -7.450  0.00  0.00    -0.344 N 
ATOM     20  C   UNN dAMED      -1.590  -3.501  -8.217  0.00  0.00     0.126 C 
ATOM     21  C   UNN dAMED       0.851  -3.539  -8.234  0.00  0.00     0.126 C 
ENDBRANCH  16  19
ENDBRANCH   2  13
TORSDOF 4
