REMARK  0 active torsions:
REMARK  status: ('A' for Active; 'I' for Inactive)
ROOT
ATOM      1  C   UNN dAMED       0.730  -0.124   0.262  0.00  0.00     0.033 A 
ATOM      2  C   UNN dAMED      -0.044   1.169   0.114  0.00  0.00     0.141 A 
ATOM      3  S   UNN dAMED      -0.366  -1.530   0.198  0.00  0.00    -0.053 SA
ATOM      4  N   UNN dAMED      -1.462   0.896   0.122  0.00  0.00    -0.302 N 
ATOM      5  C   UNN dAMED      -1.792  -0.456   0.150  0.00  0.00     0.178 A 
ATOM      6  C   UNN dAMED      -2.561   1.823   0.056  0.00  0.00     0.083 A 
ATOM      7  N   UNN dAMED      -2.960  -1.013   0.149  0.00  0.00    -0.184 NA
ATOM      8  C   UNN dAMED      -3.798   1.328   0.064  0.00  0.00     0.081 A 
ATOM      9  C   UNN dAMED      -4.039  -0.163   0.124  0.00  0.00     0.282 A 
ATOM     10  O   UNN dAMED      -5.206  -0.534   0.156  0.00  0.00    -0.265 OA
ATOM     11  C   UNN dAMED       2.212  -0.219   0.016  0.00  0.00     0.004 A 
ATOM     12  C   UNN dAMED       3.091  -0.284   1.096  0.00  0.00     0.000 A 
ATOM     13  C   UNN dAMED       4.465  -0.327   0.873  0.00  0.00     0.000 A 
ATOM     14  C   UNN dAMED       4.960  -0.297  -0.429  0.00  0.00     0.000 A 
ATOM     15  C   UNN dAMED       4.083  -0.226  -1.508  0.00  0.00     0.000 A 
ATOM     16  C   UNN dAMED       2.709  -0.184  -1.286  0.00  0.00     0.000 A 
ENDROOT
TORSDOF 0
