REMARK  3 active torsions:
REMARK  status: ('A' for Active; 'I' for Inactive)
REMARK    1  A    between atoms: C_5  and  O_7 
REMARK    2  A    between atoms: O_7  and  C_8 
REMARK    3  A    between atoms: C_8  and  C_10 
ROOT
ATOM      1  C   UNN dAMED      -0.242  -0.332  -0.955  0.00  0.00     0.300 C 
ATOM      2  O   UNN dAMED       0.157  -0.720  -2.041  0.00  0.00    -0.259 OA
ENDROOT
BRANCH   1   3
ATOM      3  O   UNN dAMED       0.503   0.194   0.085  0.00  0.00    -0.268 OA
BRANCH   3   4
ATOM      4  C   UNN dAMED       1.893   0.146  -0.111  0.00  0.00     0.161 A 
ATOM      5  C   UNN dAMED       2.494   1.305  -0.604  0.00  0.00     0.031 A 
ATOM      6  C   UNN dAMED       3.869   1.354  -0.721  0.00  0.00     0.023 A 
ATOM      7  C   UNN dAMED       4.572   0.236  -0.320  0.00  0.00     0.102 A 
ATOM      8  N   UNN dAMED       4.001  -0.890   0.180  0.00  0.00    -0.205 NA
ATOM      9  C   UNN dAMED       2.648  -0.961   0.309  0.00  0.00     0.302 A 
ATOM     10  O   UNN dAMED       2.171  -2.030   0.815  0.00  0.00    -0.263 OA
ENDBRANCH   3   4
ENDBRANCH   1   3
BRANCH   1  11
ATOM     11  C   UNN dAMED      -1.663  -0.314  -0.560  0.00  0.00     0.064 A 
ATOM     12  C   UNN dAMED      -2.638  -0.339  -1.557  0.00  0.00     0.005 A 
ATOM     13  C   UNN dAMED      -3.987  -0.307  -1.208  0.00  0.00     0.001 A 
ATOM     14  C   UNN dAMED      -4.362  -0.235   0.133  0.00  0.00     0.011 A 
ATOM     15  C   UNN dAMED      -3.382  -0.210   1.120  0.00  0.00     0.058 A 
ATOM     16  C   UNN dAMED      -2.034  -0.260   0.783  0.00  0.00     0.017 A 
ATOM     17 CL   UNN dAMED      -3.836  -0.085   2.770  0.00  0.00    -0.082 Cl
ENDBRANCH   1  11
TORSDOF 3
