REMARK  4 active torsions:
REMARK  status: ('A' for Active; 'I' for Inactive)
REMARK    1  A    between atoms: C_3  and  N_15 
REMARK    2  A    between atoms: C_6  and  N_12 
REMARK    3  A    between atoms: C_11  and  C_19 
REMARK       I    between atoms: N_15  and  C_16 
REMARK       I    between atoms: C_16  and  N_18 
REMARK    4  A    between atoms: N_18  and  C_19 
ROOT
ATOM      1  N   UNN dAMED       0.948   2.169  -2.179  0.00  0.00    -0.191 NA
ATOM      2  C   UNN dAMED       1.622   1.796  -1.067  0.00  0.00     0.365 C 
ATOM      3  O   UNN dAMED       1.758   2.451  -0.036  0.00  0.00    -0.243 OA
ATOM      4  N   UNN dAMED       2.030   0.521  -1.187  0.00  0.00    -0.210 NA
ENDROOT
BRANCH   1   5
ATOM      5  C   UNN dAMED       1.187   3.435  -2.601  0.00  0.00     0.086 A 
ATOM      6  C   UNN dAMED       1.714   3.676  -3.884  0.00  0.00     0.021 A 
ATOM      7  C   UNN dAMED       1.849   4.971  -4.400  0.00  0.00     0.025 A 
ATOM      8  C   UNN dAMED       1.423   6.040  -3.619  0.00  0.00     0.127 A 
ATOM      9  C   UNN dAMED       0.870   5.857  -2.359  0.00  0.00     0.025 A 
ATOM     10  C   UNN dAMED       0.748   4.555  -1.873  0.00  0.00     0.021 A 
BRANCH   8  11
ATOM     11  N   UNN dAMED       1.549   7.386  -4.119  0.00  0.00    -0.114 N 
ATOM     12  O   UNN dAMED       1.041   7.631  -5.221  0.00  0.00    -0.532 OA
ATOM     13  O   UNN dAMED       2.135   8.203  -3.395  0.00  0.00    -0.532 OA
ENDBRANCH   8  11
ENDBRANCH   1   5
BRANCH   4  14
ATOM     14  C   UNN dAMED       2.678  -0.148  -0.064  0.00  0.00     0.181 C 
BRANCH  14  15
ATOM     15  C   UNN dAMED       4.141  -0.500  -0.112  0.00  0.00     0.102 A 
ATOM     16  O   UNN dAMED       4.579  -1.781  -0.206  0.00  0.00    -0.307 OA
ATOM     17  C   UNN dAMED       5.884  -1.776   0.192  0.00  0.00     0.122 A 
ATOM     18  C   UNN dAMED       6.255  -0.506   0.579  0.00  0.00     0.029 A 
ATOM     19  C   UNN dAMED       5.117   0.317   0.407  0.00  0.00     0.024 A 
ENDBRANCH  14  15
ENDBRANCH   4  14
TORSDOF 4
