REMARK  1 active torsions:
REMARK  status: ('A' for Active; 'I' for Inactive)
REMARK    1  A    between atoms: N_18  and  N_19 
ROOT
ATOM      1  H   UNN dAMED      -0.644  -1.288   0.490  0.00  0.00     0.167 HD
ATOM      2  N   UNN dAMED      -1.086  -0.413   0.230  0.00  0.00    -0.337 N 
ATOM      3  C   UNN dAMED      -3.207  -1.591   0.305  0.00  0.00     0.017 A 
ATOM      4  C   UNN dAMED      -4.593  -1.603   0.158  0.00  0.00     0.002 A 
ATOM      5  C   UNN dAMED      -2.477  -0.423   0.076  0.00  0.00     0.058 A 
ATOM      6  C   UNN dAMED      -3.167   0.733  -0.299  0.00  0.00     0.016 A 
ATOM      7  C   UNN dAMED      -5.264  -0.443  -0.220  0.00  0.00     0.000 A 
ATOM      8  C   UNN dAMED      -2.374   1.985  -0.531  0.00  0.00     0.005 A 
ATOM      9  C   UNN dAMED      -0.313   0.708   0.018  0.00  0.00     0.162 A 
ATOM     10  C   UNN dAMED      -1.049   1.969  -0.376  0.00  0.00     0.039 A 
ATOM     11  C   UNN dAMED      -4.551   0.730  -0.449  0.00  0.00     0.001 A 
ATOM     12  N   UNN dAMED       0.977   0.820   0.115  0.00  0.00    -0.131 NA
ENDROOT
BRANCH  12  13
ATOM     13  N   UNN dAMED       1.583  -0.375   0.477  0.00  0.00    -0.155 NA
ATOM     14  C   UNN dAMED       2.850  -0.169   0.604  0.00  0.00     0.058 C 
ATOM     15  C   UNN dAMED       3.817  -1.330   0.650  0.00  0.00     0.043 C 
ATOM     16  C   UNN dAMED       3.484   1.085   0.047  0.00  0.00     0.043 C 
ATOM     17  C   UNN dAMED       5.258  -1.044   1.088  0.00  0.00     0.006 C 
ATOM     18  C   UNN dAMED       5.874   0.223   0.504  0.00  0.00     0.001 C 
ATOM     19  C   UNN dAMED       4.918   1.412   0.475  0.00  0.00     0.006 C 
ENDBRANCH  12  13
TORSDOF 1
