REMARK  2 active torsions:
REMARK  status: ('A' for Active; 'I' for Inactive)
REMARK    1  A    between atoms: C_7  and  N_24 
REMARK    2  A    between atoms: C_15  and  N_21 
REMARK       I    between atoms: N_21  and  C_22 
REMARK       I    between atoms: C_22  and  N_24 
ROOT
ATOM      1  N   UNN dAMED      -0.983   0.824   0.323  0.00  0.00    -0.191 NA
ATOM      2  C   UNN dAMED      -0.227   1.164  -0.749  0.00  0.00     0.369 C 
ATOM      3  O   UNN dAMED      -0.480   0.935  -1.930  0.00  0.00    -0.242 OA
ATOM      4  N   UNN dAMED       0.856   1.866  -0.342  0.00  0.00    -0.191 NA
ENDROOT
BRANCH   1   5
ATOM      5  C   UNN dAMED      -2.215   0.352   0.039  0.00  0.00     0.086 A 
ATOM      6  C   UNN dAMED      -2.420  -0.950  -0.429  0.00  0.00     0.021 A 
ATOM      7  C   UNN dAMED      -3.706  -1.469  -0.601  0.00  0.00     0.021 A 
ATOM      8  C   UNN dAMED      -4.833  -0.731  -0.275  0.00  0.00     0.082 A 
ATOM      9  N   UNN dAMED      -6.063  -1.258  -0.413  0.00  0.00    -0.244 NA
ATOM     10  C   UNN dAMED      -4.636   0.571   0.216  0.00  0.00     0.019 A 
ATOM     11  C   UNN dAMED      -7.121  -0.495  -0.049  0.00  0.00     0.099 A 
ATOM     12  C   UNN dAMED      -7.020   0.790   0.452  0.00  0.00     0.021 A 
ATOM     13  C   UNN dAMED      -5.748   1.324   0.580  0.00  0.00     0.003 A 
ATOM     14  C   UNN dAMED      -3.350   1.098   0.363  0.00  0.00     0.021 A 
ENDBRANCH   1   5
BRANCH   4  15
ATOM     15  C   UNN dAMED       1.936   1.086  -0.104  0.00  0.00     0.086 A 
ATOM     16  C   UNN dAMED       2.312   0.771   1.205  0.00  0.00     0.021 A 
ATOM     17  C   UNN dAMED       3.464   0.029   1.478  0.00  0.00     0.021 A 
ATOM     18  C   UNN dAMED       4.296  -0.411   0.462  0.00  0.00     0.082 A 
ATOM     19  N   UNN dAMED       5.409  -1.112   0.745  0.00  0.00    -0.244 NA
ATOM     20  C   UNN dAMED       3.935  -0.091  -0.858  0.00  0.00     0.019 A 
ATOM     21  C   UNN dAMED       6.186  -1.507  -0.291  0.00  0.00     0.099 A 
ATOM     22  C   UNN dAMED       5.910  -1.238  -1.619  0.00  0.00     0.021 A 
ATOM     23  C   UNN dAMED       4.759  -0.516  -1.896  0.00  0.00     0.003 A 
ATOM     24  C   UNN dAMED       2.780   0.650  -1.130  0.00  0.00     0.021 A 
ENDBRANCH   4  15
TORSDOF 2
