REMARK  0 active torsions:
REMARK  status: ('A' for Active; 'I' for Inactive)
ROOT
ATOM      1  N   UNN dAMED       1.295   2.382   0.009  0.00  0.00    -0.224 NA
ATOM      2  C   UNN dAMED       0.216   3.130   0.002  0.00  0.00     0.175 A 
ATOM      3  N   UNN dAMED      -0.919   2.369  -0.009  0.00  0.00    -0.335 N 
ATOM      4  H   UNN dAMED      -1.865   2.725  -0.036  0.00  0.00     0.168 HD
ATOM      5  C   UNN dAMED       0.832   1.086  -0.003  0.00  0.00     0.099 A 
ATOM      6  C   UNN dAMED      -0.556   1.039   0.004  0.00  0.00     0.076 A 
ATOM      7  C   UNN dAMED       1.902  -0.827   1.119  0.00  0.00     0.002 A 
ATOM      8  C   UNN dAMED      -1.535  -0.039   0.035  0.00  0.00     0.017 A 
ATOM      9  C   UNN dAMED       1.737  -0.035  -0.017  0.00  0.00     0.019 A 
ATOM     10  C   UNN dAMED       2.818  -1.877   1.113  0.00  0.00     0.000 A 
ATOM     11  C   UNN dAMED      -2.686   0.021  -0.756  0.00  0.00     0.002 A 
ATOM     12  C   UNN dAMED       2.526  -0.268  -1.144  0.00  0.00     0.002 A 
ATOM     13  C   UNN dAMED      -3.652  -0.981  -0.683  0.00  0.00     0.000 A 
ATOM     14  C   UNN dAMED      -1.376  -1.118   0.906  0.00  0.00     0.002 A 
ATOM     15  C   UNN dAMED       3.597  -2.114  -0.017  0.00  0.00     0.000 A 
ATOM     16  C   UNN dAMED      -3.469  -2.063   0.174  0.00  0.00     0.000 A 
ATOM     17  C   UNN dAMED      -2.328  -2.135   0.967  0.00  0.00     0.000 A 
ATOM     18  C   UNN dAMED       3.457  -1.305  -1.142  0.00  0.00     0.000 A 
ENDROOT
TORSDOF 0
