REMARK  3 active torsions:
REMARK  status: ('A' for Active; 'I' for Inactive)
REMARK    1  A    between atoms: O_2  and  C_4 
REMARK    2  A    between atoms: O_2  and  C_15 
REMARK    3  A    between atoms: C_8  and  N_17 
REMARK       I    between atoms: C_15  and  N_17 
ROOT
ATOM      1  C   UNN dAMED      -0.706  -1.393  -1.537  0.00  0.00     0.392 C 
ATOM      2  O   UNN dAMED      -1.098  -0.782  -2.528  0.00  0.00    -0.236 OA
ATOM      3  N   UNN dAMED       0.401  -2.140  -1.472  0.00  0.00    -0.186 NA
ENDROOT
BRANCH   1   4
ATOM      4  O   UNN dAMED      -1.350  -1.386  -0.319  0.00  0.00    -0.253 OA
BRANCH   4   5
ATOM      5  C   UNN dAMED      -2.307  -0.368  -0.220  0.00  0.00     0.163 C 
ATOM      6  C   UNN dAMED      -3.475  -0.729   0.240  0.00  0.00     0.302 C 
ATOM      7  O   UNN dAMED      -3.683  -1.697   0.877  0.00  0.00    -0.263 OA
ATOM      8  N   UNN dAMED      -4.421   0.158  -0.113  0.00  0.00    -0.205 NA
ATOM      9  C   UNN dAMED      -4.200   1.393  -0.156  0.00  0.00     0.102 C 
ATOM     10  C   UNN dAMED      -2.813   1.915   0.205  0.00  0.00     0.023 C 
ATOM     11  C   UNN dAMED      -1.840   1.022   0.085  0.00  0.00     0.031 C 
ENDBRANCH   4   5
ENDBRANCH   1   4
BRANCH   3  12
ATOM     12  C   UNN dAMED       0.133  -3.460  -1.577  0.00  0.00     0.087 A 
ATOM     13  C   UNN dAMED       0.125  -4.279  -0.440  0.00  0.00     0.019 A 
ATOM     14  C   UNN dAMED      -0.130  -5.647  -0.527  0.00  0.00     0.002 A 
ATOM     15  C   UNN dAMED      -0.369  -6.228  -1.768  0.00  0.00     0.000 A 
ATOM     16  C   UNN dAMED      -0.342  -5.442  -2.916  0.00  0.00     0.002 A 
ATOM     17  C   UNN dAMED      -0.083  -4.075  -2.817  0.00  0.00     0.019 A 
ENDBRANCH   3  12
TORSDOF 3
