REMARK  0 active torsions:
REMARK  status: ('A' for Active; 'I' for Inactive)
ROOT
ATOM      1  N   UNN dAMED      -1.519  -1.635   0.170  0.00  0.00    -0.335 N 
ATOM      2  H   UNN dAMED      -1.013  -2.493   0.336  0.00  0.00     0.168 HD
ATOM      3  N   UNN dAMED      -3.218  -0.242  -0.150  0.00  0.00    -0.224 NA
ATOM      4  C   UNN dAMED      -0.953  -0.400   0.008  0.00  0.00     0.076 A 
ATOM      5  C   UNN dAMED      -2.030   0.457  -0.191  0.00  0.00     0.099 A 
ATOM      6  C   UNN dAMED       0.379   0.043   0.015  0.00  0.00     0.020 A 
ATOM      7  C   UNN dAMED       1.442  -0.852   0.219  0.00  0.00     0.043 A 
ATOM      8  C   UNN dAMED       2.782  -0.444   0.233  0.00  0.00     0.196 A 
ATOM      9  C   UNN dAMED      -1.788   1.827  -0.394  0.00  0.00     0.021 A 
ATOM     10  C   UNN dAMED       0.611   1.413  -0.188  0.00  0.00     0.002 A 
ATOM     11  C   UNN dAMED       2.971   0.937   0.025  0.00  0.00     0.042 A 
ATOM     12  C   UNN dAMED      -0.462   2.286  -0.389  0.00  0.00     0.002 A 
ATOM     13  C   UNN dAMED       1.929   1.854  -0.181  0.00  0.00     0.003 A 
ATOM     14  C   UNN dAMED      -2.874  -1.493   0.069  0.00  0.00     0.175 A 
ATOM     15  O   UNN dAMED       3.744  -1.257   0.418  0.00  0.00    -0.287 OA
ENDROOT
TORSDOF 0
