REMARK  4 active torsions:
REMARK  status: ('A' for Active; 'I' for Inactive)
REMARK    1  A    between atoms: C_6  and  S_15 
REMARK    2  A    between atoms: C_7  and  C_20 
REMARK    3  A    between atoms: S_15  and  N_18 
REMARK    4  A    between atoms: N_18  and  N_19 
REMARK       I    between atoms: N_19  and  C_20 
ROOT
ATOM      1  N   UNN dAMED       3.257  -4.634   4.084  0.00  0.00    -0.051 NA
ENDROOT
BRANCH   1   2
ATOM      2  S   UNN dAMED       3.070  -3.053   4.240  0.00  0.00     0.302 S 
ATOM      3  O   UNN dAMED       4.219  -2.247   3.830  0.00  0.00    -0.197 OA
ATOM      4  O   UNN dAMED       1.783  -2.553   3.762  0.00  0.00    -0.197 OA
BRANCH   2   5
ATOM      5  C   UNN dAMED       2.958  -2.706   5.998  0.00  0.00     0.107 A 
ATOM      6  C   UNN dAMED       4.067  -2.183   6.659  0.00  0.00     0.013 A 
ATOM      7  C   UNN dAMED       3.958  -1.867   8.008  0.00  0.00    -0.004 A 
ATOM      8  C   UNN dAMED       2.752  -2.074   8.677  0.00  0.00    -0.022 A 
ATOM      9  C   UNN dAMED       1.657  -2.621   8.006  0.00  0.00    -0.004 A 
ATOM     10  C   UNN dAMED       2.680  -1.849  10.160  0.00  0.00     0.031 C 
ATOM     11  C   UNN dAMED       1.756  -2.944   6.656  0.00  0.00     0.013 A 
ENDBRANCH   2   5
ENDBRANCH   1   2
BRANCH   1  12
ATOM     12  N   UNN dAMED       4.496  -5.060   4.740  0.00  0.00    -0.099 NA
ATOM     13  C   UNN dAMED       5.410  -5.436   3.854  0.00  0.00     0.274 C 
ATOM     14  O   UNN dAMED       5.776  -4.869   2.829  0.00  0.00    -0.269 OA
BRANCH  13  15
ATOM     15  C   UNN dAMED       6.060  -6.657   4.336  0.00  0.00     0.075 C 
ATOM     16  C   UNN dAMED       5.198  -7.968   4.081  0.00  0.00     0.009 C 
ATOM     17  C   UNN dAMED       6.050  -9.056   4.663  0.00  0.00     0.001 C 
ATOM     18  C   UNN dAMED       7.299  -8.818   3.850  0.00  0.00     0.001 C 
ATOM     19  C   UNN dAMED       6.177  -8.516   6.067  0.00  0.00     0.001 C 
ATOM     20  C   UNN dAMED       7.180  -7.331   3.481  0.00  0.00     0.009 C 
ATOM     21  C   UNN dAMED       5.967  -7.009   5.858  0.00  0.00     0.009 C 
ENDBRANCH  13  15
ENDBRANCH   1  12
TORSDOF 4
