REMARK  7 active torsions:
REMARK  status: ('A' for Active; 'I' for Inactive)
REMARK    1  A    between atoms: C_6  and  C_7 
REMARK    2  A    between atoms: C_7  and  C_15 
REMARK    3  A    between atoms: C_7  and  C_13 
REMARK    4  A    between atoms: C_10  and  O_20 
REMARK    5  A    between atoms: C_18  and  O_21 
REMARK    6  A    between atoms: O_20  and  C_22 
REMARK    7  A    between atoms: O_21  and  C_25 
ROOT
ATOM      1  C   UNN dAMED       0.295  -0.581  -0.292  0.00  0.00     0.018 C 
ENDROOT
BRANCH   1   2
ATOM      2  C   UNN dAMED       0.357  -2.103  -0.347  0.00  0.00     0.081 A 
ATOM      3  N   UNN dAMED      -0.195  -2.801   0.675  0.00  0.00    -0.244 NA
ATOM      4  C   UNN dAMED      -0.137  -4.149   0.603  0.00  0.00     0.099 A 
ATOM      5  C   UNN dAMED       0.441  -4.847  -0.443  0.00  0.00     0.021 A 
ATOM      6  C   UNN dAMED       0.999  -4.106  -1.476  0.00  0.00     0.003 A 
ATOM      7  C   UNN dAMED       0.965  -2.716  -1.435  0.00  0.00     0.019 A 
ENDBRANCH   1   2
BRANCH   1   8
ATOM      8  C   UNN dAMED       1.212   0.168   0.667  0.00  0.00     0.002 A 
ATOM      9  C   UNN dAMED       2.454   0.627   0.220  0.00  0.00     0.002 A 
ATOM     10  C   UNN dAMED       3.374   1.161   1.118  0.00  0.00     0.025 A 
ATOM     11  C   UNN dAMED       3.069   1.182   2.478  0.00  0.00     0.103 A 
ATOM     12  C   UNN dAMED       1.818   0.772   2.933  0.00  0.00     0.025 A 
ATOM     13  C   UNN dAMED       0.892   0.260   2.024  0.00  0.00     0.002 A 
BRANCH  11  14
ATOM     14  O   UNN dAMED       3.937   1.781   3.378  0.00  0.00    -0.276 OA
BRANCH  14  15
ATOM     15  C   UNN dAMED       5.045   0.963   3.441  0.00  0.00     0.277 C 
ATOM     16  O   UNN dAMED       6.099   1.323   3.952  0.00  0.00    -0.264 OA
ATOM     17  C   UNN dAMED       5.023  -0.341   2.692  0.00  0.00     0.107 C 
ENDBRANCH  14  15
ENDBRANCH  11  14
ENDBRANCH   1   8
BRANCH   1  18
ATOM     18  C   UNN dAMED      -0.662   0.185  -1.201  0.00  0.00     0.002 A 
ATOM     19  C   UNN dAMED      -2.033  -0.089  -1.188  0.00  0.00     0.002 A 
ATOM     20  C   UNN dAMED      -2.917   0.675  -1.953  0.00  0.00     0.025 A 
ATOM     21  C   UNN dAMED      -2.421   1.710  -2.745  0.00  0.00     0.103 A 
ATOM     22  C   UNN dAMED      -1.057   1.991  -2.765  0.00  0.00     0.025 A 
ATOM     23  C   UNN dAMED      -0.181   1.222  -2.003  0.00  0.00     0.002 A 
BRANCH  21  24
ATOM     24  O   UNN dAMED      -3.232   2.609  -3.447  0.00  0.00    -0.276 OA
BRANCH  24  25
ATOM     25  C   UNN dAMED      -4.525   2.162  -3.654  0.00  0.00     0.277 C 
ATOM     26  O   UNN dAMED      -5.311   2.760  -4.378  0.00  0.00    -0.264 OA
ATOM     27  C   UNN dAMED      -5.053   1.055  -2.785  0.00  0.00     0.107 C 
ENDBRANCH  24  25
ENDBRANCH  21  24
ENDBRANCH   1  18
TORSDOF 7
