REMARK  2 active torsions:
REMARK  status: ('A' for Active; 'I' for Inactive)
REMARK    1  A    between atoms: O_5  and  C_11 
REMARK       I    between atoms: N_8  and  C_11 
REMARK       I    between atoms: N_13  and  C_15 
REMARK    2  A    between atoms: C_15  and  O_16 
ROOT
ATOM      1  C   UNN dAMED      -3.680  -2.097  -0.080  0.00  0.00     0.006 C 
ATOM      2  C   UNN dAMED      -2.994  -2.964   0.972  0.00  0.00     0.007 C 
ATOM      3  C   UNN dAMED      -2.726  -1.331  -0.997  0.00  0.00     0.042 C 
ATOM      4  C   UNN dAMED      -1.832  -2.288   1.702  0.00  0.00     0.048 C 
ATOM      5  C   UNN dAMED      -1.468  -0.736  -0.347  0.00  0.00     0.060 C 
ATOM      6  C   UNN dAMED      -0.915  -1.428   0.872  0.00  0.00     0.089 C 
ATOM      7  N   UNN dAMED      -1.158   0.637  -0.565  0.00  0.00    -0.076 NA
ATOM      8  O   UNN dAMED      -3.086   1.918  -0.479  0.00  0.00    -0.243 OA
ATOM      9  N   UNN dAMED       0.281  -1.137   1.266  0.00  0.00    -0.152 NA
ATOM     10  C   UNN dAMED      -2.146   1.361   0.077  0.00  0.00     0.366 C 
ATOM     11  N   UNN dAMED       0.892  -0.209   0.463  0.00  0.00    -0.149 N 
ATOM     12  N   UNN dAMED       0.187   0.823  -0.212  0.00  0.00    -0.119 N 
ATOM     13  O   UNN dAMED       1.398   2.575   0.788  0.00  0.00    -0.235 OA
ATOM     14  C   UNN dAMED       0.688   2.124  -0.107  0.00  0.00     0.400 C 
ATOM     15  C   UNN dAMED       2.101  -0.604  -0.170  0.00  0.00     0.103 A 
ATOM     16  C   UNN dAMED       2.257  -1.847  -0.796  0.00  0.00     0.021 A 
ATOM     17  C   UNN dAMED       3.463  -2.186  -1.418  0.00  0.00     0.002 A 
ATOM     18  C   UNN dAMED       4.525  -1.284  -1.433  0.00  0.00     0.000 A 
ATOM     19  C   UNN dAMED       4.393  -0.057  -0.795  0.00  0.00     0.002 A 
ATOM     20  C   UNN dAMED       3.199   0.264  -0.156  0.00  0.00     0.021 A 
ENDROOT
BRANCH  14  21
ATOM     21  O   UNN dAMED       0.348   2.893  -1.180  0.00  0.00    -0.280 OA
ATOM     22  C   UNN dAMED       0.917   4.142  -0.913  0.00  0.00     0.186 C 
ENDBRANCH  14  21
BRANCH  10  23
ATOM     23  O   UNN dAMED      -2.019   1.316   1.433  0.00  0.00    -0.285 OA
ATOM     24  C   UNN dAMED      -3.036   0.462   1.868  0.00  0.00     0.186 C 
ENDBRANCH  10  23
TORSDOF 2
