REMARK  5 active torsions:
REMARK  status: ('A' for Active; 'I' for Inactive)
REMARK    1  A    between atoms: C_1  and  O_13 
REMARK    2  A    between atoms: C_3  and  N_18 
REMARK    3  A    between atoms: C_6  and  N_15 
REMARK    4  A    between atoms: C_8  and  S_19 
REMARK    5  A    between atoms: N_18  and  S_19 
ROOT
ATOM      1  C   UNN dAMED      -1.709   0.392  -0.730  0.00  0.00     0.113 A 
ATOM      2  C   UNN dAMED      -2.947   1.042  -0.774  0.00  0.00     0.028 A 
ATOM      3  C   UNN dAMED      -1.575  -0.966  -0.389  0.00  0.00     0.118 A 
ATOM      4  C   UNN dAMED      -2.756  -1.664  -0.106  0.00  0.00     0.045 A 
ATOM      5  C   UNN dAMED      -4.107   0.340  -0.473  0.00  0.00     0.026 A 
ATOM      6  C   UNN dAMED      -3.980  -1.002  -0.146  0.00  0.00     0.128 A 
ENDROOT
BRANCH   3   7
ATOM      7  N   UNN dAMED      -0.383  -1.602  -0.369  0.00  0.00    -0.156 NA
BRANCH   7   8
ATOM      8  S   UNN dAMED       0.297  -1.821   1.063  0.00  0.00     0.285 S 
ATOM      9  O   UNN dAMED       0.700  -0.589   1.737  0.00  0.00    -0.198 OA
ATOM     10  O   UNN dAMED      -0.363  -2.810   1.912  0.00  0.00    -0.198 OA
BRANCH   8  11
ATOM     11  C   UNN dAMED       1.876  -2.620   0.782  0.00  0.00     0.105 A 
ATOM     12  C   UNN dAMED       2.845  -2.551   1.780  0.00  0.00     0.013 A 
ATOM     13  C   UNN dAMED       4.052  -3.216   1.595  0.00  0.00    -0.004 A 
ATOM     14  C   UNN dAMED       4.272  -3.950   0.429  0.00  0.00    -0.022 A 
ATOM     15  C   UNN dAMED       3.284  -4.027  -0.553  0.00  0.00    -0.004 A 
ATOM     16  C   UNN dAMED       5.569  -4.687   0.246  0.00  0.00     0.031 C 
ATOM     17  C   UNN dAMED       2.072  -3.366  -0.376  0.00  0.00     0.013 A 
ENDBRANCH   8  11
ENDBRANCH   7   8
ENDBRANCH   3   7
BRANCH   1  18
ATOM     18  O   UNN dAMED      -0.605   1.141  -1.040  0.00  0.00    -0.327 OA
ATOM     19  C   UNN dAMED      -0.974   2.461  -0.766  0.00  0.00     0.181 C 
ENDBRANCH   1  18
BRANCH   6  20
ATOM     20  N   UNN dAMED      -5.161  -1.738   0.194  0.00  0.00    -0.114 N 
ATOM     21  O   UNN dAMED      -5.761  -2.293  -0.735  0.00  0.00    -0.532 OA
ATOM     22  O   UNN dAMED      -5.482  -1.760   1.388  0.00  0.00    -0.532 OA
ENDBRANCH   6  20
TORSDOF 5
