REMARK  2 active torsions:
REMARK  status: ('A' for Active; 'I' for Inactive)
REMARK    1  A    between atoms: C_6  and  N_7 
REMARK    2  A    between atoms: N_7  and  N_8 
ROOT
ATOM      1  C   UNN dAMED       3.682  -0.539  -0.129  0.00  0.00     0.199 A 
ATOM      2  C   UNN dAMED       3.204   0.749   0.167  0.00  0.00     0.086 A 
ATOM      3  C   UNN dAMED       2.671  -1.489  -0.287  0.00  0.00     0.044 A 
ATOM      4  C   UNN dAMED       1.319  -1.189  -0.125  0.00  0.00     0.028 A 
ATOM      5  C   UNN dAMED       1.862   1.151   0.349  0.00  0.00     0.218 A 
ATOM      6  C   UNN dAMED       0.914   0.106   0.220  0.00  0.00     0.142 A 
ATOM      7  O   UNN dAMED       4.921  -0.806  -0.244  0.00  0.00    -0.286 OA
ATOM      8  O   UNN dAMED       1.573   2.364   0.619  0.00  0.00    -0.285 OA
ENDROOT
BRANCH   6   9
ATOM      9  N   UNN dAMED      -0.469   0.342   0.406  0.00  0.00    -0.143 NA
BRANCH   9  10
ATOM     10  N   UNN dAMED      -0.715   0.437   1.630  0.00  0.00    -0.121 NA
ATOM     11  C   UNN dAMED      -2.002   0.769   1.920  0.00  0.00     0.215 A 
ATOM     12  S   UNN dAMED      -2.277   1.963   3.156  0.00  0.00    -0.045 SA
ATOM     13  N   UNN dAMED      -3.108   0.273   1.394  0.00  0.00    -0.218 NA
ATOM     14  C   UNN dAMED      -3.950   1.799   2.929  0.00  0.00     0.059 A 
ATOM     15  C   UNN dAMED      -4.213   0.868   1.960  0.00  0.00     0.108 A 
ENDBRANCH   9  10
ENDBRANCH   6   9
TORSDOF 2
