REMARK  5 active torsions:
REMARK  status: ('A' for Active; 'I' for Inactive)
REMARK    1  A    between atoms: O_1  and  C_2 
REMARK    2  A    between atoms: C_4  and  O_5 
REMARK    3  A    between atoms: C_14  and  C_19 
REMARK    4  A    between atoms: C_19  and  O_21 
REMARK    5  A    between atoms: O_21  and  C_26 
ROOT
ATOM      1  C   UNN dAMED      -3.641  -1.779  -0.020  0.00  0.00     0.116 A 
ATOM      2  C   UNN dAMED      -2.819  -2.884  -0.159  0.00  0.00     0.026 A 
ATOM      3  C   UNN dAMED      -3.100  -0.501   0.045  0.00  0.00     0.116 A 
ATOM      4  C   UNN dAMED      -1.441  -2.697  -0.231  0.00  0.00     0.004 A 
ATOM      5  C   UNN dAMED      -1.713  -0.303  -0.027  0.00  0.00     0.026 A 
ATOM      6  C   UNN dAMED      -0.855  -1.419  -0.167  0.00  0.00     0.018 A 
ATOM      7  H   UNN dAMED       0.990  -3.226  -0.307  0.00  0.00     0.166 HD
ATOM      8  C   UNN dAMED      -1.156   0.976   0.032  0.00  0.00     0.007 A 
ATOM      9  C   UNN dAMED       0.551  -1.223  -0.235  0.00  0.00     0.060 A 
ATOM     10  N   UNN dAMED       1.430  -2.317  -0.415  0.00  0.00    -0.351 N 
ATOM     11  C   UNN dAMED       1.097   0.080  -0.197  0.00  0.00     0.060 A 
ATOM     12  C   UNN dAMED       0.222   1.167  -0.063  0.00  0.00     0.068 A 
ATOM     13  C   UNN dAMED       2.858  -2.148  -0.233  0.00  0.00     0.086 C 
ATOM     14  C   UNN dAMED       2.576   0.283  -0.304  0.00  0.00     0.208 C 
ATOM     15  C   UNN dAMED       3.417  -0.940  -0.277  0.00  0.00     0.124 C 
ATOM     16  O   UNN dAMED       3.088   1.390  -0.401  0.00  0.00    -0.286 OA
ATOM     17  C   UNN dAMED       4.834  -0.849  -0.239  0.00  0.00     0.106 C 
ATOM     18  N   UNN dAMED       5.991  -0.778  -0.208  0.00  0.00    -0.191 NA
ENDROOT
BRANCH  12  19
ATOM     19  C   UNN dAMED       0.661   2.558   0.030  0.00  0.00     0.296 C 
ATOM     20  O   UNN dAMED       0.951   3.124   1.067  0.00  0.00    -0.259 OA
BRANCH  19  21
ATOM     21  O   UNN dAMED       0.671   3.087  -1.212  0.00  0.00    -0.298 OA
BRANCH  21  22
ATOM     22  C   UNN dAMED       0.265   2.049  -2.054  0.00  0.00     0.152 C 
ATOM     23  C   UNN dAMED      -1.178   1.538  -1.999  0.00  0.00     0.035 C 
ENDBRANCH  21  22
ENDBRANCH  19  21
ENDBRANCH  12  19
BRANCH   3  24
ATOM     24  O   UNN dAMED      -3.940   0.570   0.178  0.00  0.00    -0.326 OA
ATOM     25  C   UNN dAMED      -5.173   0.128  -0.309  0.00  0.00     0.181 C 
ENDBRANCH   3  24
BRANCH   1  26
ATOM     26  O   UNN dAMED      -4.989  -1.971   0.052  0.00  0.00    -0.326 OA
ATOM     27  C   UNN dAMED      -5.149  -3.326   0.352  0.00  0.00     0.181 C 
ENDBRANCH   1  26
TORSDOF 5
