REMARK  7 active torsions:
REMARK  status: ('A' for Active; 'I' for Inactive)
REMARK    1  A    between atoms: C_5  and  C_7 
REMARK    2  A    between atoms: C_8  and  C_9 
REMARK    3  A    between atoms: C_8  and  C_14 
REMARK    4  A    between atoms: C_9  and  O_11 
REMARK    5  A    between atoms: O_11  and  C_12 
REMARK    6  A    between atoms: C_14  and  O_16 
REMARK    7  A    between atoms: O_16  and  C_17 
ROOT
ATOM      1  C   UNN dAMED       0.481   0.430  -0.633  0.00  0.00     0.011 C 
ATOM      2  C   UNN dAMED      -0.657  -0.184  -0.273  0.00  0.00     0.126 C 
ENDROOT
BRANCH   2   3
ATOM      3  C   UNN dAMED      -1.896   0.607  -0.390  0.00  0.00     0.301 C 
ATOM      4  O   UNN dAMED      -2.019   1.571  -1.129  0.00  0.00    -0.259 OA
BRANCH   3   5
ATOM      5  O   UNN dAMED      -2.842   0.133   0.449  0.00  0.00    -0.298 OA
BRANCH   5   6
ATOM      6  C   UNN dAMED      -2.295  -1.032   0.992  0.00  0.00     0.152 C 
ATOM      7  C   UNN dAMED      -2.514  -2.384   0.303  0.00  0.00     0.035 C 
ENDBRANCH   5   6
ENDBRANCH   3   5
ENDBRANCH   2   3
BRANCH   2   8
ATOM      8  C   UNN dAMED      -0.736  -1.652  -0.179  0.00  0.00     0.301 C 
ATOM      9  O   UNN dAMED      -1.099  -2.275   0.803  0.00  0.00    -0.259 OA
BRANCH   8  10
ATOM     10  O   UNN dAMED      -0.408  -2.183  -1.375  0.00  0.00    -0.298 OA
BRANCH  10  11
ATOM     11  C   UNN dAMED      -0.185  -3.535  -1.112  0.00  0.00     0.152 C 
ATOM     12  C   UNN dAMED      -1.088  -4.267  -0.116  0.00  0.00     0.035 C 
ENDBRANCH  10  11
ENDBRANCH   8  10
ENDBRANCH   2   8
BRANCH   1  13
ATOM     13  C   UNN dAMED       1.898  -0.060  -0.395  0.00  0.00     0.000 A 
ATOM     14  C   UNN dAMED       2.441  -1.089  -1.167  0.00  0.00     0.001 A 
ATOM     15  C   UNN dAMED       3.804  -1.365  -1.123  0.00  0.00     0.007 A 
ATOM     16  C   UNN dAMED       4.631  -0.585  -0.323  0.00  0.00     0.035 A 
ATOM     17  C   UNN dAMED       4.110   0.455   0.438  0.00  0.00     0.007 A 
ATOM     18 BR   UNN dAMED       6.486  -0.908  -0.310  0.00  0.00    -0.049 Br
ATOM     19  C   UNN dAMED       2.743   0.716   0.399  0.00  0.00     0.001 A 
ENDBRANCH   1  13
TORSDOF 7
