REMARK  4 active torsions:
REMARK  status: ('A' for Active; 'I' for Inactive)
REMARK       I    between atoms: N_1  and  C_17 
REMARK    1  A    between atoms: O_3  and  C_17 
REMARK    2  A    between atoms: O_3  and  C_19 
REMARK    3  A    between atoms: C_4  and  C_14 
REMARK    4  A    between atoms: C_9  and  C_19 
ROOT
ATOM      1  N   UNN dAMED      -1.930   0.370  -0.515  0.00  0.00    -0.139 NA
ATOM      2  O   UNN dAMED      -1.735   1.915  -2.263  0.00  0.00    -0.278 OA
ATOM      3  C   UNN dAMED      -3.112  -0.115   0.159  0.00  0.00     0.161 A 
ATOM      4  C   UNN dAMED      -4.373   0.582  -0.326  0.00  0.00     0.037 A 
ATOM      5  C   UNN dAMED      -3.881   1.565  -1.356  0.00  0.00     0.084 A 
ATOM      6  C   UNN dAMED      -2.391   1.369  -1.388  0.00  0.00     0.222 A 
ATOM      7  C   UNN dAMED      -0.958   0.611   0.432  0.00  0.00     0.350 C 
ATOM      8  O   UNN dAMED      -0.726   1.686   0.980  0.00  0.00    -0.245 OA
ENDROOT
BRANCH   7   9
ATOM      9  O   UNN dAMED      -0.275  -0.524   0.743  0.00  0.00    -0.284 OA
BRANCH   9  10
ATOM     10  C   UNN dAMED      -0.557  -1.450  -0.278  0.00  0.00     0.180 C 
BRANCH  10  11
ATOM     11  C   UNN dAMED       0.224  -2.742  -0.372  0.00  0.00     0.008 A 
ATOM     12  C   UNN dAMED       1.173  -2.920  -1.381  0.00  0.00    -0.002 A 
ATOM     13  C   UNN dAMED       1.972  -4.066  -1.386  0.00  0.00    -0.000 A 
ATOM     14  C   UNN dAMED       1.816  -5.026  -0.387  0.00  0.00    -0.000 A 
ATOM     15  C   UNN dAMED       0.868  -4.853   0.618  0.00  0.00    -0.000 A 
ATOM     16  C   UNN dAMED       0.069  -3.712   0.622  0.00  0.00    -0.002 A 
ENDBRANCH  10  11
ENDBRANCH   9  10
ENDBRANCH   7   9
BRANCH   3  17
ATOM     17  C   UNN dAMED      -3.203  -1.526   0.691  0.00  0.00     0.201 C 
ATOM     18  O   UNN dAMED      -3.119  -1.670   1.945  0.00  0.00    -0.646 OA
ATOM     19  O   UNN dAMED      -3.284  -2.446  -0.180  0.00  0.00    -0.646 OA
ENDBRANCH   3  17
TORSDOF 4
