REMARK  0 active torsions:
REMARK  status: ('A' for Active; 'I' for Inactive)
ROOT
ATOM      1  N   UNN dAMED       2.710  -0.400  -0.218  0.00  0.00    -0.240 NA
ATOM      2  N   UNN dAMED       0.100   0.396   0.582  0.00  0.00    -0.182 NA
ATOM      3  N   UNN dAMED      -1.820  -0.581   0.036  0.00  0.00    -0.334 N 
ATOM      4  H   UNN dAMED      -2.653  -0.782  -0.489  0.00  0.00     0.168 HD
ATOM      5  S   UNN dAMED      -1.910   2.119   0.013  0.00  0.00    -0.046 SA
ATOM      6  C   UNN dAMED      -0.727  -1.500  -0.074  0.00  0.00     0.087 C 
ATOM      7  C   UNN dAMED       0.418  -0.893   0.235  0.00  0.00     0.083 C 
ATOM      8  C   UNN dAMED       1.841  -1.284  -0.025  0.00  0.00     0.112 C 
ATOM      9  C   UNN dAMED      -1.216   0.647   0.259  0.00  0.00     0.163 C 
ATOM     10  C   UNN dAMED       2.251   0.953  -0.321  0.00  0.00     0.112 C 
ATOM     11  C   UNN dAMED       1.006   1.324   0.001  0.00  0.00     0.078 C 
ENDROOT
TORSDOF 0
