REMARK  5 active torsions:
REMARK  status: ('A' for Active; 'I' for Inactive)
REMARK    1  A    between atoms: C_7  and  S_9 
REMARK    2  A    between atoms: S_9  and  C_21 
REMARK    3  A    between atoms: C_11  and  C_21 
REMARK       I    between atoms: C_11  and  N_22 
REMARK       I    between atoms: C_14  and  N_23 
REMARK       I    between atoms: C_14  and  N_24 
REMARK    4  A    between atoms: C_15  and  N_24 
REMARK    5  A    between atoms: N_22  and  N_23 
ROOT
ATOM      1  C   UNN dAMED      -1.356  -0.845   0.756  0.00  0.00     0.303 C 
ATOM      2  O   UNN dAMED      -1.937  -0.306  -0.178  0.00  0.00    -0.263 OA
ATOM      3  N   UNN dAMED      -0.133  -1.360   0.711  0.00  0.00    -0.101 NA
ENDROOT
BRANCH   1   4
ATOM      4  C   UNN dAMED      -2.075  -0.962   2.084  0.00  0.00     0.099 C 
BRANCH   4   5
ATOM      5  S   UNN dAMED      -3.583  -0.061   2.474  0.00  0.00    -0.086 SA
BRANCH   5   6
ATOM      6  C   UNN dAMED      -3.604   0.408   0.740  0.00  0.00     0.007 A 
ATOM      7  C   UNN dAMED      -4.811   1.032   0.085  0.00  0.00    -0.002 A 
ATOM      8  C   UNN dAMED      -5.682   1.970   0.604  0.00  0.00    -0.000 A 
ATOM      9  C   UNN dAMED      -4.884   0.643  -1.266  0.00  0.00    -0.022 A 
ATOM     10  C   UNN dAMED      -6.669   2.476  -0.241  0.00  0.00    -0.000 A 
ATOM     11  C   UNN dAMED      -6.752   2.071  -1.583  0.00  0.00    -0.000 A 
ATOM     12  C   UNN dAMED      -5.845   1.154  -2.114  0.00  0.00    -0.004 A 
ATOM     13  C   UNN dAMED      -3.759  -0.290  -1.613  0.00  0.00     0.032 A 
ATOM     14  C   UNN dAMED      -2.966  -0.505  -0.316  0.00  0.00     0.038 A 
ENDBRANCH   5   6
ENDBRANCH   4   5
ENDBRANCH   1   4
BRANCH   3  15
ATOM     15  N   UNN dAMED      -0.239  -2.820   0.793  0.00  0.00    -0.085 NA
ATOM     16  C   UNN dAMED       0.807  -3.400   0.175  0.00  0.00     0.387 C 
ATOM     17  O   UNN dAMED       1.987  -3.196   0.452  0.00  0.00    -0.241 OA
ATOM     18  N   UNN dAMED       0.393  -4.211  -0.823  0.00  0.00    -0.190 NA
BRANCH  18  19
ATOM     19  C   UNN dAMED       0.328  -5.522  -0.486  0.00  0.00     0.082 A 
ATOM     20  C   UNN dAMED       1.372  -6.206   0.158  0.00  0.00     0.019 A 
ATOM     21  C   UNN dAMED       1.290  -7.564   0.459  0.00  0.00    -0.003 A 
ATOM     22  C   UNN dAMED       0.160  -8.283   0.089  0.00  0.00    -0.022 A 
ATOM     23  C   UNN dAMED      -0.881  -7.644  -0.575  0.00  0.00    -0.007 A 
ATOM     24  C   UNN dAMED       0.084  -9.755   0.372  0.00  0.00     0.031 C 
ATOM     25  C   UNN dAMED      -0.793  -6.279  -0.859  0.00  0.00    -0.004 A 
ATOM     26  C   UNN dAMED      -1.902  -5.620  -1.630  0.00  0.00     0.033 C 
ENDBRANCH  18  19
ENDBRANCH   3  15
TORSDOF 5
