REMARK  0 active torsions:
REMARK  status: ('A' for Active; 'I' for Inactive)
ROOT
ATOM      1  N   UNN dAMED       1.147  -1.779  -2.695  0.00  0.00     0.018 NA
ATOM      2  N   UNN dAMED       1.554  -2.310  -1.551  0.00  0.00     0.003 NA
ATOM      3  N   UNN dAMED       0.289  -0.730  -2.479  0.00  0.00    -0.141 NA
ATOM      4  N   UNN dAMED       0.956  -1.585  -0.587  0.00  0.00    -0.220 N 
ATOM      5  C   UNN dAMED      -3.973   0.556   1.245  0.00  0.00     0.000 A 
ATOM      6  C   UNN dAMED      -2.719   0.903   0.743  0.00  0.00     0.000 A 
ATOM      7  C   UNN dAMED      -4.495  -0.717   1.030  0.00  0.00     0.000 A 
ATOM      8  C   UNN dAMED      -2.217   2.184   0.965  0.00  0.00     0.000 A 
ATOM      9  C   UNN dAMED      -0.966   2.545   0.475  0.00  0.00     0.000 A 
ATOM     10  C   UNN dAMED      -3.769  -1.654   0.304  0.00  0.00     0.000 A 
ATOM     11  C   UNN dAMED      -1.961  -0.043   0.018  0.00  0.00     0.003 A 
ATOM     12  C   UNN dAMED      -0.201   1.617  -0.226  0.00  0.00     0.003 A 
ATOM     13  C   UNN dAMED      -2.514  -1.317  -0.193  0.00  0.00     0.000 A 
ATOM     14  C   UNN dAMED      -0.683   0.324  -0.454  0.00  0.00     0.037 A 
ATOM     15  C   UNN dAMED       0.163  -0.616  -1.170  0.00  0.00     0.177 A 
ATOM     16  C   UNN dAMED       1.177  -1.837   0.765  0.00  0.00     0.080 A 
ATOM     17  C   UNN dAMED       0.453  -2.846   1.395  0.00  0.00     0.019 A 
ATOM     18  C   UNN dAMED       2.127  -1.077   1.441  0.00  0.00     0.019 A 
ATOM     19  C   UNN dAMED       0.690  -3.095   2.744  0.00  0.00     0.002 A 
ATOM     20  C   UNN dAMED       2.353  -1.334   2.789  0.00  0.00     0.002 A 
ATOM     21  C   UNN dAMED       1.637  -2.341   3.439  0.00  0.00     0.000 A 
ENDROOT
TORSDOF 0
