REMARK  1 active torsions:
REMARK  status: ('A' for Active; 'I' for Inactive)
REMARK    1  A    between atoms: C_7  and  N_13 
ROOT
ATOM      1  C   UNN dAMED      -2.444  -0.861  -0.763  0.00  0.00     0.101 A 
ATOM      2  C   UNN dAMED      -4.356   0.141   0.022  0.00  0.00     0.099 A 
ATOM      3  C   UNN dAMED      -1.625  -0.004  -0.041  0.00  0.00     0.039 A 
ATOM      4  C   UNN dAMED      -3.637   1.047   0.782  0.00  0.00     0.021 A 
ATOM      5  C   UNN dAMED      -0.177  -0.111  -0.097  0.00  0.00     0.105 A 
ATOM      6  C   UNN dAMED      -2.250   0.963   0.743  0.00  0.00     0.005 A 
ATOM      7  C   UNN dAMED       1.882  -0.805  -0.450  0.00  0.00     0.203 A 
ATOM      8  C   UNN dAMED       0.584  -1.191  -0.638  0.00  0.00     0.064 A 
ATOM      9  N   UNN dAMED      -3.795  -0.814  -0.751  0.00  0.00    -0.242 NA
ATOM     10  N   UNN dAMED       0.624   0.859   0.387  0.00  0.00    -0.171 NA
ATOM     11  N   UNN dAMED       1.866   0.407   0.155  0.00  0.00    -0.256 N 
ATOM     12  H   UNN dAMED       2.657   0.972   0.442  0.00  0.00     0.191 HD
ENDROOT
BRANCH   7  13
ATOM     13  N   UNN dAMED       3.097  -1.445  -0.776  0.00  0.00    -0.096 N 
ATOM     14  O   UNN dAMED       3.124  -2.071  -1.841  0.00  0.00    -0.530 OA
ATOM     15  O   UNN dAMED       4.028  -1.318   0.028  0.00  0.00    -0.530 OA
ENDBRANCH   7  13
TORSDOF 1
