REMARK  0 active torsions:
REMARK  status: ('A' for Active; 'I' for Inactive)
ROOT
ATOM      1  N   UNN dAMED      -4.618   0.642   0.538  0.00  0.00     0.140 N 
ATOM      2  C   UNN dAMED      -3.850  -0.609  -0.013  0.00  0.00     0.255 C 
ATOM      3  C   UNN dAMED      -2.399  -0.912   0.377  0.00  0.00     0.057 C 
ATOM      4  C   UNN dAMED      -1.397   0.184   0.183  0.00  0.00    -0.040 C 
ATOM      5  C   UNN dAMED      -2.143   1.483   0.290  0.00  0.00     0.057 C 
ATOM      6  C   UNN dAMED      -3.483   1.442   1.040  0.00  0.00     0.255 C 
ATOM      7  C   UNN dAMED      -0.226  -2.445   0.563  0.00  0.00     0.000 A 
ATOM      8  C   UNN dAMED       0.389  -3.695   0.641  0.00  0.00     0.000 A 
ATOM      9  C   UNN dAMED       0.492  -1.324   0.133  0.00  0.00     0.001 A 
ATOM     10  C   UNN dAMED      -0.073   0.042   0.103  0.00  0.00    -0.008 C 
ATOM     11  C   UNN dAMED       0.747   1.267   0.000  0.00  0.00     0.001 A 
ATOM     12  C   UNN dAMED       0.261   2.538   0.321  0.00  0.00     0.000 A 
ATOM     13  C   UNN dAMED       1.111   3.640   0.307  0.00  0.00     0.000 A 
ATOM     14  C   UNN dAMED       1.733  -3.829   0.309  0.00  0.00     0.000 A 
ATOM     15  C   UNN dAMED       1.845  -1.474  -0.212  0.00  0.00     0.025 A 
ATOM     16  C   UNN dAMED       2.098   1.112  -0.346  0.00  0.00     0.025 A 
ATOM     17  C   UNN dAMED       2.452   3.478  -0.023  0.00  0.00     0.000 A 
ATOM     18  C   UNN dAMED       2.464  -2.724  -0.117  0.00  0.00     0.002 A 
ATOM     19  C   UNN dAMED       2.579  -0.267  -0.772  0.00  0.00     0.131 C 
ATOM     20  C   UNN dAMED       2.946   2.220  -0.355  0.00  0.00     0.002 A 
ATOM     21  C   UNN dAMED      -3.857  -0.598  -0.008  0.00  0.00     0.285 C 
ATOM     22  O   UNN dAMED       3.243  -0.394  -1.974  0.00  0.00    -0.190 OA
ENDROOT
TORSDOF 0
