REMARK  2 active torsions:
REMARK  status: ('A' for Active; 'I' for Inactive)
REMARK    1  A    between atoms: C_5  and  N_14 
REMARK    2  A    between atoms: C_10  and  N_17 
REMARK       I    between atoms: N_14  and  C_15 
REMARK       I    between atoms: C_15  and  N_17 
ROOT
ATOM      1  N   UNN dAMED      -0.829   0.749   0.224  0.00  0.00    -0.191 NA
ATOM      2  C   UNN dAMED      -0.103   1.126  -0.854  0.00  0.00     0.370 C 
ATOM      3  O   UNN dAMED      -0.551   1.521  -1.929  0.00  0.00    -0.242 OA
ATOM      4  N   UNN dAMED       1.225   0.996  -0.622  0.00  0.00    -0.170 NA
ENDROOT
BRANCH   1   5
ATOM      5  C   UNN dAMED      -2.092   0.358  -0.025  0.00  0.00     0.083 A 
ATOM      6  C   UNN dAMED      -2.408  -1.003  -0.118  0.00  0.00    -0.004 A 
ATOM      7  C   UNN dAMED      -3.730  -1.434  -0.234  0.00  0.00    -0.002 A 
ATOM      8  C   UNN dAMED      -1.304  -2.017  -0.013  0.00  0.00     0.033 C 
ATOM      9  C   UNN dAMED      -4.765  -0.505  -0.244  0.00  0.00     0.011 A 
ATOM     10  C   UNN dAMED      -4.468   0.848  -0.143  0.00  0.00     0.059 A 
ATOM     11 CL   UNN dAMED      -5.740   1.999  -0.121  0.00  0.00    -0.082 Cl
ATOM     12  C   UNN dAMED      -3.149   1.277  -0.026  0.00  0.00     0.030 A 
ENDBRANCH   1   5
BRANCH   4  13
ATOM     13  C   UNN dAMED       1.696   1.732   0.446  0.00  0.00     0.195 A 
ATOM     14  N   UNN dAMED       1.588   3.066   0.525  0.00  0.00    -0.107 NA
ATOM     15  O   UNN dAMED       2.042   3.393   1.799  0.00  0.00    -0.214 OA
ATOM     16  C   UNN dAMED       2.490   2.270   2.414  0.00  0.00     0.106 A 
ATOM     17  C   UNN dAMED       2.276   1.181   1.613  0.00  0.00     0.064 A 
ATOM     18  C   UNN dAMED       2.595   2.160   3.906  0.00  0.00     0.061 C 
ENDBRANCH   4  13
TORSDOF 2
