REMARK  0 active torsions:
REMARK  status: ('A' for Active; 'I' for Inactive)
ROOT
ATOM      1 CL   UNN dAMED      -4.083   2.073  -0.200  0.00  0.00    -0.064 Cl
ATOM      2  N   UNN dAMED      -1.690   1.138  -0.011  0.00  0.00    -0.157 NA
ATOM      3  N   UNN dAMED      -0.777   0.126  -0.031  0.00  0.00    -0.214 N 
ATOM      4  N   UNN dAMED       1.251   1.403   0.417  0.00  0.00    -0.129 NA
ATOM      5  N   UNN dAMED       2.566   1.325   0.538  0.00  0.00    -0.151 NA
ATOM      6  C   UNN dAMED       2.572  -1.059   0.099  0.00  0.00     0.020 A 
ATOM      7  C   UNN dAMED       3.210   0.141   0.386  0.00  0.00     0.081 A 
ATOM      8  C   UNN dAMED       1.183  -0.987  -0.023  0.00  0.00     0.040 A 
ATOM      9  C   UNN dAMED       0.149  -1.915  -0.309  0.00  0.00     0.018 A 
ATOM     10  C   UNN dAMED      -1.014  -1.204  -0.240  0.00  0.00     0.063 A 
ATOM     11  C   UNN dAMED      -2.345  -1.626  -0.725  0.00  0.00     0.053 C 
ATOM     12  C   UNN dAMED      -3.397  -0.612  -0.337  0.00  0.00     0.066 C 
ATOM     13  C   UNN dAMED       0.588   0.261   0.147  0.00  0.00     0.185 A 
ATOM     14  C   UNN dAMED      -2.918   0.811  -0.255  0.00  0.00     0.136 C 
ATOM     15  C   UNN dAMED       4.705   0.126   0.544  0.00  0.00     0.054 C 
ENDROOT
TORSDOF 0
