REMARK  4 active torsions:
REMARK  status: ('A' for Active; 'I' for Inactive)
REMARK    1  A    between atoms: C_9  and  N_27 
REMARK    2  A    between atoms: C_10  and  N_25 
REMARK    3  A    between atoms: C_11  and  N_24 
REMARK    4  A    between atoms: N_19  and  C_22 
REMARK       I    between atoms: C_20  and  N_24 
REMARK       I    between atoms: C_20  and  N_25 
ROOT
ATOM      1  C   UNN dAMED      -2.580   1.353  -0.980  0.00  0.00     0.013 A 
ATOM      2  C   UNN dAMED      -6.873  -0.628   0.499  0.00  0.00     0.011 A 
ATOM      3  C   UNN dAMED      -1.253   0.907  -0.894  0.00  0.00     0.020 A 
ATOM      4  C   UNN dAMED      -3.552   0.544  -0.389  0.00  0.00     0.040 A 
ATOM      5  C   UNN dAMED      -5.516  -0.367   0.283  0.00  0.00     0.040 A 
ATOM      6  C   UNN dAMED      -7.191  -1.845   1.108  0.00  0.00     0.001 A 
ATOM      7  C   UNN dAMED      -0.873  -0.269  -0.234  0.00  0.00     0.086 A 
ATOM      8  C   UNN dAMED      -3.253  -0.670   0.228  0.00  0.00     0.013 A 
ATOM      9  C   UNN dAMED      -4.498  -1.256   0.637  0.00  0.00     0.012 A 
ATOM     10  C   UNN dAMED      -6.203  -2.750   1.483  0.00  0.00     0.000 A 
ATOM     11  C   UNN dAMED      -1.901  -1.074   0.291  0.00  0.00     0.020 A 
ATOM     12  C   UNN dAMED      -4.853  -2.472   1.251  0.00  0.00     0.001 A 
ATOM     13  N   UNN dAMED      -4.895   0.732  -0.233  0.00  0.00    -0.232 NA
ENDROOT
BRANCH   7  14
ATOM     14  N   UNN dAMED       0.411  -0.695  -0.252  0.00  0.00    -0.191 NA
ATOM     15  C   UNN dAMED       1.214  -0.255   0.759  0.00  0.00     0.369 C 
ATOM     16  O   UNN dAMED       0.904   0.561   1.626  0.00  0.00    -0.242 OA
ATOM     17  N   UNN dAMED       2.405  -0.907   0.645  0.00  0.00    -0.191 NA
BRANCH  17  18
ATOM     18  C   UNN dAMED       3.429  -0.546   1.456  0.00  0.00     0.082 A 
ATOM     19  C   UNN dAMED       3.343  -0.549   2.860  0.00  0.00     0.021 A 
ATOM     20  C   UNN dAMED       4.449  -0.299   3.678  0.00  0.00     0.025 A 
ATOM     21  C   UNN dAMED       5.681  -0.096   3.072  0.00  0.00     0.126 A 
ATOM     22  C   UNN dAMED       5.842  -0.127   1.695  0.00  0.00     0.021 A 
ATOM     23  C   UNN dAMED       4.711  -0.350   0.902  0.00  0.00    -0.002 A 
ATOM     24  C   UNN dAMED       4.880  -0.437  -0.588  0.00  0.00     0.033 C 
BRANCH  21  25
ATOM     25  N   UNN dAMED       6.825   0.183   3.896  0.00  0.00    -0.114 N 
ATOM     26  O   UNN dAMED       7.315  -0.767   4.520  0.00  0.00    -0.532 OA
ATOM     27  O   UNN dAMED       7.233   1.352   3.914  0.00  0.00    -0.532 OA
ENDBRANCH  21  25
ENDBRANCH  17  18
ENDBRANCH   7  14
BRANCH  13  28
ATOM     28  C   UNN dAMED      -5.483   1.075  -1.482  0.00  0.00     0.082 C 
ATOM     29  C   UNN dAMED      -7.008   1.117  -1.630  0.00  0.00     0.020 C 
ENDBRANCH  13  28
TORSDOF 4
