REMARK  1 active torsions:
REMARK  status: ('A' for Active; 'I' for Inactive)
REMARK    1  A    between atoms: C_8  and  C_11 
REMARK       I    between atoms: C_11  and  N_13 
ROOT
ATOM      1  O   UNN dAMED      -3.401  -0.129  -0.068  0.00  0.00    -0.245 OA
ATOM      2  H   UNN dAMED      -1.807  -1.774  -1.148  0.00  0.00     0.174 HD
ATOM      3  N   UNN dAMED      -1.361  -1.011  -0.648  0.00  0.00    -0.272 N 
ATOM      4  N   UNN dAMED      -1.489   0.867   0.698  0.00  0.00    -0.200 N 
ATOM      5  O   UNN dAMED       0.782  -1.726  -1.186  0.00  0.00    -0.265 OA
ATOM      6  N   UNN dAMED      -0.173   1.119   0.668  0.00  0.00    -0.156 NA
ATOM      7  C   UNN dAMED       0.012  -0.937  -0.659  0.00  0.00     0.285 C 
ATOM      8  C   UNN dAMED       0.577   0.268   0.041  0.00  0.00     0.214 C 
ATOM      9  C   UNN dAMED      -2.172  -0.087  -0.012  0.00  0.00     0.346 C 
ATOM     10  C   UNN dAMED      -2.252   2.053   0.862  0.00  0.00     0.159 C 
ENDROOT
BRANCH   8  11
ATOM     11  C   UNN dAMED       2.050   0.553   0.085  0.00  0.00     0.299 C 
ATOM     12  O   UNN dAMED       2.716  -0.017   0.936  0.00  0.00    -0.264 OA
ATOM     13  N   UNN dAMED       2.433   1.399  -0.859  0.00  0.00    -0.231 NA
ATOM     14  C   UNN dAMED       1.442   2.118  -1.641  0.00  0.00     0.155 C 
ENDBRANCH   8  11
TORSDOF 1
