REMARK  3 active torsions:
REMARK  status: ('A' for Active; 'I' for Inactive)
REMARK    1  A    between atoms: C_13  and  N_18 
REMARK    2  A    between atoms: N_18  and  C_19 
REMARK    3  A    between atoms: C_19  and  C_20 
ROOT
ATOM      1  C   UNN dAMED      -4.963   2.253   0.333  0.00  0.00     0.000 A 
ATOM      2  C   UNN dAMED      -3.858   3.095   0.387  0.00  0.00    -0.000 A 
ATOM      3  C   UNN dAMED      -4.777   0.873   0.314  0.00  0.00     0.004 A 
ATOM      4  C   UNN dAMED      -2.578   2.551   0.428  0.00  0.00    -0.004 A 
ATOM      5  C   UNN dAMED      -3.492   0.319   0.340  0.00  0.00     0.053 A 
ATOM      6  C   UNN dAMED      -2.392   1.167   0.401  0.00  0.00    -0.013 A 
ATOM      7  O   UNN dAMED      -4.416  -1.780   0.687  0.00  0.00    -0.267 OA
ATOM      8  C   UNN dAMED      -3.408  -1.157   0.343  0.00  0.00     0.262 C 
ATOM      9  C   UNN dAMED      -1.016   0.636   0.641  0.00  0.00     0.059 C 
ATOM     10  N   UNN dAMED      -2.309  -1.822  -0.131  0.00  0.00    -0.279 N 
ATOM     11  C   UNN dAMED      -0.399  -0.358  -0.288  0.00  0.00     0.052 A 
ATOM     12  C   UNN dAMED      -1.013  -1.563  -0.556  0.00  0.00     0.147 A 
ATOM     13  C   UNN dAMED       0.912  -0.197  -0.709  0.00  0.00     0.163 A 
ATOM     14  N   UNN dAMED      -0.368  -2.563  -1.196  0.00  0.00    -0.207 NA
ATOM     15  N   UNN dAMED       1.575  -1.160  -1.382  0.00  0.00    -0.205 NA
ATOM     16  C   UNN dAMED       0.894  -2.302  -1.589  0.00  0.00     0.202 A 
ATOM     17  C   UNN dAMED      -2.620  -3.195  -0.323  0.00  0.00     0.135 C 
ENDROOT
BRANCH  13  18
ATOM     18  N   UNN dAMED       1.601   0.925  -0.457  0.00  0.00    -0.225 NA
BRANCH  18  19
ATOM     19  C   UNN dAMED       1.812   1.895  -1.525  0.00  0.00     0.101 C 
BRANCH  19  20
ATOM     20  C   UNN dAMED       1.842   3.387  -1.286  0.00  0.00     0.019 A 
ATOM     21  C   UNN dAMED       2.475   4.199  -2.226  0.00  0.00     0.002 A 
ATOM     22  C   UNN dAMED       2.341   5.585  -2.162  0.00  0.00     0.000 A 
ATOM     23  C   UNN dAMED       1.569   6.164  -1.158  0.00  0.00     0.000 A 
ATOM     24  C   UNN dAMED       0.933   5.358  -0.217  0.00  0.00     0.000 A 
ATOM     25  C   UNN dAMED       1.063   3.973  -0.287  0.00  0.00     0.002 A 
ENDBRANCH  19  20
ENDBRANCH  18  19
ENDBRANCH  13  18
TORSDOF 3
