REMARK  0 active torsions:
REMARK  status: ('A' for Active; 'I' for Inactive)
ROOT
ATOM      1  C   UNN dAMED       2.692  -0.089  -0.134  0.00  0.00     0.197 A 
ATOM      2  N   UNN dAMED       2.440  -0.119  -1.477  0.00  0.00    -0.145 NA
ATOM      3  C   UNN dAMED       1.504  -0.030   0.529  0.00  0.00     0.177 A 
ATOM      4  N   UNN dAMED       1.115  -0.080  -1.649  0.00  0.00     0.012 NA
ATOM      5  N   UNN dAMED       0.530  -0.026  -0.426  0.00  0.00    -0.220 N 
ATOM      6  C   UNN dAMED      -0.857   0.023  -0.243  0.00  0.00     0.080 A 
ATOM      7  C   UNN dAMED      -1.392   0.863   0.732  0.00  0.00     0.020 A 
ATOM      8  C   UNN dAMED      -1.685  -0.770  -1.038  0.00  0.00     0.020 A 
ATOM      9  C   UNN dAMED      -3.066  -0.721  -0.854  0.00  0.00     0.013 A 
ATOM     10  C   UNN dAMED      -2.773   0.910   0.914  0.00  0.00     0.013 A 
ATOM     11  C   UNN dAMED      -3.600   0.118   0.121  0.00  0.00     0.058 A 
ATOM     12 CL   UNN dAMED      -5.299   0.178   0.348  0.00  0.00    -0.082 Cl
ATOM     13  C   UNN dAMED       4.013  -0.119   0.391  0.00  0.00     0.124 C 
ATOM     14  N   UNN dAMED       5.104  -0.159   0.787  0.00  0.00    -0.190 NA
ATOM     15  N   UNN dAMED       1.305   0.012   1.930  0.00  0.00    -0.078 NA
ENDROOT
TORSDOF 0
