REMARK  3 active torsions:
REMARK  status: ('A' for Active; 'I' for Inactive)
REMARK    1  A    between atoms: C_12  and  C_19 
REMARK    2  A    between atoms: C_19  and  O_21 
REMARK    3  A    between atoms: O_21  and  C_22 
ROOT
ATOM      1 CL   UNN dAMED       5.087  -2.468  -0.675  0.00  0.00    -0.082 Cl
ATOM      2 CL   UNN dAMED       0.024  -4.173  -0.429  0.00  0.00    -0.081 Cl
ATOM      3  N   UNN dAMED      -0.641  -1.248  -0.052  0.00  0.00    -0.245 NA
ATOM      4  N   UNN dAMED      -4.483   1.304  -0.493  0.00  0.00    -0.242 NA
ATOM      5  C   UNN dAMED      -5.114   0.818   0.597  0.00  0.00     0.099 A 
ATOM      6  C   UNN dAMED      -4.499   0.061   1.580  0.00  0.00     0.021 A 
ATOM      7  C   UNN dAMED      -3.143  -0.206   1.434  0.00  0.00     0.005 A 
ATOM      8  C   UNN dAMED      -2.445   0.271   0.326  0.00  0.00     0.037 A 
ATOM      9  C   UNN dAMED      -3.169   1.012  -0.601  0.00  0.00     0.100 A 
ATOM     10  C   UNN dAMED      -1.023   0.038   0.159  0.00  0.00     0.083 A 
ATOM     11  C   UNN dAMED      -0.128   1.094   0.193  0.00  0.00     0.025 A 
ATOM     12  C   UNN dAMED       1.210   0.814  -0.033  0.00  0.00     0.066 A 
ATOM     13  C   UNN dAMED       1.640  -0.506  -0.230  0.00  0.00     0.025 A 
ATOM     14  C   UNN dAMED       1.128  -2.844  -0.400  0.00  0.00     0.076 A 
ATOM     15  C   UNN dAMED       2.483  -3.149  -0.548  0.00  0.00     0.024 A 
ATOM     16  C   UNN dAMED       0.671  -1.531  -0.226  0.00  0.00     0.092 A 
ATOM     17  C   UNN dAMED       3.414  -2.127  -0.543  0.00  0.00     0.059 A 
ATOM     18  C   UNN dAMED       2.996  -0.816  -0.399  0.00  0.00     0.013 A 
ENDROOT
BRANCH  12  19
ATOM     19  C   UNN dAMED       2.162   1.937  -0.021  0.00  0.00     0.296 C 
ATOM     20  O   UNN dAMED       3.186   1.976   0.637  0.00  0.00    -0.259 OA
BRANCH  19  21
ATOM     21  O   UNN dAMED       1.734   2.889  -0.878  0.00  0.00    -0.298 OA
BRANCH  21  22
ATOM     22  C   UNN dAMED       2.869   3.644  -1.184  0.00  0.00     0.152 C 
ATOM     23  C   UNN dAMED       3.853   4.040  -0.078  0.00  0.00     0.035 C 
ENDBRANCH  21  22
ENDBRANCH  19  21
ENDBRANCH  12  19
TORSDOF 3
