REMARK  0 active torsions:
REMARK  status: ('A' for Active; 'I' for Inactive)
ROOT
ATOM      1  C   UNN dAMED      -3.452  -1.002  -0.257  0.00  0.00     0.006 A 
ATOM      2  C   UNN dAMED      -4.306   0.063   0.046  0.00  0.00     0.001 A 
ATOM      3  C   UNN dAMED      -3.796   1.320   0.395  0.00  0.00     0.000 A 
ATOM      4  C   UNN dAMED      -2.422   1.550   0.452  0.00  0.00     0.002 A 
ATOM      5  C   UNN dAMED      -1.570   0.505   0.155  0.00  0.00     0.024 A 
ATOM      6  C   UNN dAMED      -2.093  -0.746  -0.194  0.00  0.00     0.031 A 
ATOM      7  S   UNN dAMED      -0.850  -1.928  -0.535  0.00  0.00    -0.085 SA
ATOM      8  C   UNN dAMED       0.321  -0.737  -0.201  0.00  0.00     0.049 A 
ATOM      9  C   UNN dAMED      -0.238   0.538   0.158  0.00  0.00     0.088 A 
ATOM     10  C   UNN dAMED       1.636  -0.662  -0.191  0.00  0.00     0.025 A 
ATOM     11  C   UNN dAMED       1.836   0.742   0.195  0.00  0.00     0.082 A 
ATOM     12  N   UNN dAMED       0.754   1.446   0.401  0.00  0.00    -0.245 NA
ATOM     13  C   UNN dAMED       2.750  -1.589  -0.504  0.00  0.00     0.002 C 
ATOM     14  C   UNN dAMED       3.971  -1.050  -0.472  0.00  0.00     0.000 C 
ATOM     15  C   UNN dAMED       4.218   0.323   0.209  0.00  0.00     0.002 C 
ATOM     16  C   UNN dAMED       3.243   1.228   0.344  0.00  0.00     0.019 C 
ENDROOT
TORSDOF 0
