REMARK  2 active torsions:
REMARK  status: ('A' for Active; 'I' for Inactive)
REMARK    1  A    between atoms: C_3  and  N_11 
REMARK    2  A    between atoms: C_5  and  N_10 
ROOT
ATOM      1  C   UNN dAMED       0.270   0.035  -1.375  0.00  0.00     0.020 A 
ATOM      2  C   UNN dAMED      -1.050  -0.046  -0.917  0.00  0.00     0.020 A 
ATOM      3  C   UNN dAMED       1.341   0.199  -0.491  0.00  0.00     0.084 A 
ATOM      4  C   UNN dAMED       1.037   0.243   0.872  0.00  0.00     0.020 A 
ATOM      5  C   UNN dAMED      -1.363   0.003   0.449  0.00  0.00     0.084 A 
ATOM      6  C   UNN dAMED      -0.283   0.153   1.326  0.00  0.00     0.020 A 
ENDROOT
BRANCH   3   7
ATOM      7  N   UNN dAMED       2.618   0.188  -0.921  0.00  0.00    -0.213 NA
ATOM      8  C   UNN dAMED       3.044   1.413  -1.204  0.00  0.00     0.257 C 
ATOM      9  N   UNN dAMED       2.322   2.551  -0.747  0.00  0.00    -0.059 NA
ATOM     10  N   UNN dAMED       4.342   1.506  -1.449  0.00  0.00    -0.111 N 
ENDBRANCH   3   7
BRANCH   5  11
ATOM     11  N   UNN dAMED      -2.612  -0.024   0.968  0.00  0.00    -0.213 NA
ATOM     12  C   UNN dAMED      -3.551  -0.415   0.124  0.00  0.00     0.257 C 
ATOM     13  N   UNN dAMED      -4.636  -0.938   0.665  0.00  0.00    -0.111 N 
ATOM     14  N   UNN dAMED      -3.300  -0.515  -1.272  0.00  0.00    -0.059 NA
ENDBRANCH   5  11
TORSDOF 2
