REMARK  2 active torsions:
REMARK  status: ('A' for Active; 'I' for Inactive)
REMARK    1  A    between atoms: C_5  and  C_14 
REMARK    2  A    between atoms: C_11  and  C_15 
ROOT
ATOM      1  C   UNN dAMED      -0.065  -0.873   0.541  0.00  0.00     0.002 C 
ATOM      2  C   UNN dAMED       0.871   0.029   0.831  0.00  0.00     0.021 C 
ENDROOT
BRANCH   1   3
ATOM      3  C   UNN dAMED      -1.386  -0.826   1.255  0.00  0.00     0.000 A 
ATOM      4  C   UNN dAMED      -1.563  -1.557   2.420  0.00  0.00     0.003 A 
ATOM      5  C   UNN dAMED      -2.717  -1.367   3.186  0.00  0.00     0.042 A 
ATOM      6  C   UNN dAMED      -3.731  -0.457   2.847  0.00  0.00     0.196 A 
ATOM      7  C   UNN dAMED      -3.496   0.255   1.659  0.00  0.00     0.042 A 
ATOM      8  O   UNN dAMED      -4.776  -0.292   3.556  0.00  0.00    -0.287 OA
ATOM      9  C   UNN dAMED      -2.353   0.090   0.871  0.00  0.00     0.003 A 
ENDBRANCH   1   3
BRANCH   2  10
ATOM     10  C   UNN dAMED       2.275  -0.149   0.327  0.00  0.00     0.101 A 
ATOM     11  N   UNN dAMED       2.696  -1.382  -0.021  0.00  0.00    -0.241 NA
ATOM     12  C   UNN dAMED       3.988  -1.495  -0.389  0.00  0.00     0.120 A 
ATOM     13  C   UNN dAMED       4.837  -0.410  -0.406  0.00  0.00     0.120 A 
ATOM     14  N   UNN dAMED       4.419   0.824  -0.060  0.00  0.00    -0.239 NA
ATOM     15  C   UNN dAMED       3.127   0.936   0.309  0.00  0.00     0.118 A 
ENDBRANCH   2  10
TORSDOF 2
