REMARK  0 active torsions:
REMARK  status: ('A' for Active; 'I' for Inactive)
ROOT
ATOM      1  N   UNN dAMED      -0.038   0.947  -0.380  0.00  0.00    -0.246 NA
ATOM      2  C   UNN dAMED       2.481  -1.524   0.657  0.00  0.00     0.002 A 
ATOM      3  C   UNN dAMED       1.239  -0.941   0.400  0.00  0.00     0.017 A 
ATOM      4  C   UNN dAMED       3.648  -0.816   0.395  0.00  0.00    -0.000 A 
ATOM      5  C   UNN dAMED       0.066  -1.637   0.656  0.00  0.00     0.003 A 
ATOM      6  C   UNN dAMED      -1.159  -1.040   0.394  0.00  0.00     0.017 A 
ATOM      7  C   UNN dAMED      -2.350  -1.724   0.646  0.00  0.00     0.002 A 
ATOM      8  C   UNN dAMED      -3.570  -1.114   0.379  0.00  0.00    -0.000 A 
ATOM      9  C   UNN dAMED       3.568   0.472  -0.121  0.00  0.00    -0.003 A 
ATOM     10  C   UNN dAMED       1.144   0.361  -0.123  0.00  0.00     0.077 A 
ATOM     11  C   UNN dAMED      -1.169   0.265  -0.128  0.00  0.00     0.077 A 
ATOM     12  C   UNN dAMED      -3.594   0.176  -0.138  0.00  0.00    -0.003 A 
ATOM     13  C   UNN dAMED       2.321   1.045  -0.375  0.00  0.00    -0.004 A 
ATOM     14  C   UNN dAMED      -2.398   0.850  -0.386  0.00  0.00    -0.004 A 
ATOM     15  C   UNN dAMED      -2.434   2.243  -0.944  0.00  0.00     0.033 C 
ATOM     16  C   UNN dAMED       2.245   2.437  -0.933  0.00  0.00     0.033 C 
ENDROOT
TORSDOF 0
