REMARK  2 active torsions:
REMARK  status: ('A' for Active; 'I' for Inactive)
REMARK       I    between atoms: C_10  and  N_14 
REMARK       I    between atoms: C_11  and  N_13 
REMARK    1  A    between atoms: N_13  and  C_18 
REMARK    2  A    between atoms: N_14  and  C_15 
ROOT
ATOM      1  N   UNN dAMED      -5.230  -0.305  -0.310  0.00  0.00    -0.242 NA
ATOM      2  C   UNN dAMED      -4.614   0.870  -0.065  0.00  0.00     0.099 A 
ATOM      3  C   UNN dAMED      -4.429  -1.380  -0.465  0.00  0.00     0.099 A 
ATOM      4  C   UNN dAMED      -3.239   1.018   0.023  0.00  0.00     0.024 A 
ATOM      5  C   UNN dAMED      -3.046  -1.333  -0.382  0.00  0.00     0.024 A 
ATOM      6  C   UNN dAMED      -2.424  -0.106  -0.137  0.00  0.00     0.040 A 
ATOM      7  C   UNN dAMED      -0.969  -0.002  -0.048  0.00  0.00     0.199 A 
ATOM      8  N   UNN dAMED      -0.460   1.013   0.680  0.00  0.00    -0.039 NA
ATOM      9  N   UNN dAMED      -0.233  -0.931  -0.692  0.00  0.00    -0.039 NA
ATOM     10  C   UNN dAMED       1.099  -0.790  -0.558  0.00  0.00     0.766 A 
ATOM     11  C   UNN dAMED       0.884   1.062   0.723  0.00  0.00     0.762 A 
ATOM     12  N   UNN dAMED       1.715   0.188   0.130  0.00  0.00     0.134 NA
ATOM     13  N   UNN dAMED       1.439   2.065   1.413  0.00  0.00    -0.085 NA
ATOM     14  N   UNN dAMED       1.878  -1.712  -1.136  0.00  0.00    -0.067 NA
ENDROOT
BRANCH  13  15
ATOM     15  C   UNN dAMED       0.639   2.832   2.354  0.00  0.00     0.145 C 
ATOM     16  C   UNN dAMED       0.498   2.361   3.805  0.00  0.00     0.029 C 
ENDBRANCH  13  15
BRANCH  14  17
ATOM     17  C   UNN dAMED       1.624  -2.144  -2.500  0.00  0.00     0.056 C 
ATOM     18  C   UNN dAMED       0.333  -2.902  -2.821  0.00  0.00     0.048 C 
ATOM     19  C   UNN dAMED       2.781  -2.176  -3.503  0.00  0.00     0.048 C 
ENDBRANCH  14  17
TORSDOF 2
