REMARK  3 active torsions:
REMARK  status: ('A' for Active; 'I' for Inactive)
REMARK    1  A    between atoms: C_6  and  S_7 
REMARK    2  A    between atoms: S_7  and  N_18 
REMARK       I    between atoms: C_10  and  N_18 
REMARK       I    between atoms: C_10  and  N_19 
REMARK    3  A    between atoms: C_13  and  N_19 
ROOT
ATOM      1  S   UNN dAMED      -0.354   0.914  -1.333  0.00  0.00     0.289 S 
ATOM      2  O   UNN dAMED      -0.676   2.297  -1.676  0.00  0.00    -0.198 OA
ATOM      3  O   UNN dAMED      -0.300  -0.005  -2.468  0.00  0.00    -0.198 OA
ENDROOT
BRANCH   1   4
ATOM      4  C   UNN dAMED      -1.844   0.367  -0.505  0.00  0.00     0.105 A 
ATOM      5  C   UNN dAMED      -2.056  -1.000  -0.339  0.00  0.00     0.013 A 
ATOM      6  C   UNN dAMED      -3.231  -1.428   0.272  0.00  0.00    -0.004 A 
ATOM      7  C   UNN dAMED      -4.176  -0.496   0.698  0.00  0.00    -0.022 A 
ATOM      8  C   UNN dAMED      -3.948   0.869   0.524  0.00  0.00    -0.004 A 
ATOM      9  C   UNN dAMED      -5.365  -0.950   1.494  0.00  0.00     0.031 C 
ATOM     10  C   UNN dAMED      -2.777   1.310  -0.083  0.00  0.00     0.013 A 
ENDBRANCH   1   4
BRANCH   1  11
ATOM     11  N   UNN dAMED       0.843   0.736  -0.279  0.00  0.00    -0.100 NA
ATOM     12  C   UNN dAMED       1.876   1.578  -0.482  0.00  0.00     0.381 C 
ATOM     13  O   UNN dAMED       2.036   2.628   0.137  0.00  0.00    -0.242 OA
ATOM     14  N   UNN dAMED       2.673   1.153  -1.480  0.00  0.00    -0.165 NA
BRANCH  14  15
ATOM     15  C   UNN dAMED       3.883   0.687  -1.079  0.00  0.00     0.199 A 
ATOM     16  N   UNN dAMED       4.542   1.002   0.021  0.00  0.00    -0.219 NA
ATOM     17  C   UNN dAMED       5.771   0.376   0.020  0.00  0.00     0.108 A 
ATOM     18  C   UNN dAMED       6.040  -0.392  -1.083  0.00  0.00     0.059 A 
ATOM     19  S   UNN dAMED       4.720  -0.385  -2.149  0.00  0.00    -0.046 SA
ENDBRANCH  14  15
ENDBRANCH   1  11
TORSDOF 3
