REMARK  2 active torsions:
REMARK  status: ('A' for Active; 'I' for Inactive)
REMARK    1  A    between atoms: C_3  and  N_11 
REMARK    2  A    between atoms: C_7  and  N_14 
ROOT
ATOM      1  N   UNN dAMED       2.562  -0.658   0.433  0.00  0.00    -0.241 NA
ATOM      2  C   UNN dAMED       0.370  -1.568   0.063  0.00  0.00     0.235 A 
ATOM      3  C   UNN dAMED      -0.994  -1.237  -0.183  0.00  0.00     0.169 A 
ATOM      4  C   UNN dAMED       1.242  -0.453   0.214  0.00  0.00     0.123 A 
ATOM      5  C   UNN dAMED       0.745   0.875   0.137  0.00  0.00     0.043 A 
ATOM      6  C   UNN dAMED      -1.509   0.050  -0.283  0.00  0.00     0.050 A 
ATOM      7  C   UNN dAMED      -0.620   1.088  -0.111  0.00  0.00     0.130 A 
ATOM      8  C   UNN dAMED       1.646   1.937   0.304  0.00  0.00     0.005 A 
ATOM      9  C   UNN dAMED       3.394   0.399   0.577  0.00  0.00     0.099 A 
ATOM     10  C   UNN dAMED       2.992   1.713   0.525  0.00  0.00     0.021 A 
ATOM     11  O   UNN dAMED       0.793  -2.777   0.143  0.00  0.00    -0.283 OA
ENDROOT
BRANCH   3  12
ATOM     12  N   UNN dAMED      -1.978  -2.288  -0.340  0.00  0.00    -0.110 N 
ATOM     13  O   UNN dAMED      -2.644  -2.583   0.661  0.00  0.00    -0.532 OA
ATOM     14  O   UNN dAMED      -2.083  -2.795  -1.463  0.00  0.00    -0.532 OA
ENDBRANCH   3  12
BRANCH   7  15
ATOM     15  N   UNN dAMED      -1.162   2.420  -0.204  0.00  0.00    -0.114 N 
ATOM     16  O   UNN dAMED      -1.821   2.824   0.762  0.00  0.00    -0.532 OA
ATOM     17  O   UNN dAMED      -0.939   3.045  -1.248  0.00  0.00    -0.532 OA
ENDBRANCH   7  15
TORSDOF 2
