REMARK  2 active torsions:
REMARK  status: ('A' for Active; 'I' for Inactive)
REMARK    1  A    between atoms: C_6  and  N_14 
REMARK    2  A    between atoms: C_11  and  N_14 
ROOT
ATOM      1  C   UNN dAMED      -0.452   1.347  -0.465  0.00  0.00     0.006 C 
ATOM      2  C   UNN dAMED      -0.814   2.077   0.833  0.00  0.00     0.000 C 
ATOM      3  C   UNN dAMED      -0.796  -0.134  -0.652  0.00  0.00     0.042 C 
ATOM      4  C   UNN dAMED      -0.280  -1.206   0.312  0.00  0.00     0.040 C 
ATOM      5  C   UNN dAMED      -2.142   1.791   1.543  0.00  0.00     0.000 C 
ATOM      6  C   UNN dAMED      -0.330  -0.905   1.813  0.00  0.00     0.042 C 
ATOM      7  C   UNN dAMED      -2.181   0.776   2.691  0.00  0.00     0.000 C 
ATOM      8  C   UNN dAMED      -1.681  -0.658   2.490  0.00  0.00     0.006 C 
ENDROOT
BRANCH   4   9
ATOM      9  N   UNN dAMED      -0.453  -2.593  -0.087  0.00  0.00    -0.214 NA
BRANCH   9  10
ATOM     10  C   UNN dAMED       0.564  -3.284  -0.554  0.00  0.00     0.265 A 
ATOM     11  O   UNN dAMED       1.670  -2.561  -0.932  0.00  0.00    -0.298 OA
ATOM     12  C   UNN dAMED       2.540  -3.574  -1.371  0.00  0.00     0.178 A 
ATOM     13  C   UNN dAMED       1.862  -4.917  -1.219  0.00  0.00     0.162 A 
ATOM     14  N   UNN dAMED       0.602  -4.575  -0.685  0.00  0.00    -0.229 NA
ENDBRANCH   9  10
ENDBRANCH   4   9
TORSDOF 2
