REMARK  2 active torsions:
REMARK  status: ('A' for Active; 'I' for Inactive)
REMARK    1  A    between atoms: C_5  and  S_7 
REMARK    2  A    between atoms: S_7  and  C_15 
ROOT
ATOM      1  C   UNN dAMED      -0.815  -0.991  -1.048  0.00  0.00     0.269 A 
ATOM      2  N   UNN dAMED      -1.495  -0.171  -0.162  0.00  0.00    -0.244 N 
ATOM      3  C   UNN dAMED      -0.679   0.836   0.323  0.00  0.00     0.249 A 
ATOM      4  C   UNN dAMED       0.724   0.633  -0.180  0.00  0.00     0.126 A 
ATOM      5  C   UNN dAMED       0.632  -0.574  -1.096  0.00  0.00     0.073 A 
ATOM      6  O   UNN dAMED      -1.280  -1.696  -1.933  0.00  0.00    -0.266 OA
ATOM      7  O   UNN dAMED      -0.990   1.888   0.860  0.00  0.00    -0.271 OA
ATOM      8  C   UNN dAMED      -2.895  -0.105  -0.118  0.00  0.00     0.080 A 
ATOM      9  C   UNN dAMED      -3.552   0.668  -1.079  0.00  0.00     0.019 A 
ATOM     10  C   UNN dAMED      -4.940   0.758  -1.078  0.00  0.00     0.002 A 
ATOM     11  C   UNN dAMED      -5.679   0.079  -0.113  0.00  0.00     0.001 A 
ATOM     12  C   UNN dAMED      -5.030  -0.698   0.844  0.00  0.00     0.013 A 
ATOM     13  C   UNN dAMED      -3.640  -0.796   0.843  0.00  0.00     0.074 A 
ATOM     14 CL   UNN dAMED      -2.907  -1.795   2.040  0.00  0.00    -0.081 Cl
ENDROOT
BRANCH   5  15
ATOM     15  S   UNN dAMED       1.939  -1.800  -1.120  0.00  0.00    -0.085 SA
BRANCH  15  16
ATOM     16  C   UNN dAMED       3.246  -0.671  -0.728  0.00  0.00     0.042 A 
ATOM     17  C   UNN dAMED       4.485  -1.173  -0.333  0.00  0.00     0.007 A 
ATOM     18  C   UNN dAMED       5.539  -0.304  -0.063  0.00  0.00     0.001 A 
ATOM     19  C   UNN dAMED       5.355   1.071  -0.185  0.00  0.00     0.001 A 
ATOM     20  C   UNN dAMED       4.116   1.576  -0.573  0.00  0.00     0.015 A 
ATOM     21  C   UNN dAMED       3.063   0.705  -0.846  0.00  0.00     0.076 A 
ATOM     22  N   UNN dAMED       1.813   1.224  -1.287  0.00  0.00    -0.100 NA
ENDBRANCH  15  16
ENDBRANCH   5  15
TORSDOF 2
