REMARK  2 active torsions:
REMARK  status: ('A' for Active; 'I' for Inactive)
REMARK    1  A    between atoms: C_6  and  N_18 
REMARK    2  A    between atoms: C_13  and  C_19 
REMARK       I    between atoms: N_18  and  C_19 
ROOT
ATOM      1  C   UNN dAMED      -3.713   1.166  -1.176  0.00  0.00     0.000 A 
ATOM      2  C   UNN dAMED      -5.102   1.152  -1.072  0.00  0.00     0.000 A 
ATOM      3  C   UNN dAMED      -2.939   0.346  -0.356  0.00  0.00     0.002 A 
ATOM      4  C   UNN dAMED      -1.545   0.354  -0.454  0.00  0.00     0.019 A 
ATOM      5  C   UNN dAMED      -0.740  -0.451   0.362  0.00  0.00     0.085 A 
ATOM      6  C   UNN dAMED      -5.724   0.316  -0.147  0.00  0.00     0.000 A 
ATOM      7  C   UNN dAMED      -3.565  -0.493   0.586  0.00  0.00     0.000 A 
ATOM      8  C   UNN dAMED      -1.387  -1.262   1.306  0.00  0.00     0.019 A 
ATOM      9  C   UNN dAMED      -4.958  -0.503   0.682  0.00  0.00     0.000 A 
ATOM     10  C   UNN dAMED      -2.780  -1.297   1.411  0.00  0.00     0.002 A 
ENDROOT
BRANCH   5  11
ATOM     11  N   UNN dAMED       0.605  -0.339   0.300  0.00  0.00    -0.208 NA
ATOM     12  C   UNN dAMED       1.224  -1.424  -0.177  0.00  0.00     0.279 C 
ATOM     13  O   UNN dAMED       0.864  -2.185  -1.074  0.00  0.00    -0.265 OA
BRANCH  12  14
ATOM     14  C   UNN dAMED       2.560  -1.649   0.409  0.00  0.00     0.060 A 
ATOM     15  C   UNN dAMED       2.701  -1.838   1.785  0.00  0.00     0.005 A 
ATOM     16  C   UNN dAMED       3.969  -2.052   2.323  0.00  0.00     0.003 A 
ATOM     17  C   UNN dAMED       5.083  -2.111   1.488  0.00  0.00     0.030 A 
ATOM     18  C   UNN dAMED       4.920  -1.947   0.115  0.00  0.00     0.140 A 
ATOM     19  F   UNN dAMED       5.989  -2.038  -0.688  0.00  0.00    -0.204 F 
ATOM     20  C   UNN dAMED       3.666  -1.708  -0.437  0.00  0.00     0.034 A 
ENDBRANCH  12  14
ENDBRANCH   5  11
TORSDOF 2
