REMARK  3 active torsions:
REMARK  status: ('A' for Active; 'I' for Inactive)
REMARK    1  A    between atoms: S_6  and  C_8 
REMARK    2  A    between atoms: S_6  and  C_10 
REMARK    3  A    between atoms: C_7  and  S_16 
ROOT
ATOM      1  O   UNN dAMED       4.067  -0.815  -0.702  0.00  0.00    -0.243 OA
ATOM      2  N   UNN dAMED       2.349   0.644  -0.372  0.00  0.00    -0.183 NA
ATOM      3  N   UNN dAMED       2.118  -1.676   0.080  0.00  0.00    -0.226 N 
ATOM      4  H   UNN dAMED       2.503  -2.614   0.120  0.00  0.00     0.194 HD
ATOM      5  N   UNN dAMED       0.910  -1.540   0.673  0.00  0.00    -0.160 NA
ATOM      6  C   UNN dAMED       1.177   0.802   0.135  0.00  0.00     0.137 C 
ATOM      7  C   UNN dAMED       0.444  -0.340   0.746  0.00  0.00     0.154 C 
ATOM      8  C   UNN dAMED       2.910  -0.613  -0.334  0.00  0.00     0.363 C 
ENDROOT
BRANCH   7   9
ATOM      9  S   UNN dAMED      -0.911   0.092   1.734  0.00  0.00    -0.064 SA
BRANCH   9  10
ATOM     10  C   UNN dAMED      -0.879  -1.148   3.007  0.00  0.00     0.031 A 
ATOM     11  C   UNN dAMED      -1.972  -2.004   3.151  0.00  0.00     0.006 A 
ATOM     12  C   UNN dAMED      -1.998  -2.947   4.176  0.00  0.00     0.001 A 
ATOM     13  C   UNN dAMED      -0.928  -3.037   5.064  0.00  0.00     0.000 A 
ATOM     14  C   UNN dAMED       0.165  -2.184   4.927  0.00  0.00     0.001 A 
ATOM     15  C   UNN dAMED       0.185  -1.234   3.908  0.00  0.00     0.006 A 
ENDBRANCH   9  10
ENDBRANCH   7   9
BRANCH   6  16
ATOM     16  S   UNN dAMED       0.280   2.255  -0.122  0.00  0.00    -0.092 SA
ATOM     17  C   UNN dAMED       1.403   2.907  -1.356  0.00  0.00     0.076 C 
ENDBRANCH   6  16
TORSDOF 3
