REMARK  0 active torsions:
REMARK  status: ('A' for Active; 'I' for Inactive)
ROOT
ATOM      1  C   UNN dAMED      -4.470   0.505   1.078  0.00  0.00     0.099 A 
ATOM      2  C   UNN dAMED      -3.097   0.452   0.889  0.00  0.00     0.024 A 
ATOM      3  C   UNN dAMED      -2.609  -0.315  -0.167  0.00  0.00     0.041 A 
ATOM      4  C   UNN dAMED      -4.861  -0.884  -0.706  0.00  0.00     0.099 A 
ATOM      5  C   UNN dAMED      -1.186  -0.413  -0.420  0.00  0.00     0.191 A 
ATOM      6  C   UNN dAMED      -3.508  -0.997  -0.983  0.00  0.00     0.024 A 
ATOM      7  C   UNN dAMED       2.939  -1.894  -1.135  0.00  0.00     0.004 A 
ATOM      8  C   UNN dAMED       0.632  -1.090  -1.236  0.00  0.00     0.209 A 
ATOM      9  C   UNN dAMED       4.067  -2.511  -1.673  0.00  0.00     0.000 A 
ATOM     10  C   UNN dAMED       1.761  -1.743  -1.878  0.00  0.00     0.054 A 
ATOM     11  C   UNN dAMED       4.032  -3.003  -2.971  0.00  0.00     0.001 A 
ATOM     12  C   UNN dAMED       1.740  -2.247  -3.186  0.00  0.00     0.061 A 
ATOM     13  C   UNN dAMED       2.869  -2.874  -3.723  0.00  0.00     0.011 A 
ATOM     14  N   UNN dAMED      -5.366  -0.147   0.306  0.00  0.00    -0.242 NA
ATOM     15  N   UNN dAMED      -0.271   0.394   0.140  0.00  0.00    -0.105 NA
ATOM     16  O   UNN dAMED       0.934  -0.050  -0.401  0.00  0.00    -0.190 OA
ATOM     17  N   UNN dAMED      -0.653  -1.359  -1.271  0.00  0.00    -0.199 NA
ATOM     18 CL   UNN dAMED       0.357  -2.154  -4.212  0.00  0.00    -0.082 Cl
ENDROOT
TORSDOF 0
