REMARK  2 active torsions:
REMARK  status: ('A' for Active; 'I' for Inactive)
REMARK    1  A    between atoms: C_12  and  N_18 
REMARK    2  A    between atoms: N_18  and  C_19 
ROOT
ATOM      1 CL   UNN dAMED       7.246  -3.381   0.322  0.00  0.00    -0.082 Cl
ATOM      2 CL   UNN dAMED       8.026  -1.662  -2.339  0.00  0.00    -0.082 Cl
ATOM      3  C   UNN dAMED       4.900  -2.111   0.161  0.00  0.00     0.011 A 
ATOM      4  C   UNN dAMED       3.966  -1.228  -0.385  0.00  0.00     0.012 A 
ATOM      5  C   UNN dAMED       6.160  -2.268  -0.420  0.00  0.00     0.068 A 
ATOM      6  C   UNN dAMED       6.497  -1.528  -1.556  0.00  0.00     0.068 A 
ATOM      7  C   UNN dAMED       4.324  -0.474  -1.507  0.00  0.00    -0.001 A 
ATOM      8  C   UNN dAMED       2.628  -1.027   0.244  0.00  0.00     0.187 C 
ATOM      9  C   UNN dAMED       2.235   0.474   0.166  0.00  0.00     0.038 C 
ATOM     10  C   UNN dAMED       0.861   0.758   0.787  0.00  0.00     0.004 C 
ATOM     11  C   UNN dAMED       3.308   1.393   0.760  0.00  0.00     0.004 C 
ATOM     12  C   UNN dAMED       2.661  -1.188   1.820  0.00  0.00     0.117 C 
ATOM     13  C   UNN dAMED       3.377   1.162   2.262  0.00  0.00     0.007 C 
ATOM     14  C   UNN dAMED       0.940   0.544   2.292  0.00  0.00     0.007 C 
ATOM     15  C   UNN dAMED       2.357   0.084   2.615  0.00  0.00     0.051 C 
ATOM     16  C   UNN dAMED       5.577  -0.632  -2.095  0.00  0.00     0.012 A 
ATOM     17  O   UNN dAMED       1.687  -1.749  -0.317  0.00  0.00    -0.215 OA
ENDROOT
BRANCH  12  18
ATOM     18  N   UNN dAMED       2.541  -2.443   2.481  0.00  0.00    -0.417 NA
BRANCH  18  19
ATOM     19  C   UNN dAMED       2.388  -3.691   3.128  0.00  0.00     0.087 C 
ATOM     20  C   UNN dAMED       2.785  -4.974   2.389  0.00  0.00     0.061 C 
ATOM     21  C   UNN dAMED       1.497  -3.785   4.371  0.00  0.00     0.061 C 
ENDBRANCH  18  19
ENDBRANCH  12  18
TORSDOF 2
