REMARK  1 active torsions:
REMARK  status: ('A' for Active; 'I' for Inactive)
REMARK    1  A    between atoms: C_9  and  N_22 
ROOT
ATOM      1  C   UNN dAMED       4.508  -0.681  -1.636  0.00  0.00    -0.000 A 
ATOM      2  C   UNN dAMED       4.340  -0.966  -0.283  0.00  0.00    -0.000 A 
ATOM      3  C   UNN dAMED       3.538   0.049  -2.320  0.00  0.00    -0.000 A 
ATOM      4  C   UNN dAMED       2.399   0.492  -1.653  0.00  0.00    -0.004 A 
ATOM      5  C   UNN dAMED       3.201  -0.523   0.385  0.00  0.00    -0.004 A 
ATOM      6  C   UNN dAMED       2.226   0.198  -0.302  0.00  0.00    -0.020 A 
ATOM      7  C   UNN dAMED       1.018   0.719   0.437  0.00  0.00     0.059 A 
ATOM      8  C   UNN dAMED      -0.346   0.037   0.462  0.00  0.00     0.069 A 
ATOM      9  C   UNN dAMED       0.516  -0.005   1.717  0.00  0.00     0.162 A 
ATOM     10  C   UNN dAMED      -1.530   0.901   0.322  0.00  0.00    -0.017 A 
ATOM     11  C   UNN dAMED      -0.606  -1.229  -0.244  0.00  0.00    -0.017 A 
ATOM     12  C   UNN dAMED       0.133  -2.388  -0.393  0.00  0.00    -0.004 A 
ATOM     13  C   UNN dAMED      -0.426  -3.435  -1.127  0.00  0.00    -0.000 A 
ATOM     14  C   UNN dAMED      -1.808   2.186   0.748  0.00  0.00    -0.004 A 
ATOM     15  C   UNN dAMED      -3.049   2.736   0.417  0.00  0.00    -0.000 A 
ATOM     16  C   UNN dAMED      -1.708  -3.327  -1.689  0.00  0.00    -0.000 A 
ATOM     17  C   UNN dAMED      -1.917  -1.132  -0.803  0.00  0.00    -0.004 A 
ATOM     18  C   UNN dAMED      -2.484   0.177  -0.457  0.00  0.00    -0.004 A 
ATOM     19  C   UNN dAMED      -3.987   2.015  -0.337  0.00  0.00    -0.000 A 
ATOM     20  C   UNN dAMED      -2.472  -2.172  -1.527  0.00  0.00    -0.000 A 
ATOM     21  C   UNN dAMED      -3.711   0.724  -0.788  0.00  0.00    -0.000 A 
ENDROOT
BRANCH   9  22
ATOM     22  N   UNN dAMED       0.237   0.745   2.903  0.00  0.00    -0.139 N 
ATOM     23  O   UNN dAMED      -0.549   0.246   3.717  0.00  0.00    -0.536 OA
ATOM     24  O   UNN dAMED       0.856   1.804   3.061  0.00  0.00    -0.536 OA
ENDBRANCH   9  22
TORSDOF 1
