REMARK  0 active torsions:
REMARK  status: ('A' for Active; 'I' for Inactive)
ROOT
ATOM      1  N   UNN dAMED      -0.955  -1.166  -0.373  0.00  0.00    -0.245 NA
ATOM      2  C   UNN dAMED       2.869  -2.698  -1.173  0.00  0.00     0.000 A 
ATOM      3  C   UNN dAMED       3.967  -2.180  -0.504  0.00  0.00    -0.000 A 
ATOM      4  C   UNN dAMED       1.624  -2.083  -1.034  0.00  0.00     0.001 A 
ATOM      5  C   UNN dAMED       3.830  -1.027   0.259  0.00  0.00    -0.004 A 
ATOM      6  C   UNN dAMED       1.445  -0.919  -0.272  0.00  0.00     0.014 A 
ATOM      7  C   UNN dAMED       2.589  -0.394   0.366  0.00  0.00    -0.015 A 
ATOM      8  C   UNN dAMED       0.098  -0.317  -0.175  0.00  0.00     0.083 A 
ATOM      9  C   UNN dAMED       2.535   0.877   1.168  0.00  0.00     0.062 C 
ATOM     10  C   UNN dAMED      -0.088   1.026   0.146  0.00  0.00     0.039 A 
ATOM     11  C   UNN dAMED       1.119   1.836   0.527  0.00  0.00     0.113 C 
ATOM     12  C   UNN dAMED      -1.382   1.500   0.314  0.00  0.00     0.005 A 
ATOM     13  C   UNN dAMED      -2.458   0.644   0.127  0.00  0.00     0.018 A 
ATOM     14  C   UNN dAMED      -3.306  -1.519  -0.428  0.00  0.00     0.019 A 
ATOM     15  C   UNN dAMED      -4.617  -1.067  -0.255  0.00  0.00     0.002 A 
ATOM     16  C   UNN dAMED      -2.206  -0.690  -0.233  0.00  0.00     0.081 A 
ATOM     17  C   UNN dAMED      -4.850   0.252   0.119  0.00  0.00     0.000 A 
ATOM     18  C   UNN dAMED      -3.767   1.105   0.303  0.00  0.00     0.002 A 
ATOM     19  O   UNN dAMED       1.324   3.123   0.064  0.00  0.00    -0.195 OA
ATOM     20  C   UNN dAMED       1.114   1.839   0.525  0.00  0.00     0.011 C 
ATOM     21  C   UNN dAMED       1.115   1.859   0.529  0.00  0.00     0.011 C 
ENDROOT
TORSDOF 0
