REMARK  0 active torsions:
REMARK  status: ('A' for Active; 'I' for Inactive)
ROOT
ATOM      1 CL   UNN dAMED      -3.765  -1.401  -0.239  0.00  0.00    -0.059 Cl
ATOM      2 CL   UNN dAMED      -3.355   1.841  -0.285  0.00  0.00    -0.059 Cl
ATOM      3  N   UNN dAMED      -0.864   1.342   0.119  0.00  0.00    -0.217 NA
ATOM      4  N   UNN dAMED      -1.225  -1.526   0.152  0.00  0.00    -0.211 NA
ATOM      5  N   UNN dAMED       1.198  -1.555   0.466  0.00  0.00    -0.236 NA
ATOM      6  N   UNN dAMED       1.437   0.662   0.538  0.00  0.00    -0.217 NA
ATOM      7  C   UNN dAMED       3.294  -0.600  -0.343  0.00  0.00     0.043 C 
ATOM      8  C   UNN dAMED       2.076  -0.571   0.536  0.00  0.00     0.170 A 
ATOM      9  C   UNN dAMED       3.283   0.729  -1.058  0.00  0.00     0.021 C 
ATOM     10  C   UNN dAMED       2.019   1.405  -0.543  0.00  0.00     0.080 C 
ATOM     11  C   UNN dAMED      -2.234  -0.645  -0.028  0.00  0.00     0.169 A 
ATOM     12  C   UNN dAMED      -2.059   0.733  -0.048  0.00  0.00     0.168 A 
ATOM     13  C   UNN dAMED      -0.018  -0.932   0.318  0.00  0.00     0.189 A 
ATOM     14  C   UNN dAMED       0.119   0.447   0.300  0.00  0.00     0.158 A 
ENDROOT
TORSDOF 0
