REMARK  0 active torsions:
REMARK  status: ('A' for Active; 'I' for Inactive)
ROOT
ATOM      1  C   UNN dAMED       2.774   0.262   0.001  0.00  0.00    -0.021 A 
ATOM      2  C   UNN dAMED       2.388  -1.089   0.088  0.00  0.00    -0.003 A 
ATOM      3  C   UNN dAMED       1.824   1.286  -0.074  0.00  0.00     0.004 A 
ATOM      4  C   UNN dAMED       1.043  -1.457   0.104  0.00  0.00     0.018 A 
ATOM      5  C   UNN dAMED       0.490   0.928  -0.059  0.00  0.00     0.048 A 
ATOM      6  C   UNN dAMED       0.130  -0.426   0.029  0.00  0.00     0.073 A 
ATOM      7  S   UNN dAMED      -0.941   2.015  -0.141  0.00  0.00    -0.047 SA
ATOM      8  N   UNN dAMED      -1.245  -0.545   0.028  0.00  0.00    -0.266 N 
ATOM      9  C   UNN dAMED      -1.950   0.611  -0.054  0.00  0.00     0.201 A 
ATOM     10  N   UNN dAMED      -3.232   0.375  -0.046  0.00  0.00    -0.121 NA
ATOM     11  C   UNN dAMED      -2.152  -1.554   0.089  0.00  0.00     0.207 A 
ATOM     12  N   UNN dAMED      -3.363  -1.014   0.045  0.00  0.00    -0.125 NA
ATOM     13  C   UNN dAMED       4.236   0.609  -0.012  0.00  0.00     0.031 C 
ENDROOT
TORSDOF 0
