REMARK  5 active torsions:
REMARK  status: ('A' for Active; 'I' for Inactive)
REMARK    1  A    between atoms: N_2  and  C_12 
REMARK    2  A    between atoms: C_6  and  N_11 
REMARK       I    between atoms: C_8  and  N_11 
REMARK    3  A    between atoms: C_12  and  C_13 
REMARK       I    between atoms: C_13  and  N_15 
REMARK    4  A    between atoms: N_15  and  C_16 
REMARK    5  A    between atoms: N_15  and  C_18 
ROOT
ATOM      1  N   UNN dAMED      -1.901  -1.742  -0.133  0.00  0.00    -0.173 NA
ATOM      2  N   UNN dAMED       0.321  -0.934   0.281  0.00  0.00    -0.269 N 
ATOM      3  O   UNN dAMED      -0.191  -3.132   0.423  0.00  0.00    -0.244 OA
ATOM      4  C   UNN dAMED      -0.270   0.263   0.753  0.00  0.00     0.084 C 
ATOM      5  C   UNN dAMED      -1.549   0.537   0.532  0.00  0.00     0.058 C 
ATOM      6  C   UNN dAMED      -2.413  -0.570   0.044  0.00  0.00     0.172 C 
ATOM      7  C   UNN dAMED      -0.592  -1.980   0.237  0.00  0.00     0.352 C 
ENDROOT
BRANCH   2   8
ATOM      8  C   UNN dAMED       1.604  -1.505   0.491  0.00  0.00     0.199 C 
BRANCH   8   9
ATOM      9  C   UNN dAMED       2.845  -0.810  -0.018  0.00  0.00     0.260 C 
ATOM     10  O   UNN dAMED       3.672  -0.434   0.805  0.00  0.00    -0.270 OA
ATOM     11  N   UNN dAMED       2.994  -0.703  -1.381  0.00  0.00    -0.300 N 
BRANCH  11  12
ATOM     12  C   UNN dAMED       2.039  -1.567  -1.952  0.00  0.00     0.052 C 
ATOM     13  C   UNN dAMED       1.498  -1.299  -3.359  0.00  0.00     0.051 C 
ENDBRANCH  11  12
BRANCH  11  14
ATOM     14  C   UNN dAMED       4.047   0.199  -1.638  0.00  0.00     0.109 C 
ATOM     15  C   UNN dAMED       4.829   0.847  -0.493  0.00  0.00     0.027 C 
ENDBRANCH  11  14
ENDBRANCH   8   9
ENDBRANCH   2   8
BRANCH   6  16
ATOM     16  N   UNN dAMED      -3.673  -0.317  -0.280  0.00  0.00    -0.193 NA
ATOM     17  C   UNN dAMED      -4.401  -0.422   0.828  0.00  0.00     0.258 C 
ATOM     18  O   UNN dAMED      -5.419   0.203   1.096  0.00  0.00    -0.270 OA
ATOM     19  C   UNN dAMED      -3.954  -1.463   1.821  0.00  0.00     0.100 C 
ENDBRANCH   6  16
TORSDOF 5
