REMARK  4 active torsions:
REMARK  status: ('A' for Active; 'I' for Inactive)
REMARK    1  A    between atoms: C_12  and  N_18 
REMARK    2  A    between atoms: N_16  and  C_21 
REMARK    3  A    between atoms: N_18  and  C_20 
REMARK    4  A    between atoms: C_20  and  C_21 
ROOT
ATOM      1  C   UNN dAMED      -4.424   1.746  -0.527  0.00  0.00     0.196 A 
ATOM      2  C   UNN dAMED      -5.068   0.505  -0.444  0.00  0.00     0.043 A 
ATOM      3  C   UNN dAMED      -3.033   1.670  -0.386  0.00  0.00     0.046 A 
ATOM      4  C   UNN dAMED      -4.383  -0.698  -0.230  0.00  0.00     0.010 A 
ATOM      5  C   UNN dAMED      -2.314   0.481  -0.177  0.00  0.00     0.048 A 
ATOM      6  C   UNN dAMED      -2.995  -0.721  -0.093  0.00  0.00     0.033 A 
ATOM      7  O   UNN dAMED      -0.391   1.751  -0.102  0.00  0.00    -0.286 OA
ATOM      8  C   UNN dAMED      -0.850   0.612  -0.060  0.00  0.00     0.198 A 
ATOM      9  S   UNN dAMED      -2.221  -2.277   0.192  0.00  0.00    -0.087 SA
ATOM     10  C   UNN dAMED       0.051  -0.572   0.096  0.00  0.00     0.062 A 
ATOM     11  C   UNN dAMED      -0.492  -1.866   0.215  0.00  0.00     0.030 A 
ATOM     12  C   UNN dAMED       1.463  -0.399   0.145  0.00  0.00     0.080 A 
ATOM     13  C   UNN dAMED       0.363  -2.964   0.383  0.00  0.00    -0.016 A 
ATOM     14  C   UNN dAMED       1.739  -2.806   0.412  0.00  0.00    -0.002 A 
ATOM     15  C   UNN dAMED       2.270  -1.534   0.289  0.00  0.00     0.018 A 
ATOM     16  O   UNN dAMED      -5.038   2.845  -0.714  0.00  0.00    -0.287 OA
ATOM     17  C   UNN dAMED      -0.210  -4.345   0.535  0.00  0.00     0.032 C 
ENDROOT
BRANCH  12  18
ATOM     18  N   UNN dAMED       2.117   0.779   0.110  0.00  0.00    -0.268 NA
BRANCH  18  19
ATOM     19  C   UNN dAMED       3.428   0.848   0.745  0.00  0.00     0.161 C 
BRANCH  19  20
ATOM     20  C   UNN dAMED       4.295   2.096   0.615  0.00  0.00     0.277 C 
BRANCH  20  21
ATOM     21  N   UNN dAMED       5.508   2.458   1.742  0.00  0.00     0.143 N 
ATOM     22  C   UNN dAMED       4.307   2.042   0.618  0.00  0.00     0.286 C 
ATOM     23  C   UNN dAMED       4.306   2.042   0.618  0.00  0.00     0.286 C 
ENDBRANCH  20  21
ENDBRANCH  19  20
ENDBRANCH  18  19
ENDBRANCH  12  18
TORSDOF 4
