REMARK  7 active torsions:
REMARK  status: ('A' for Active; 'I' for Inactive)
REMARK    1  A    between atoms: O_1  and  C_3 
REMARK    2  A    between atoms: O_1  and  C_23 
REMARK    3  A    between atoms: O_2  and  C_19 
REMARK    4  A    between atoms: O_2  and  C_25 
REMARK    5  A    between atoms: C_23  and  C_29 
REMARK    6  A    between atoms: C_25  and  C_28 
REMARK    7  A    between atoms: C_29  and  O_30 
ROOT
ATOM      1  C   UNN dAMED       0.534   5.706   0.251  0.00  0.00     0.238 C 
ATOM      2  O   UNN dAMED       1.164   5.822   1.456  0.00  0.00    -0.342 OA
ATOM      3  C   UNN dAMED       1.794   5.944   2.662  0.00  0.00     0.175 C 
ENDROOT
BRANCH   1   4
ATOM      4  C   UNN dAMED       0.195   4.345  -0.305  0.00  0.00     0.307 C 
ATOM      5  O   UNN dAMED       0.290   4.207  -1.518  0.00  0.00    -0.261 OA
BRANCH   4   6
ATOM      6  O   UNN dAMED      -0.492   3.466   0.536  0.00  0.00    -0.274 OA
BRANCH   6   7
ATOM      7  C   UNN dAMED      -0.431   2.125   0.147  0.00  0.00     0.103 A 
ATOM      8  C   UNN dAMED       0.787   1.461   0.075  0.00  0.00     0.027 A 
ATOM      9  C   UNN dAMED       0.827   0.099  -0.235  0.00  0.00     0.025 A 
ATOM     10  C   UNN dAMED      -0.391  -0.594  -0.369  0.00  0.00     0.103 A 
ATOM     11  C   UNN dAMED       2.121  -0.505  -0.507  0.00  0.00    -0.002 A 
ATOM     12  C   UNN dAMED      -1.632   0.067  -0.281  0.00  0.00     0.025 A 
ATOM     13  C   UNN dAMED      -1.630   1.441  -0.020  0.00  0.00     0.027 A 
ATOM     14  C   UNN dAMED      -2.906  -0.624  -0.420  0.00  0.00    -0.002 A 
ATOM     15  C   UNN dAMED      -3.296  -1.178  -1.646  0.00  0.00    -0.022 A 
ATOM     16  C   UNN dAMED      -3.751  -0.765   0.688  0.00  0.00    -0.001 A 
ATOM     17  C   UNN dAMED      -4.479  -1.902  -1.757  0.00  0.00    -0.009 A 
ATOM     18  C   UNN dAMED      -2.370  -1.088  -2.825  0.00  0.00     0.031 C 
ATOM     19  C   UNN dAMED      -5.302  -2.042  -0.641  0.00  0.00    -0.022 A 
ATOM     20  C   UNN dAMED      -4.952  -1.455   0.574  0.00  0.00    -0.004 A 
ATOM     21  C   UNN dAMED      -6.518  -2.920  -0.714  0.00  0.00     0.031 C 
ATOM     22  C   UNN dAMED       2.766  -0.230  -1.720  0.00  0.00    -0.022 A 
ATOM     23  C   UNN dAMED       2.770  -1.290   0.448  0.00  0.00    -0.001 A 
ATOM     24  C   UNN dAMED       4.033  -0.739  -1.984  0.00  0.00    -0.009 A 
ATOM     25  C   UNN dAMED       2.113   0.709  -2.695  0.00  0.00     0.031 C 
ATOM     26  C   UNN dAMED       4.663  -1.531  -1.030  0.00  0.00    -0.022 A 
ATOM     27  C   UNN dAMED       4.035  -1.807   0.184  0.00  0.00    -0.004 A 
ATOM     28  C   UNN dAMED       6.029  -2.088  -1.314  0.00  0.00     0.031 C 
BRANCH  10  29
ATOM     29  O   UNN dAMED      -0.340  -1.959  -0.741  0.00  0.00    -0.274 OA
BRANCH  29  30
ATOM     30  C   UNN dAMED      -0.738  -2.899   0.215  0.00  0.00     0.307 C 
ATOM     31  O   UNN dAMED      -0.974  -2.648   1.391  0.00  0.00    -0.261 OA
BRANCH  30  32
ATOM     32  C   UNN dAMED      -1.061  -4.286  -0.291  0.00  0.00     0.238 C 
BRANCH  32  33
ATOM     33  O   UNN dAMED      -0.328  -5.428   0.150  0.00  0.00    -0.342 OA
ATOM     34  C   UNN dAMED       0.176  -4.129   0.432  0.00  0.00     0.175 C 
ENDBRANCH  32  33
ENDBRANCH  30  32
ENDBRANCH  29  30
ENDBRANCH  10  29
ENDBRANCH   6   7
ENDBRANCH   4   6
ENDBRANCH   1   4
TORSDOF 7
