REMARK  3 active torsions:
REMARK  status: ('A' for Active; 'I' for Inactive)
REMARK    1  A    between atoms: C_9  and  C_11 
REMARK       I    between atoms: C_11  and  N_13 
REMARK    2  A    between atoms: N_13  and  C_14 
REMARK    3  A    between atoms: C_14  and  C_15 
ROOT
ATOM      1  O   UNN dAMED      -0.467   0.728  -0.770  0.00  0.00    -0.302 OA
ATOM      2  O   UNN dAMED      -1.476  -0.603   1.712  0.00  0.00    -0.322 OA
ATOM      3  C   UNN dAMED      -2.621   0.537  -1.611  0.00  0.00     0.027 A 
ATOM      4  C   UNN dAMED      -3.952   0.138  -1.539  0.00  0.00     0.002 A 
ATOM      5  C   UNN dAMED      -1.745   0.305  -0.548  0.00  0.00     0.122 A 
ATOM      6  C   UNN dAMED      -2.217  -0.321   0.601  0.00  0.00     0.117 A 
ATOM      7  C   UNN dAMED      -4.418  -0.500  -0.395  0.00  0.00     0.002 A 
ATOM      8  C   UNN dAMED      -3.552  -0.726   0.670  0.00  0.00     0.026 A 
ATOM      9  C   UNN dAMED       0.336   0.276   0.270  0.00  0.00     0.165 C 
ATOM     10  C   UNN dAMED      -0.313   0.144   1.627  0.00  0.00     0.205 C 
ENDROOT
BRANCH   9  11
ATOM     11  C   UNN dAMED       1.812   0.574   0.224  0.00  0.00     0.296 C 
ATOM     12  O   UNN dAMED       2.138   1.755   0.204  0.00  0.00    -0.264 OA
ATOM     13  N   UNN dAMED       2.636  -0.460   0.314  0.00  0.00    -0.228 NA
BRANCH  13  14
ATOM     14  C   UNN dAMED       2.217  -1.789  -0.101  0.00  0.00     0.155 C 
BRANCH  14  15
ATOM     15  C   UNN dAMED       3.269  -2.897  -0.217  0.00  0.00     0.000 C 
ATOM     16  C   UNN dAMED       2.941  -4.094  -0.701  0.00  0.00    -0.003 C 
ENDBRANCH  14  15
ENDBRANCH  13  14
ENDBRANCH   9  11
TORSDOF 3
