REMARK  1 active torsions:
REMARK  status: ('A' for Active; 'I' for Inactive)
REMARK    1  A    between atoms: C_5  and  N_11 
ROOT
ATOM      1 CL   UNN dAMED      -3.252  -2.145   0.483  0.00  0.00    -0.081 Cl
ATOM      2  C   UNN dAMED      -0.970  -0.869  -0.012  0.00  0.00     0.070 C 
ATOM      3  C   UNN dAMED      -2.308  -0.842  -0.123  0.00  0.00     0.070 C 
ATOM      4  N   UNN dAMED      -0.114   0.085  -0.653  0.00  0.00    -0.173 NA
ATOM      5  C   UNN dAMED       1.149  -0.024  -0.173  0.00  0.00     0.188 C 
ATOM      6  C   UNN dAMED      -2.788   0.586   0.059  0.00  0.00     0.015 C 
ATOM      7  C   UNN dAMED      -0.521   1.367  -0.424  0.00  0.00     0.129 C 
ATOM      8  C   UNN dAMED      -1.960   1.622  -0.090  0.00  0.00     0.032 C 
ATOM      9  C   UNN dAMED       1.513   1.248   0.171  0.00  0.00     0.094 C 
ATOM     10  N   UNN dAMED       0.456   2.116   0.049  0.00  0.00    -0.235 NA
ATOM     11  C   UNN dAMED       2.823   1.609   0.804  0.00  0.00     0.055 C 
ENDROOT
BRANCH   5  12
ATOM     12  N   UNN dAMED       1.821  -1.258  -0.076  0.00  0.00    -0.101 N 
ATOM     13  O   UNN dAMED       1.681  -2.046  -1.018  0.00  0.00    -0.531 OA
ATOM     14  O   UNN dAMED       2.487  -1.444   0.948  0.00  0.00    -0.531 OA
ENDBRANCH   5  12
TORSDOF 1
