REMARK  2 active torsions:
REMARK  status: ('A' for Active; 'I' for Inactive)
REMARK    1  A    between atoms: N_3  and  C_25 
REMARK    2  A    between atoms: C_14  and  C_25 
ROOT
ATOM      1  C   UNN dAMED       0.316  -2.582   0.060  0.00  0.00     0.050 C 
ENDROOT
BRANCH   1   2
ATOM      2  N   UNN dAMED       0.632  -3.703  -1.235  0.00  0.00    -0.249 NA
ATOM      3  C   UNN dAMED       0.383  -2.603   0.001  0.00  0.00     0.094 C 
ATOM      4  C   UNN dAMED       0.452  -3.044   1.457  0.00  0.00     0.094 C 
ATOM      5  N   UNN dAMED      -0.634  -3.881   2.060  0.00  0.00    -0.250 NA
ATOM      6  C   UNN dAMED      -1.041  -3.511   3.352  0.00  0.00     0.037 A 
ATOM      7  C   UNN dAMED      -0.761  -2.830   1.017  0.00  0.00     0.094 C 
ATOM      8  C   UNN dAMED      -0.350  -2.472   3.980  0.00  0.00     0.011 A 
ATOM      9  C   UNN dAMED      -2.199  -4.025   3.923  0.00  0.00     0.011 A 
ATOM     10  C   UNN dAMED      -0.812  -1.951   5.182  0.00  0.00     0.001 A 
ATOM     11  C   UNN dAMED      -1.965  -2.472   5.759  0.00  0.00     0.000 A 
ATOM     12  C   UNN dAMED      -2.649  -3.515   5.138  0.00  0.00     0.001 A 
ATOM     13  C   UNN dAMED       0.348  -2.624   0.013  0.00  0.00     0.094 C 
ENDBRANCH   1   2
BRANCH   1  14
ATOM     14  C   UNN dAMED       0.453  -1.085  -0.029  0.00  0.00     0.052 A 
ATOM     15  C   UNN dAMED      -0.605  -0.241   0.398  0.00  0.00     0.214 A 
ATOM     16  C   UNN dAMED      -0.273   1.125   0.645  0.00  0.00     0.121 A 
ATOM     17  O   UNN dAMED      -1.784  -0.710   0.567  0.00  0.00    -0.285 OA
ATOM     18  N   UNN dAMED      -1.214   1.994   1.086  0.00  0.00    -0.241 NA
ATOM     19  C   UNN dAMED       1.053   1.586   0.451  0.00  0.00     0.027 A 
ATOM     20  C   UNN dAMED      -0.880   3.280   1.357  0.00  0.00     0.099 A 
ATOM     21  C   UNN dAMED       0.382   3.804   1.204  0.00  0.00     0.021 A 
ATOM     22  C   UNN dAMED       1.343   2.933   0.728  0.00  0.00     0.004 A 
ATOM     23  C   UNN dAMED       2.040   0.702   0.001  0.00  0.00     0.036 A 
ATOM     24 BR   UNN dAMED       3.846   1.197  -0.270  0.00  0.00    -0.049 Br
ATOM     25  C   UNN dAMED       1.741  -0.622  -0.233  0.00  0.00     0.011 A 
ENDBRANCH   1  14
TORSDOF 2
