REMARK  3 active torsions:
REMARK  status: ('A' for Active; 'I' for Inactive)
REMARK    1  A    between atoms: N_1  and  C_7 
REMARK    2  A    between atoms: N_1  and  C_18 
REMARK    3  A    between atoms: C_8  and  C_18 
ROOT
ATOM      1  C   UNN dAMED       1.021  -0.983  -0.161  0.00  0.00     0.058 A 
ATOM      2  C   UNN dAMED       1.482  -2.308  -0.013  0.00  0.00     0.197 A 
ATOM      3  C   UNN dAMED       1.881   0.126  -0.207  0.00  0.00     0.005 A 
ATOM      4  C   UNN dAMED       1.380   1.416  -0.391  0.00  0.00     0.000 A 
ATOM      5  C   UNN dAMED       2.245   2.507  -0.438  0.00  0.00     0.000 A 
ATOM      6  C   UNN dAMED       2.877  -2.433   0.115  0.00  0.00     0.042 A 
ATOM      7  C   UNN dAMED       3.266  -0.064  -0.071  0.00  0.00     0.000 A 
ATOM      8  C   UNN dAMED       3.617   2.316  -0.296  0.00  0.00     0.000 A 
ATOM      9  C   UNN dAMED       3.760  -1.351   0.096  0.00  0.00     0.003 A 
ATOM     10  C   UNN dAMED       4.128   1.033  -0.111  0.00  0.00     0.000 A 
ATOM     11  O   UNN dAMED       0.700  -3.312   0.001  0.00  0.00    -0.286 OA
ENDROOT
BRANCH   1  12
ATOM     12  C   UNN dAMED      -0.464  -0.751  -0.297  0.00  0.00     0.102 C 
BRANCH  12  13
ATOM     13  N   UNN dAMED      -1.172  -0.462   0.699  0.00  0.00    -0.241 NA
BRANCH  13  14
ATOM     14  C   UNN dAMED      -2.546  -0.233   0.532  0.00  0.00     0.120 A 
ATOM     15  C   UNN dAMED      -3.198  -0.576  -0.679  0.00  0.00     0.213 A 
ATOM     16  C   UNN dAMED      -4.575  -0.282  -0.703  0.00  0.00     0.044 A 
ATOM     17  O   UNN dAMED      -2.618  -1.109  -1.685  0.00  0.00    -0.285 OA
ATOM     18  C   UNN dAMED      -5.270   0.294   0.362  0.00  0.00     0.003 A 
ATOM     19  C   UNN dAMED      -4.593   0.609   1.527  0.00  0.00     0.002 A 
ATOM     20  C   UNN dAMED      -3.233   0.346   1.610  0.00  0.00     0.022 A 
ENDBRANCH  13  14
ENDBRANCH  12  13
ENDBRANCH   1  12
TORSDOF 3
