REMARK  3 active torsions:
REMARK  status: ('A' for Active; 'I' for Inactive)
REMARK    1  A    between atoms: C_2  and  N_18 
REMARK    2  A    between atoms: C_11  and  C_14 
REMARK    3  A    between atoms: C_15  and  C_16 
REMARK       I    between atoms: C_16  and  N_18 
ROOT
ATOM      1  N   UNN dAMED      -2.847  -1.151   0.882  0.00  0.00    -0.242 NA
ATOM      2  C   UNN dAMED      -0.591  -0.485   0.340  0.00  0.00     0.102 A 
ATOM      3  C   UNN dAMED      -1.986  -0.408   0.150  0.00  0.00     0.099 A 
ATOM      4  C   UNN dAMED       0.248   0.335  -0.437  0.00  0.00     0.021 A 
ATOM      5  C   UNN dAMED      -2.477   0.474  -0.838  0.00  0.00     0.019 A 
ATOM      6  C   UNN dAMED      -0.253   1.196  -1.405  0.00  0.00     0.002 A 
ATOM      7  C   UNN dAMED      -3.848   0.566  -1.053  0.00  0.00     0.003 A 
ATOM      8  C   UNN dAMED      -4.175  -1.035   0.646  0.00  0.00     0.099 A 
ATOM      9  C   UNN dAMED      -4.725  -0.198  -0.303  0.00  0.00     0.021 A 
ATOM     10  C   UNN dAMED      -1.622   1.260  -1.605  0.00  0.00     0.002 A 
ENDROOT
BRANCH   2  11
ATOM     11  N   UNN dAMED      -0.036  -1.280   1.283  0.00  0.00    -0.206 NA
ATOM     12  C   UNN dAMED       0.248  -2.474   0.767  0.00  0.00     0.280 C 
ATOM     13  O   UNN dAMED       0.670  -3.449   1.377  0.00  0.00    -0.265 OA
BRANCH  12  14
ATOM     14  C   UNN dAMED       0.022  -2.635  -0.711  0.00  0.00     0.069 C 
ATOM     15  C   UNN dAMED       0.308  -3.790  -1.309  0.00  0.00     0.075 C 
BRANCH  15  16
ATOM     16  C   UNN dAMED       0.077  -3.943  -2.788  0.00  0.00     0.211 C 
ATOM     17  O   UNN dAMED      -0.728  -4.855  -3.142  0.00  0.00    -0.644 OA
ATOM     18  O   UNN dAMED       0.703  -3.141  -3.543  0.00  0.00    -0.644 OA
ENDBRANCH  15  16
ENDBRANCH  12  14
ENDBRANCH   2  11
TORSDOF 3
