REMARK  5 active torsions:
REMARK  status: ('A' for Active; 'I' for Inactive)
REMARK    1  A    between atoms: C_1  and  C_2 
REMARK    2  A    between atoms: C_5  and  O_17 
REMARK    3  A    between atoms: C_6  and  O_10 
REMARK    4  A    between atoms: O_10  and  C_11 
REMARK    5  A    between atoms: O_17  and  C_18 
ROOT
ATOM      1  C   UNN dAMED      -0.121  -3.108  -0.149  0.00  0.00     0.166 A 
ATOM      2  N   UNN dAMED       1.086  -2.544  -0.302  0.00  0.00    -0.186 NA
ATOM      3  N   UNN dAMED      -1.277  -2.456   0.060  0.00  0.00    -0.186 NA
ATOM      4  C   UNN dAMED       1.069  -1.197  -0.265  0.00  0.00     0.279 A 
ATOM      5  C   UNN dAMED      -1.158  -1.115   0.109  0.00  0.00     0.279 A 
ATOM      6  N   UNN dAMED      -0.010  -0.424  -0.047  0.00  0.00    -0.163 NA
ENDROOT
BRANCH   4   7
ATOM      7  O   UNN dAMED       2.266  -0.522  -0.474  0.00  0.00    -0.275 OA
BRANCH   7   8
ATOM      8  C   UNN dAMED       2.934  -0.932  -1.604  0.00  0.00     0.103 A 
ATOM      9  C   UNN dAMED       4.162  -1.570  -1.444  0.00  0.00     0.025 A 
ATOM     10  C   UNN dAMED       4.851  -2.015  -2.568  0.00  0.00     0.002 A 
ATOM     11  C   UNN dAMED       4.313  -1.820  -3.839  0.00  0.00     0.000 A 
ATOM     12  C   UNN dAMED       3.095  -1.159  -3.992  0.00  0.00     0.002 A 
ATOM     13  C   UNN dAMED       2.407  -0.698  -2.873  0.00  0.00     0.025 A 
ENDBRANCH   7   8
ENDBRANCH   4   7
BRANCH   1  14
ATOM     14  C   UNN dAMED      -0.186  -4.555  -0.245  0.00  0.00     0.014 C 
ATOM     15  C   UNN dAMED      -1.368  -5.169  -0.250  0.00  0.00    -0.002 C 
ATOM     16  C   UNN dAMED       1.062  -5.341  -0.530  0.00  0.00     0.034 C 
ENDBRANCH   1  14
BRANCH   5  17
ATOM     17  O   UNN dAMED      -2.355  -0.444   0.345  0.00  0.00    -0.275 OA
BRANCH  17  18
ATOM     18  C   UNN dAMED      -2.308   0.926   0.298  0.00  0.00     0.103 A 
ATOM     19  C   UNN dAMED      -2.309   1.638   1.495  0.00  0.00     0.025 A 
ATOM     20  C   UNN dAMED      -2.396   3.027   1.464  0.00  0.00     0.002 A 
ATOM     21  C   UNN dAMED      -2.500   3.693   0.243  0.00  0.00     0.000 A 
ATOM     22  C   UNN dAMED      -2.524   2.971  -0.949  0.00  0.00     0.002 A 
ATOM     23  C   UNN dAMED      -2.445   1.581  -0.924  0.00  0.00     0.025 A 
ENDBRANCH  17  18
ENDBRANCH   5  17
TORSDOF 5
