REMARK  0 active torsions:
REMARK  status: ('A' for Active; 'I' for Inactive)
ROOT
ATOM      1  C   UNN dAMED       2.317  -1.335  -0.466  0.00  0.00     0.042 A 
ATOM      2  C   UNN dAMED      -2.998  -1.228  -0.664  0.00  0.00     0.008 A 
ATOM      3  C   UNN dAMED       3.401  -0.581  -0.084  0.00  0.00     0.161 A 
ATOM      4  C   UNN dAMED       1.052  -0.790  -0.289  0.00  0.00     0.068 A 
ATOM      5  C   UNN dAMED      -1.719  -0.733  -0.392  0.00  0.00     0.045 A 
ATOM      6  C   UNN dAMED      -4.129  -0.468  -0.381  0.00  0.00     0.001 A 
ATOM      7  C   UNN dAMED       0.942   0.485   0.263  0.00  0.00     0.168 A 
ATOM      8  C   UNN dAMED      -1.569   0.541   0.171  0.00  0.00     0.064 A 
ATOM      9  C   UNN dAMED      -3.988   0.796   0.179  0.00  0.00     0.002 A 
ATOM     10  C   UNN dAMED      -2.716   1.294   0.451  0.00  0.00     0.018 A 
ATOM     11  S   UNN dAMED      -0.337  -1.781  -0.790  0.00  0.00    -0.082 SA
ATOM     12  N   UNN dAMED      -0.311   1.081   0.464  0.00  0.00    -0.337 N 
ATOM     13  H   UNN dAMED      -0.291   2.009   0.871  0.00  0.00     0.167 HD
ATOM     14  N   UNN dAMED       2.051   1.180   0.621  0.00  0.00    -0.129 NA
ATOM     15  N   UNN dAMED       3.294   0.647   0.448  0.00  0.00    -0.135 NA
ATOM     16 CL   UNN dAMED       4.994  -1.175  -0.270  0.00  0.00    -0.059 Cl
ENDROOT
TORSDOF 0
