REMARK  3 active torsions:
REMARK  status: ('A' for Active; 'I' for Inactive)
REMARK    1  A    between atoms: C_1  and  C_17 
REMARK    2  A    between atoms: C_7  and  O_19 
REMARK    3  A    between atoms: C_10  and  C_13 
ROOT
ATOM      1  C   UNN dAMED      -0.802   0.683  -0.153  0.00  0.00    -0.030 C 
ATOM      2  C   UNN dAMED      -0.083  -0.411   0.121  0.00  0.00    -0.026 C 
ATOM      3  C   UNN dAMED      -2.313   0.684  -0.157  0.00  0.00    -0.024 C 
ATOM      4  C   UNN dAMED       1.372  -0.356   0.090  0.00  0.00    -0.004 A 
ATOM      5  C   UNN dAMED       2.094   0.199   1.150  0.00  0.00     0.002 A 
ATOM      6  C   UNN dAMED       3.488   0.202   1.125  0.00  0.00     0.024 A 
ATOM      7  C   UNN dAMED       4.146  -0.367   0.041  0.00  0.00     0.094 A 
ATOM      8  C   UNN dAMED       2.053  -0.934  -0.984  0.00  0.00     0.002 A 
ATOM      9  C   UNN dAMED      -0.766  -1.693   0.510  0.00  0.00     0.031 C 
ATOM     10  C   UNN dAMED      -3.061  -0.614   0.140  0.00  0.00     0.038 C 
ATOM     11  C   UNN dAMED       3.445  -0.937  -1.013  0.00  0.00     0.024 A 
ATOM     12  C   UNN dAMED      -2.214  -1.876   0.067  0.00  0.00     0.037 C 
ATOM     13  C   UNN dAMED      -3.064   2.016  -0.063  0.00  0.00     0.031 C 
ENDROOT
BRANCH   1  14
ATOM     14  C   UNN dAMED      -0.122   1.959  -0.564  0.00  0.00     0.026 C 
ATOM     15  C   UNN dAMED       0.208   2.201  -2.040  0.00  0.00     0.005 C 
ENDBRANCH   1  14
BRANCH  10  16
ATOM     16  C   UNN dAMED      -4.533  -0.685  -0.165  0.00  0.00     0.206 C 
ATOM     17  O   UNN dAMED      -4.854  -1.192  -1.280  0.00  0.00    -0.644 OA
ATOM     18  O   UNN dAMED      -5.312  -0.173   0.694  0.00  0.00    -0.644 OA
ENDBRANCH  10  16
BRANCH   7  19
ATOM     19  O   UNN dAMED       5.509  -0.369   0.009  0.00  0.00    -0.328 OA
ATOM     20  C   UNN dAMED       5.905   0.323   1.156  0.00  0.00     0.181 C 
ENDBRANCH   7  19
TORSDOF 3
