REMARK  0 active torsions:
REMARK  status: ('A' for Active; 'I' for Inactive)
ROOT
ATOM      1  C   UNN dAMED      -3.162   0.381   1.167  0.00  0.00     0.134 A 
ATOM      2  S   UNN dAMED      -3.292  -1.202   0.526  0.00  0.00    -0.069 SA
ATOM      3  N   UNN dAMED      -2.069   1.063   0.897  0.00  0.00    -0.241 NA
ATOM      4  C   UNN dAMED      -1.752  -0.984  -0.106  0.00  0.00     0.027 A 
ATOM      5  C   UNN dAMED      -1.242   0.264   0.132  0.00  0.00     0.066 A 
ATOM      6  C   UNN dAMED       0.034   0.772  -0.418  0.00  0.00     0.072 C 
ATOM      7  C   UNN dAMED      -0.999  -1.861  -1.050  0.00  0.00     0.061 C 
ATOM      8  C   UNN dAMED       0.513  -1.583  -1.099  0.00  0.00    -0.013 C 
ATOM      9  C   UNN dAMED       0.883   1.447   0.672  0.00  0.00     0.093 C 
ATOM     10  C   UNN dAMED       0.969  -0.340  -0.904  0.00  0.00     0.021 C 
ATOM     11  C   UNN dAMED       2.234   0.803   0.629  0.00  0.00     0.218 C 
ATOM     12  N   UNN dAMED       2.219  -0.139  -0.371  0.00  0.00    -0.205 NA
ATOM     13  O   UNN dAMED       3.080   1.019   1.479  0.00  0.00    -0.278 OA
ATOM     14  C   UNN dAMED      -0.255   1.711  -1.591  0.00  0.00     0.012 C 
ATOM     15  C   UNN dAMED       2.838  -1.349   0.036  0.00  0.00     0.102 C 
ENDROOT
TORSDOF 0
