REMARK  5 active torsions:
REMARK  status: ('A' for Active; 'I' for Inactive)
REMARK    1  A    between atoms: C_7  and  C_11 
REMARK    2  A    between atoms: C_11  and  C_12 
REMARK    3  A    between atoms: C_12  and  C_15 
REMARK    4  A    between atoms: C_15  and  O_17 
REMARK    5  A    between atoms: O_17  and  C_18 
ROOT
ATOM      1  C   UNN dAMED       2.669   2.013   1.242  0.00  0.00     0.150 C 
ATOM      2  C   UNN dAMED       1.951   1.991   2.506  0.00  0.00     0.108 C 
ATOM      3  N   UNN dAMED       1.395   1.971   3.524  0.00  0.00    -0.191 NA
ENDROOT
BRANCH   1   4
ATOM      4  C   UNN dAMED       1.933   2.397  -0.030  0.00  0.00     0.119 C 
ATOM      5  N   UNN dAMED       2.339   1.912  -1.196  0.00  0.00    -0.147 N 
BRANCH   4   6
ATOM      6  C   UNN dAMED       0.656   3.210  -0.015  0.00  0.00     0.063 A 
ATOM      7  C   UNN dAMED       0.612   4.691   0.237  0.00  0.00     0.057 A 
ATOM      8  C   UNN dAMED       1.012   5.675  -0.869  0.00  0.00     0.007 C 
ATOM      9  C   UNN dAMED      -0.777   4.871   0.837  0.00  0.00     0.129 A 
ATOM     10  C   UNN dAMED       0.476   7.101  -0.720  0.00  0.00     0.001 C 
ATOM     11  C   UNN dAMED      -0.998   7.196  -0.328  0.00  0.00     0.003 C 
ATOM     12  C   UNN dAMED      -1.434   6.260   0.803  0.00  0.00     0.031 C 
ATOM     13  O   UNN dAMED      -1.545   3.686   0.902  0.00  0.00    -0.301 OA
ATOM     14  C   UNN dAMED      -0.690   2.703   0.437  0.00  0.00     0.293 A 
ATOM     15  O   UNN dAMED      -1.060   1.573   0.149  0.00  0.00    -0.259 OA
ENDBRANCH   4   6
ENDBRANCH   1   4
BRANCH   1  16
ATOM     16  C   UNN dAMED       4.149   1.670   1.258  0.00  0.00     0.307 C 
ATOM     17  O   UNN dAMED       4.474   0.499   1.096  0.00  0.00    -0.258 OA
BRANCH  16  18
ATOM     18  O   UNN dAMED       5.019   2.592   1.758  0.00  0.00    -0.298 OA
BRANCH  18  19
ATOM     19  C   UNN dAMED       5.975   1.842   2.449  0.00  0.00     0.152 C 
ATOM     20  C   UNN dAMED       7.210   2.526   3.043  0.00  0.00     0.035 C 
ENDBRANCH  18  19
ENDBRANCH  16  18
ENDBRANCH   1  16
TORSDOF 5
