REMARK  2 active torsions:
REMARK  status: ('A' for Active; 'I' for Inactive)
REMARK    1  A    between atoms: C_8  and  C_12 
REMARK    2  A    between atoms: C_12  and  C_14 
ROOT
ATOM      1  N   UNN dAMED      -2.824   1.716   0.736  0.00  0.00    -0.177 NA
ATOM      2  H   UNN dAMED      -0.918   1.935   1.408  0.00  0.00     0.189 HD
ATOM      3  C   UNN dAMED      -3.350   0.714   0.032  0.00  0.00     0.081 A 
ATOM      4  N   UNN dAMED      -1.545   1.328   0.893  0.00  0.00    -0.275 N 
ATOM      5  C   UNN dAMED      -2.437  -0.309  -0.266  0.00  0.00     0.049 A 
ATOM      6  C   UNN dAMED      -1.253   0.122   0.315  0.00  0.00     0.092 A 
ATOM      7  C   UNN dAMED      -2.459  -1.525  -0.941  0.00  0.00     0.084 A 
ATOM      8  C   UNN dAMED      -0.082  -0.613   0.249  0.00  0.00     0.102 A 
ATOM      9  N   UNN dAMED      -1.313  -2.241  -1.003  0.00  0.00    -0.153 NA
ATOM     10  N   UNN dAMED      -0.138  -1.788  -0.418  0.00  0.00    -0.151 NA
ATOM     11  C   UNN dAMED      -4.788   0.685  -0.393  0.00  0.00     0.054 C 
ATOM     12  C   UNN dAMED      -3.714  -2.027  -1.594  0.00  0.00     0.054 C 
ENDROOT
BRANCH   8  13
ATOM     13  C   UNN dAMED       1.202  -0.120   0.866  0.00  0.00     0.075 C 
BRANCH  13  14
ATOM     14  C   UNN dAMED       1.688  -0.642   2.195  0.00  0.00    -0.016 A 
ATOM     15  C   UNN dAMED       2.298  -1.892   2.279  0.00  0.00    -0.004 A 
ATOM     16  C   UNN dAMED       2.734  -2.374   3.511  0.00  0.00    -0.000 A 
ATOM     17  C   UNN dAMED       2.566  -1.604   4.660  0.00  0.00    -0.000 A 
ATOM     18  C   UNN dAMED       1.954  -0.356   4.578  0.00  0.00    -0.000 A 
ATOM     19  C   UNN dAMED       1.520   0.127   3.345  0.00  0.00    -0.004 A 
ENDBRANCH  13  14
ENDBRANCH   8  13
TORSDOF 2
