REMARK  3 active torsions:
REMARK  status: ('A' for Active; 'I' for Inactive)
REMARK    1  A    between atoms: C_16  and  C_22 
REMARK    2  A    between atoms: C_17  and  S_21 
REMARK    3  A    between atoms: S_21  and  C_22 
ROOT
ATOM      1  O   UNN dAMED      -5.592   0.256  -0.160  0.00  0.00    -0.246 OA
ATOM      2  H   UNN dAMED      -4.440  -1.997   0.004  0.00  0.00     0.173 HD
ATOM      3  N   UNN dAMED      -3.797  -1.211   0.040  0.00  0.00    -0.274 N 
ATOM      4  O   UNN dAMED      -1.987  -2.672   0.072  0.00  0.00    -0.266 OA
ATOM      5  N   UNN dAMED      -3.470   1.121   0.090  0.00  0.00    -0.264 N 
ATOM      6  N   UNN dAMED      -0.265  -0.162  -0.046  0.00  0.00    -0.204 NA
ATOM      7  N   UNN dAMED      -1.140   1.889   0.026  0.00  0.00    -0.209 NA
ATOM      8  C   UNN dAMED      -2.421  -1.524   0.063  0.00  0.00     0.275 C 
ATOM      9  C   UNN dAMED      -1.610  -0.341   0.037  0.00  0.00     0.133 A 
ATOM     10  C   UNN dAMED      -2.117   0.937   0.038  0.00  0.00     0.164 A 
ATOM     11  C   UNN dAMED      -0.028   1.182   0.039  0.00  0.00     0.152 A 
ATOM     12  C   UNN dAMED      -4.381   0.083  -0.021  0.00  0.00     0.332 C 
ATOM     13  C   UNN dAMED      -3.919   2.347  -0.465  0.00  0.00     0.137 C 
ATOM     14  C   UNN dAMED       0.362  -0.814   1.050  0.00  0.00     0.102 C 
ENDROOT
BRANCH  11  15
ATOM     15  S   UNN dAMED       1.585   1.780   0.132  0.00  0.00    -0.076 SA
BRANCH  15  16
ATOM     16  C   UNN dAMED       2.281   0.255   0.770  0.00  0.00     0.110 C 
BRANCH  16  17
ATOM     17  C   UNN dAMED       3.715  -0.114   0.490  0.00  0.00     0.070 A 
ATOM     18  N   UNN dAMED       4.691   0.527   1.176  0.00  0.00    -0.247 NA
ATOM     19  C   UNN dAMED       5.964   0.162   0.909  0.00  0.00     0.099 A 
ATOM     20  C   UNN dAMED       6.316  -0.816  -0.005  0.00  0.00     0.021 A 
ATOM     21  C   UNN dAMED       5.291  -1.459  -0.686  0.00  0.00     0.003 A 
ATOM     22  C   UNN dAMED       3.968  -1.111  -0.441  0.00  0.00     0.016 A 
ENDBRANCH  16  17
ENDBRANCH  15  16
ENDBRANCH  11  15
TORSDOF 3
