REMARK  2 active torsions:
REMARK  status: ('A' for Active; 'I' for Inactive)
REMARK    1  A    between atoms: N_2  and  C_5 
REMARK    2  A    between atoms: N_3  and  C_10 
ROOT
ATOM      1  N   UNN dAMED      -0.261  -0.279   0.593  0.00  0.00    -0.145 NA
ATOM      2  N   UNN dAMED       0.406  -0.041  -0.437  0.00  0.00    -0.148 NA
ENDROOT
BRANCH   1   3
ATOM      3  C   UNN dAMED      -1.642  -0.097   0.385  0.00  0.00     0.134 A 
ATOM      4  C   UNN dAMED      -2.191   0.572  -0.707  0.00  0.00     0.171 A 
ATOM      5  N   UNN dAMED      -3.519   0.763  -0.887  0.00  0.00    -0.216 NA
ATOM      6  N   UNN dAMED      -1.300   1.068  -1.701  0.00  0.00    -0.078 NA
ATOM      7  C   UNN dAMED      -4.350   0.277   0.062  0.00  0.00     0.152 A 
ATOM      8  C   UNN dAMED      -3.904  -0.399   1.185  0.00  0.00     0.035 A 
ATOM      9  N   UNN dAMED      -5.751   0.475  -0.100  0.00  0.00    -0.080 NA
ATOM     10  C   UNN dAMED      -2.535  -0.582   1.338  0.00  0.00     0.026 A 
ENDBRANCH   1   3
BRANCH   2  11
ATOM     11  C   UNN dAMED       1.766  -0.284  -0.202  0.00  0.00     0.103 A 
ATOM     12  C   UNN dAMED       2.617   0.739   0.203  0.00  0.00     0.024 A 
ATOM     13  C   UNN dAMED       3.987   0.493   0.348  0.00  0.00     0.044 A 
ATOM     14  C   UNN dAMED       4.584  -0.752   0.089  0.00  0.00     0.196 A 
ATOM     15  C   UNN dAMED       3.687  -1.745  -0.334  0.00  0.00     0.044 A 
ATOM     16  O   UNN dAMED       5.832  -0.963   0.226  0.00  0.00    -0.287 OA
ATOM     17  C   UNN dAMED       2.314  -1.530  -0.489  0.00  0.00     0.024 A 
ENDBRANCH   2  11
TORSDOF 2
