REMARK  3 active torsions:
REMARK  status: ('A' for Active; 'I' for Inactive)
REMARK    1  A    between atoms: C_2  and  C_17 
REMARK    2  A    between atoms: C_2  and  C_21 
REMARK    3  A    between atoms: C_9  and  C_21 
ROOT
ATOM      1  N   UNN dAMED      -1.694   0.537   0.328  0.00  0.00    -0.323 N 
ATOM      2  C   UNN dAMED      -3.772   1.199   1.558  0.00  0.00     0.017 A 
ATOM      3  C   UNN dAMED      -5.125   0.898   1.720  0.00  0.00     0.002 A 
ATOM      4  C   UNN dAMED      -3.057   0.436   0.659  0.00  0.00     0.057 A 
ATOM      5  C   UNN dAMED      -3.664  -0.607  -0.062  0.00  0.00    -0.001 A 
ATOM      6  C   UNN dAMED      -5.730  -0.143   0.996  0.00  0.00    -0.000 A 
ATOM      7  C   UNN dAMED      -2.629  -1.267  -0.936  0.00  0.00     0.061 A 
ATOM      8  C   UNN dAMED      -1.389  -0.457  -0.587  0.00  0.00     0.075 A 
ATOM      9  C   UNN dAMED      -4.999  -0.914   0.091  0.00  0.00    -0.003 A 
ATOM     10  C   UNN dAMED      -0.717   1.332   1.046  0.00  0.00     0.131 C 
ATOM     11  C   UNN dAMED      -2.981  -1.017  -2.399  0.00  0.00     0.011 C 
ATOM     12  C   UNN dAMED      -2.424  -2.704  -0.468  0.00  0.00     0.011 C 
ENDROOT
BRANCH   8  13
ATOM     13  C   UNN dAMED      -0.171  -0.664  -0.977  0.00  0.00    -0.088 C 
BRANCH  13  14
ATOM     14  C   UNN dAMED       1.096  -0.845  -1.355  0.00  0.00     0.042 C 
BRANCH  14  15
ATOM     15  C   UNN dAMED       2.209  -0.062  -0.705  0.00  0.00     0.009 A 
ATOM     16  C   UNN dAMED       2.526   1.212  -1.145  0.00  0.00     0.010 A 
ATOM     17  C   UNN dAMED       3.510   1.963  -0.485  0.00  0.00     0.070 A 
ATOM     18  I   UNN dAMED       3.804   3.887  -1.321  0.00  0.00    -0.039 I 
ATOM     19  C   UNN dAMED       4.240   1.497   0.641  0.00  0.00     0.206 A 
ATOM     20  C   UNN dAMED       3.873   0.180   1.031  0.00  0.00     0.070 A 
ATOM     21  O   UNN dAMED       5.134   2.189   1.241  0.00  0.00    -0.286 OA
ATOM     22  I   UNN dAMED       4.768  -0.819   2.670  0.00  0.00    -0.039 I 
ATOM     23  C   UNN dAMED       2.890  -0.582   0.383  0.00  0.00     0.010 A 
ENDBRANCH  14  15
ENDBRANCH  13  14
ENDBRANCH   8  13
TORSDOF 3
