REMARK  0 active torsions:
REMARK  status: ('A' for Active; 'I' for Inactive)
ROOT
ATOM      1  O   UNN dAMED       0.003   2.059  -0.447  0.00  0.00    -0.286 OA
ATOM      2  O   UNN dAMED      -1.087  -1.770  -0.739  0.00  0.00    -0.305 OA
ATOM      3  C   UNN dAMED      -3.339  -1.368  -0.203  0.00  0.00     0.067 A 
ATOM      4  C   UNN dAMED      -2.039  -0.886  -0.308  0.00  0.00     0.109 A 
ATOM      5  C   UNN dAMED      -4.405  -0.558   0.183  0.00  0.00     0.201 A 
ATOM      6  C   UNN dAMED      -1.742   0.460  -0.053  0.00  0.00     0.101 A 
ATOM      7  C   UNN dAMED      -4.036   0.774   0.454  0.00  0.00     0.084 A 
ATOM      8  C   UNN dAMED      -0.330   0.902  -0.243  0.00  0.00     0.203 C 
ATOM      9  C   UNN dAMED       0.140  -1.447  -0.133  0.00  0.00     0.126 C 
ATOM     10  C   UNN dAMED       0.636  -0.209  -0.140  0.00  0.00     0.064 C 
ATOM     11  C   UNN dAMED       2.072  -0.024  -0.010  0.00  0.00     0.005 A 
ATOM     12  C   UNN dAMED       2.618   0.859   0.913  0.00  0.00     0.003 A 
ATOM     13  C   UNN dAMED       4.007   0.963   1.034  0.00  0.00     0.042 A 
ATOM     14  C   UNN dAMED       4.912   0.198   0.279  0.00  0.00     0.196 A 
ATOM     15  C   UNN dAMED       2.920  -0.808  -0.779  0.00  0.00     0.003 A 
ATOM     16  C   UNN dAMED      -2.751   1.360   0.365  0.00  0.00     0.204 A 
ATOM     17  C   UNN dAMED       4.305  -0.687  -0.628  0.00  0.00     0.042 A 
ATOM     18  O   UNN dAMED      -5.601  -0.981   0.282  0.00  0.00    -0.286 OA
ATOM     19  O   UNN dAMED      -2.584   2.589   0.666  0.00  0.00    -0.286 OA
ATOM     20  O   UNN dAMED       6.174   0.293   0.411  0.00  0.00    -0.287 OA
ENDROOT
TORSDOF 0
