REMARK  2 active torsions:
REMARK  status: ('A' for Active; 'I' for Inactive)
REMARK    1  A    between atoms: C_11  and  C_21 
REMARK    2  A    between atoms: C_16  and  C_21 
ROOT
ATOM      1  O   UNN dAMED      -4.685   1.116  -0.766  0.00  0.00    -0.246 OA
ATOM      2  N   UNN dAMED      -3.203  -0.674  -0.638  0.00  0.00    -0.246 N 
ATOM      3  N   UNN dAMED      -2.459   1.504  -0.243  0.00  0.00    -0.263 N 
ATOM      4  O   UNN dAMED      -2.045  -2.550   0.101  0.00  0.00    -0.266 OA
ATOM      5  N   UNN dAMED       0.064  -0.535   0.982  0.00  0.00    -0.209 NA
ATOM      6  N   UNN dAMED      -0.230   1.663   0.787  0.00  0.00    -0.215 NA
ATOM      7  C   UNN dAMED      -2.107  -1.338  -0.084  0.00  0.00     0.278 C 
ATOM      8  C   UNN dAMED      -1.128  -0.383   0.350  0.00  0.00     0.133 A 
ATOM      9  C   UNN dAMED      -1.303   0.983   0.288  0.00  0.00     0.164 A 
ATOM     10  C   UNN dAMED       0.602   0.709   1.155  0.00  0.00     0.125 A 
ATOM     11  C   UNN dAMED      -3.543   0.695  -0.586  0.00  0.00     0.335 C 
ATOM     12  C   UNN dAMED      -4.360  -1.495  -0.640  0.00  0.00     0.138 C 
ATOM     13  C   UNN dAMED      -2.847   2.741   0.336  0.00  0.00     0.137 C 
ATOM     14  C   UNN dAMED       0.936  -1.319   0.177  0.00  0.00     0.101 C 
ENDROOT
BRANCH  10  15
ATOM     15  C   UNN dAMED       2.088   0.945   1.252  0.00  0.00     0.031 C 
BRANCH  15  16
ATOM     16  C   UNN dAMED       3.020   0.755   0.081  0.00  0.00     0.003 A 
ATOM     17  C   UNN dAMED       3.751  -0.429  -0.022  0.00  0.00     0.000 A 
ATOM     18  C   UNN dAMED       4.803  -0.526  -0.930  0.00  0.00     0.000 A 
ATOM     19  C   UNN dAMED       5.132   0.563  -1.732  0.00  0.00     0.000 A 
ATOM     20  C   UNN dAMED       4.406   1.747  -1.630  0.00  0.00     0.000 A 
ATOM     21  C   UNN dAMED       3.357   1.845  -0.720  0.00  0.00     0.000 A 
ENDBRANCH  15  16
ENDBRANCH  10  15
TORSDOF 2
