REMARK  3 active torsions:
REMARK  status: ('A' for Active; 'I' for Inactive)
REMARK    1  A    between atoms: C_5  and  N_9 
REMARK    2  A    between atoms: N_9  and  C_10 
REMARK    3  A    between atoms: C_10  and  C_11 
ROOT
ATOM      1 CL   UNN dAMED      -3.739   1.277   0.390  0.00  0.00    -0.060 Cl
ATOM      2  N   UNN dAMED      -2.833  -1.132   0.079  0.00  0.00    -0.211 NA
ATOM      3  N   UNN dAMED      -0.516  -1.678  -0.294  0.00  0.00    -0.204 NA
ATOM      4  C   UNN dAMED      -1.171   0.604  -0.024  0.00  0.00     0.134 A 
ATOM      5  C   UNN dAMED      -0.208  -0.363  -0.237  0.00  0.00     0.175 A 
ATOM      6  C   UNN dAMED      -2.467   0.161   0.126  0.00  0.00     0.156 A 
ATOM      7  C   UNN dAMED      -1.820  -1.993  -0.131  0.00  0.00     0.201 A 
ATOM      8  N   UNN dAMED      -0.841   1.986   0.039  0.00  0.00    -0.095 NA
ENDROOT
BRANCH   5   9
ATOM      9  N   UNN dAMED       1.083  -0.048  -0.404  0.00  0.00    -0.249 NA
BRANCH   9  10
ATOM     10  C   UNN dAMED       2.118  -1.016  -0.078  0.00  0.00     0.163 C 
BRANCH  10  11
ATOM     11  C   UNN dAMED       3.594  -0.607  -0.136  0.00  0.00     0.209 C 
ATOM     12  O   UNN dAMED       4.562  -1.476   0.283  0.00  0.00    -0.218 OA
ENDBRANCH  10  11
ENDBRANCH   9  10
ENDBRANCH   5   9
TORSDOF 3
