REMARK  5 active torsions:
REMARK  status: ('A' for Active; 'I' for Inactive)
REMARK    1  A    between atoms: O_1  and  C_2 
REMARK    2  A    between atoms: O_3  and  C_4 
REMARK    3  A    between atoms: C_8  and  C_24 
REMARK    4  A    between atoms: C_9  and  C_24 
REMARK    5  A    between atoms: C_20  and  S_21 
ROOT
ATOM      1  C   UNN dAMED       0.355   0.488   1.711  0.00  0.00     0.152 A 
ATOM      2  C   UNN dAMED       0.848  -2.620   1.924  0.00  0.00     0.020 A 
ATOM      3  C   UNN dAMED       0.407  -3.938   1.968  0.00  0.00     0.031 A 
ATOM      4  N   UNN dAMED       0.961   1.643   1.851  0.00  0.00    -0.132 NA
ATOM      5  N   UNN dAMED       0.702  -0.365   2.721  0.00  0.00    -0.272 N 
ATOM      6  C   UNN dAMED       0.304  -1.698   2.817  0.00  0.00     0.067 A 
ATOM      7  C   UNN dAMED      -0.559  -4.306   2.902  0.00  0.00     0.140 A 
ATOM      8  F   UNN dAMED      -0.972  -5.580   2.951  0.00  0.00    -0.204 F 
ATOM      9  N   UNN dAMED       1.692   1.577   3.021  0.00  0.00    -0.122 NA
ATOM     10  C   UNN dAMED      -0.675  -2.054   3.744  0.00  0.00     0.020 A 
ATOM     11  C   UNN dAMED      -1.102  -3.378   3.790  0.00  0.00     0.031 A 
ATOM     12  C   UNN dAMED       1.537   0.370   3.521  0.00  0.00     0.197 A 
ENDROOT
BRANCH   1  13
ATOM     13  C   UNN dAMED      -0.210   0.008   0.403  0.00  0.00     0.093 C 
BRANCH  13  14
ATOM     14  C   UNN dAMED      -1.672   0.173   0.088  0.00  0.00    -0.013 A 
ATOM     15  C   UNN dAMED      -2.093   1.244  -0.698  0.00  0.00     0.022 A 
ATOM     16  C   UNN dAMED      -3.452   1.449  -0.895  0.00  0.00     0.116 A 
ATOM     17  C   UNN dAMED      -4.383   0.600  -0.314  0.00  0.00     0.116 A 
ATOM     18  C   UNN dAMED      -3.970  -0.477   0.460  0.00  0.00     0.026 A 
ATOM     19  C   UNN dAMED      -2.609  -0.692   0.658  0.00  0.00    -0.002 A 
BRANCH  16  20
ATOM     20  O   UNN dAMED      -3.852   2.508  -1.653  0.00  0.00    -0.326 OA
ATOM     21  C   UNN dAMED      -4.162   3.515  -0.737  0.00  0.00     0.181 C 
ENDBRANCH  16  20
BRANCH  17  22
ATOM     22  O   UNN dAMED      -5.719   0.807  -0.488  0.00  0.00    -0.326 OA
ATOM     23  C   UNN dAMED      -5.810   1.917  -1.330  0.00  0.00     0.181 C 
ENDBRANCH  17  22
ENDBRANCH  13  14
ENDBRANCH   1  13
BRANCH  12  24
ATOM     24  S   UNN dAMED       2.293  -0.238   4.950  0.00  0.00    -0.074 SA
ATOM     25  C   UNN dAMED       3.382   1.168   5.155  0.00  0.00     0.077 C 
ENDBRANCH  12  24
TORSDOF 5
