REMARK  7 active torsions:
REMARK  status: ('A' for Active; 'I' for Inactive)
REMARK    1  A    between atoms: C_1  and  C_2 
REMARK    2  A    between atoms: C_1  and  N_19 
REMARK    3  A    between atoms: C_2  and  N_20 
REMARK    4  A    between atoms: C_2  and  C_21 
REMARK    5  A    between atoms: C_3  and  N_20 
REMARK    6  A    between atoms: C_9  and  N_19 
REMARK    7  A    between atoms: C_13  and  O_23 
ROOT
ATOM      1  C   UNN dAMED       0.156  -0.762  -2.131  0.00  0.00     0.096 A 
ATOM      2  C   UNN dAMED       0.752  -1.804  -2.864  0.00  0.00     0.099 A 
ATOM      3  C   UNN dAMED       1.933  -1.522  -3.589  0.00  0.00     0.021 A 
ATOM      4  C   UNN dAMED       2.508  -0.255  -3.582  0.00  0.00     0.026 A 
ATOM      5  C   UNN dAMED       1.908   0.751  -2.849  0.00  0.00     0.096 A 
ATOM      6  C   UNN dAMED       0.747   0.509  -2.132  0.00  0.00     0.044 A 
ATOM      7  N   UNN dAMED       0.224  -3.047  -2.884  0.00  0.00    -0.243 NA
ATOM      8  C   UNN dAMED       0.844  -4.007  -3.608  0.00  0.00     0.099 A 
ATOM      9  C   UNN dAMED       1.995  -3.806  -4.343  0.00  0.00     0.021 A 
ATOM     10  C   UNN dAMED       2.541  -2.534  -4.323  0.00  0.00     0.003 A 
ENDROOT
BRANCH   1  11
ATOM     11  N   UNN dAMED      -0.971  -0.955  -1.418  0.00  0.00    -0.263 NA
BRANCH  11  12
ATOM     12  C   UNN dAMED      -2.209  -0.315  -1.830  0.00  0.00     0.167 C 
BRANCH  12  13
ATOM     13  C   UNN dAMED      -3.240  -1.068  -2.682  0.00  0.00     0.061 C 
BRANCH  13  14
ATOM     14  N   UNN dAMED      -4.419  -0.370  -3.135  0.00  0.00    -0.261 NA
BRANCH  14  15
ATOM     15  C   UNN dAMED      -4.447   0.669  -4.136  0.00  0.00     0.036 C 
ATOM     16  C   UNN dAMED      -5.722   0.869  -4.967  0.00  0.00     0.041 C 
ATOM     17  C   UNN dAMED      -5.625   1.856  -6.135  0.00  0.00     0.006 C 
ATOM     18  C   UNN dAMED      -4.823   3.127  -5.854  0.00  0.00     0.001 C 
ATOM     19  C   UNN dAMED      -3.507   2.900  -5.108  0.00  0.00     0.006 C 
ATOM     20  C   UNN dAMED      -3.577   1.918  -3.934  0.00  0.00     0.041 C 
ENDBRANCH  14  15
ENDBRANCH  13  14
BRANCH  13  21
ATOM     21  C   UNN dAMED      -2.872  -2.408  -3.328  0.00  0.00     0.043 C 
ATOM     22  C   UNN dAMED      -3.931  -3.193  -4.112  0.00  0.00     0.006 C 
ENDBRANCH  13  21
ENDBRANCH  12  13
ENDBRANCH  11  12
ENDBRANCH   1  11
BRANCH   5  23
ATOM     23  O   UNN dAMED       2.473   1.988  -2.817  0.00  0.00    -0.328 OA
ATOM     24  C   UNN dAMED       3.851   1.760  -2.834  0.00  0.00     0.181 C 
ENDBRANCH   5  23
TORSDOF 7
