REMARK  3 active torsions:
REMARK  status: ('A' for Active; 'I' for Inactive)
REMARK    1  A    between atoms: C_3  and  C_8 
REMARK    2  A    between atoms: C_3  and  N_15 
REMARK    3  A    between atoms: C_7  and  N_15 
ROOT
ATOM      1  N   UNN dAMED       0.612  -0.618   1.039  0.00  0.00    -0.212 NA
ATOM      2  N   UNN dAMED       2.903  -1.301   0.644  0.00  0.00    -0.212 NA
ATOM      3  C   UNN dAMED       1.644  -1.494   1.091  0.00  0.00     0.143 A 
ATOM      4  C   UNN dAMED       2.092   0.904  -0.012  0.00  0.00     0.073 A 
ATOM      5  C   UNN dAMED       3.085  -0.082   0.097  0.00  0.00     0.167 A 
ATOM      6  C   UNN dAMED       0.827   0.595   0.483  0.00  0.00     0.163 A 
ATOM      7  C   UNN dAMED       1.354  -2.833   1.715  0.00  0.00     0.074 C 
ATOM      8  C   UNN dAMED       2.741   2.010  -0.651  0.00  0.00     0.027 A 
ATOM      9  C   UNN dAMED       4.040   1.571  -0.853  0.00  0.00     0.101 A 
ATOM     10  N   UNN dAMED       4.319   0.291  -0.415  0.00  0.00    -0.225 NA
ENDROOT
BRANCH   6  11
ATOM     11  N   UNN dAMED      -0.180   1.472   0.418  0.00  0.00    -0.248 NA
BRANCH  11  12
ATOM     12  C   UNN dAMED      -0.039   2.678  -0.387  0.00  0.00     0.154 C 
BRANCH  12  13
ATOM     13  C   UNN dAMED      -0.411   4.030   0.164  0.00  0.00     0.002 A 
ATOM     14  C   UNN dAMED      -1.618   4.620  -0.205  0.00  0.00    -0.002 A 
ATOM     15  C   UNN dAMED      -1.935   5.896   0.253  0.00  0.00    -0.000 A 
ATOM     16  C   UNN dAMED      -1.046   6.584   1.075  0.00  0.00    -0.000 A 
ATOM     17  C   UNN dAMED       0.164   5.997   1.437  0.00  0.00    -0.000 A 
ATOM     18  C   UNN dAMED       0.484   4.722   0.979  0.00  0.00    -0.002 A 
ENDBRANCH  12  13
ENDBRANCH  11  12
ENDBRANCH   6  11
TORSDOF 3
