REMARK  3 active torsions:
REMARK  status: ('A' for Active; 'I' for Inactive)
REMARK    1  A    between atoms: C_3  and  C_23 
REMARK    2  A    between atoms: C_5  and  C_25 
REMARK    3  A    between atoms: O_21  and  C_23 
ROOT
ATOM      1  N   UNN dAMED      -0.736  -0.455   0.418  0.00  0.00    -0.299 N 
ATOM      2  N   UNN dAMED       3.040  -0.160  -0.201  0.00  0.00    -0.254 NA
ATOM      3  C   UNN dAMED      -1.169   0.870   0.867  0.00  0.00     0.274 C 
ATOM      4  C   UNN dAMED       0.088   1.628   1.352  0.00  0.00     0.068 C 
ATOM      5  C   UNN dAMED       1.373   1.740   0.497  0.00  0.00     0.035 C 
ATOM      6  C   UNN dAMED       2.533   2.324   1.305  0.00  0.00     0.007 C 
ATOM      7  C   UNN dAMED       3.934   1.972   0.823  0.00  0.00     0.018 C 
ATOM      8  C   UNN dAMED       4.126   0.495   0.506  0.00  0.00     0.076 C 
ATOM      9  C   UNN dAMED       1.729   0.237   0.351  0.00  0.00     0.029 C 
ATOM     10  C   UNN dAMED       0.580  -0.723   0.207  0.00  0.00     0.064 A 
ATOM     11  C   UNN dAMED       0.704  -2.004  -0.224  0.00  0.00    -0.003 A 
ATOM     12  C   UNN dAMED       2.034  -2.493  -0.680  0.00  0.00     0.046 C 
ATOM     13  C   UNN dAMED       3.204  -1.615  -0.207  0.00  0.00     0.081 C 
ATOM     14  C   UNN dAMED      -0.573  -2.566  -0.353  0.00  0.00     0.013 A 
ATOM     15  C   UNN dAMED      -2.866  -1.785   0.046  0.00  0.00     0.017 A 
ATOM     16  C   UNN dAMED      -1.480  -1.569   0.057  0.00  0.00     0.062 A 
ATOM     17  C   UNN dAMED      -3.325  -3.036  -0.372  0.00  0.00     0.002 A 
ATOM     18  C   UNN dAMED      -2.443  -4.032  -0.776  0.00  0.00     0.000 A 
ATOM     19  C   UNN dAMED      -1.065  -3.811  -0.780  0.00  0.00     0.001 A 
ATOM     20  O   UNN dAMED      -1.994   0.763   1.881  0.00  0.00    -0.192 OA
ENDROOT
BRANCH   3  21
ATOM     21  C   UNN dAMED      -1.804   1.668  -0.263  0.00  0.00     0.320 C 
ATOM     22  O   UNN dAMED      -1.931   1.294  -1.422  0.00  0.00    -0.259 OA
BRANCH  21  23
ATOM     23  O   UNN dAMED      -2.131   2.924   0.148  0.00  0.00    -0.296 OA
ATOM     24  C   UNN dAMED      -2.159   2.848   1.543  0.00  0.00     0.185 C 
ENDBRANCH  21  23
ENDBRANCH   3  21
BRANCH   5  25
ATOM     25  C   UNN dAMED       1.058   2.496  -0.786  0.00  0.00     0.005 C 
ATOM     26  C   UNN dAMED       1.128   4.026  -0.806  0.00  0.00     0.000 C 
ENDBRANCH   5  25
TORSDOF 3
