REMARK  0 active torsions:
REMARK  status: ('A' for Active; 'I' for Inactive)
ROOT
ATOM      1  H   UNN dAMED      -1.279  -1.201  -1.569  0.00  0.00     0.166 HD
ATOM      2  O   UNN dAMED      -3.326  -1.621   0.121  0.00  0.00    -0.247 OA
ATOM      3  N   UNN dAMED      -1.340  -0.689  -0.694  0.00  0.00    -0.320 N 
ATOM      4  N   UNN dAMED      -2.142   0.031   1.256  0.00  0.00    -0.277 N 
ATOM      5  H   UNN dAMED      -2.740   0.135   2.068  0.00  0.00     0.173 HD
ATOM      6  O   UNN dAMED      -0.544   1.646   1.751  0.00  0.00    -0.270 OA
ATOM      7  C   UNN dAMED      -2.382  -0.849   0.222  0.00  0.00     0.324 A 
ATOM      8  C   UNN dAMED      -1.000   0.765   1.037  0.00  0.00     0.260 A 
ATOM      9  C   UNN dAMED      -0.414   0.331  -0.287  0.00  0.00     0.155 A 
ATOM     10  C   UNN dAMED      -0.381   1.500  -1.295  0.00  0.00     0.038 A 
ATOM     11  C   UNN dAMED       1.020  -0.122  -0.226  0.00  0.00     0.000 A 
ATOM     12  C   UNN dAMED       1.554  -1.153   0.530  0.00  0.00    -0.002 A 
ATOM     13  C   UNN dAMED       2.923  -1.405   0.431  0.00  0.00    -0.000 A 
ATOM     14  C   UNN dAMED       1.057   1.685  -1.783  0.00  0.00     0.029 A 
ATOM     15  C   UNN dAMED       1.848   0.641  -1.068  0.00  0.00    -0.024 A 
ATOM     16  C   UNN dAMED       3.738  -0.637  -0.413  0.00  0.00    -0.000 A 
ATOM     17  C   UNN dAMED       3.204   0.401  -1.175  0.00  0.00    -0.004 A 
ENDROOT
TORSDOF 0
