REMARK  0 active torsions:
REMARK  status: ('A' for Active; 'I' for Inactive)
ROOT
ATOM      1  C   UNN dAMED      -1.282   0.111  -0.172  0.00  0.00     0.061 A 
ATOM      2  C   UNN dAMED      -0.825   1.376  -0.178  0.00  0.00     0.040 A 
ATOM      3  C   UNN dAMED      -0.319  -1.042   0.001  0.00  0.00     0.058 A 
ATOM      4  N   UNN dAMED       0.512   1.661  -0.031  0.00  0.00    -0.359 N 
ATOM      5  H   UNN dAMED       0.806   2.629  -0.014  0.00  0.00     0.165 HD
ATOM      6  C   UNN dAMED       1.457   0.679   0.148  0.00  0.00     0.040 A 
ATOM      7  C   UNN dAMED       1.125  -0.625   0.171  0.00  0.00     0.061 A 
ATOM      8  C   UNN dAMED      -2.670  -0.144  -0.326  0.00  0.00     0.098 C 
ATOM      9  N   UNN dAMED      -3.804  -0.356  -0.450  0.00  0.00    -0.192 NA
ATOM     10  C   UNN dAMED      -1.802   2.505  -0.348  0.00  0.00     0.050 C 
ATOM     11  C   UNN dAMED      -0.745  -1.864   1.225  0.00  0.00     0.010 C 
ATOM     12  C   UNN dAMED      -0.428  -1.967  -1.218  0.00  0.00     0.010 C 
ATOM     13  C   UNN dAMED       2.129  -1.610   0.358  0.00  0.00     0.098 C 
ATOM     14  N   UNN dAMED       2.947  -2.419   0.510  0.00  0.00    -0.192 NA
ATOM     15  C   UNN dAMED       2.898   1.068   0.324  0.00  0.00     0.050 C 
ENDROOT
TORSDOF 0
