REMARK  2 active torsions:
REMARK  status: ('A' for Active; 'I' for Inactive)
REMARK    1  A    between atoms: C_15  and  O_18 
REMARK    2  A    between atoms: C_17  and  O_20 
ROOT
ATOM      1  O   UNN dAMED       0.380   3.131   0.268  0.00  0.00    -0.286 OA
ATOM      2  O   UNN dAMED      -0.507  -0.819  -0.125  0.00  0.00    -0.307 OA
ATOM      3  N   UNN dAMED      -4.798  -1.375   0.817  0.00  0.00    -0.242 NA
ATOM      4  C   UNN dAMED      -5.437  -1.204  -0.362  0.00  0.00     0.099 A 
ATOM      5  C   UNN dAMED      -4.864  -0.617  -1.478  0.00  0.00     0.021 A 
ATOM      6  C   UNN dAMED      -3.549  -0.179  -1.375  0.00  0.00     0.005 A 
ATOM      7  C   UNN dAMED      -2.856  -0.342  -0.182  0.00  0.00     0.042 A 
ATOM      8  C   UNN dAMED      -3.522  -0.935   0.879  0.00  0.00     0.101 A 
ATOM      9  C   UNN dAMED      -1.496   0.138  -0.042  0.00  0.00     0.105 A 
ATOM     10  C   UNN dAMED      -1.240   1.442   0.059  0.00  0.00     0.067 A 
ATOM     11  C   UNN dAMED       0.173   1.934   0.156  0.00  0.00     0.201 A 
ATOM     12  C   UNN dAMED       1.229   0.919   0.102  0.00  0.00     0.084 A 
ATOM     13  C   UNN dAMED       1.750  -1.426  -0.092  0.00  0.00     0.049 A 
ATOM     14  C   UNN dAMED       0.800  -0.405  -0.034  0.00  0.00     0.107 A 
ATOM     15  C   UNN dAMED       3.103  -1.114  -0.012  0.00  0.00     0.098 A 
ATOM     16  C   UNN dAMED       3.536   0.198   0.124  0.00  0.00     0.049 A 
ATOM     17  C   UNN dAMED       2.590   1.215   0.180  0.00  0.00     0.101 A 
ENDROOT
BRANCH  17  18
ATOM     18  O   UNN dAMED       3.048   2.492   0.313  0.00  0.00    -0.328 OA
ATOM     19  C   UNN dAMED       1.904   3.288   0.400  0.00  0.00     0.181 C 
ENDBRANCH  17  18
BRANCH  15  20
ATOM     20  O   UNN dAMED       4.023  -2.117  -0.068  0.00  0.00    -0.328 OA
ATOM     21  C   UNN dAMED       3.290  -3.294   0.094  0.00  0.00     0.181 C 
ENDBRANCH  15  20
TORSDOF 2
