REMARK  13 active torsions:
REMARK  status: ('A' for Active; 'I' for Inactive)
REMARK    1  A    between atoms: O_1  and  C_21 
REMARK    2  A    between atoms: O_1  and  C_23 
REMARK    3  A    between atoms: N_2  and  C_27 
REMARK       I    between atoms: N_2  and  C_28 
REMARK    4  A    between atoms: N_2  and  C_30 
REMARK    5  A    between atoms: O_3  and  C_6 
REMARK    6  A    between atoms: O_3  and  C_11 
REMARK    7  A    between atoms: C_7  and  N_31 
REMARK    8  A    between atoms: C_14  and  C_30 
REMARK    9  A    between atoms: C_16  and  C_19 
REMARK   10  A    between atoms: C_19  and  C_20 
REMARK   11  A    between atoms: C_20  and  C_21 
REMARK   12  A    between atoms: C_23  and  C_27 
REMARK   13  A    between atoms: C_24  and  C_28 
ROOT
ATOM      1  C   UNN dAMED      -0.947  -0.310  -1.937  0.00  0.00     0.079 C 
ENDROOT
BRANCH   1   2
ATOM      2  N   UNN dAMED      -2.142   0.377  -1.585  0.00  0.00    -0.290 N 
ATOM      3  C   UNN dAMED      -3.105  -0.090  -2.459  0.00  0.00     0.282 C 
ATOM      4  O   UNN dAMED      -2.879  -0.276  -3.651  0.00  0.00    -0.265 OA
BRANCH   2   5
ATOM      5  C   UNN dAMED      -2.513   1.701  -1.252  0.00  0.00     0.142 C 
BRANCH   5   6
ATOM      6  C   UNN dAMED      -3.618   2.416  -2.037  0.00  0.00     0.176 C 
BRANCH   6   7
ATOM      7  O   UNN dAMED      -3.304   3.405  -2.973  0.00  0.00    -0.300 OA
BRANCH   7   8
ATOM      8  C   UNN dAMED      -4.370   3.410  -3.821  0.00  0.00     0.273 C 
ATOM      9  O   UNN dAMED      -4.703   2.418  -4.457  0.00  0.00    -0.264 OA
BRANCH   8  10
ATOM     10  C   UNN dAMED      -5.369   4.528  -3.708  0.00  0.00     0.107 C 
BRANCH  10  11
ATOM     11  C   UNN dAMED      -5.121   5.697  -2.755  0.00  0.00     0.108 C 
BRANCH  11  12
ATOM     12  C   UNN dAMED      -4.431   6.923  -3.279  0.00  0.00     0.186 C 
ATOM     13  O   UNN dAMED      -5.155   7.944  -3.475  0.00  0.00    -0.647 OA
ATOM     14  O   UNN dAMED      -3.184   6.815  -3.479  0.00  0.00    -0.647 OA
ENDBRANCH  11  12
ENDBRANCH  10  11
ENDBRANCH   8  10
ENDBRANCH   7   8
ENDBRANCH   6   7
ENDBRANCH   5   6
ENDBRANCH   2   5
BRANCH   3  15
ATOM     15  C   UNN dAMED      -4.514  -0.350  -1.953  0.00  0.00     0.171 C 
ATOM     16 CL   UNN dAMED      -5.619   0.981  -1.638  0.00  0.00    -0.065 Cl
ATOM     17 CL   UNN dAMED      -5.097  -1.992  -1.711  0.00  0.00    -0.065 Cl
ENDBRANCH   3  15
ENDBRANCH   1   2
BRANCH   1  18
ATOM     18  C   UNN dAMED       0.448   0.283  -1.871  0.00  0.00     0.017 A 
ATOM     19  C   UNN dAMED       1.147   0.233  -0.664  0.00  0.00     0.004 A 
ATOM     20  C   UNN dAMED       2.545   0.238  -0.649  0.00  0.00     0.025 A 
ATOM     21  C   UNN dAMED       3.267   0.350  -1.836  0.00  0.00     0.100 A 
ATOM     22  C   UNN dAMED       2.575   0.389  -3.045  0.00  0.00     0.025 A 
ATOM     23  C   UNN dAMED       1.178   0.360  -3.060  0.00  0.00     0.004 A 
BRANCH  21  24
ATOM     24  O   UNN dAMED       4.636   0.214  -1.928  0.00  0.00    -0.307 OA
BRANCH  24  25
ATOM     25  C   UNN dAMED       5.468   0.811  -1.006  0.00  0.00     0.100 A 
ATOM     26  C   UNN dAMED       5.052   1.416   0.182  0.00  0.00     0.026 A 
ATOM     27  C   UNN dAMED       5.974   1.966   1.073  0.00  0.00     0.026 A 
ATOM     28  C   UNN dAMED       7.322   1.906   0.744  0.00  0.00     0.127 A 
ATOM     29  C   UNN dAMED       7.779   1.313  -0.427  0.00  0.00     0.026 A 
ATOM     30  C   UNN dAMED       6.837   0.757  -1.297  0.00  0.00     0.026 A 
BRANCH  28  31
ATOM     31  N   UNN dAMED       8.279   2.440   1.674  0.00  0.00    -0.114 N 
ATOM     32  O   UNN dAMED       8.779   1.649   2.484  0.00  0.00    -0.532 OA
ATOM     33  O   UNN dAMED       8.520   3.651   1.599  0.00  0.00    -0.532 OA
ENDBRANCH  28  31
ENDBRANCH  24  25
ENDBRANCH  21  24
ENDBRANCH   1  18
TORSDOF 13
