REMARK  2 active torsions:
REMARK  status: ('A' for Active; 'I' for Inactive)
REMARK    1  A    between atoms: C_5  and  C_14 
REMARK    2  A    between atoms: C_7  and  N_13 
REMARK       I    between atoms: N_13  and  C_14 
ROOT
ATOM      1  N   UNN dAMED      -0.074  -0.511   0.093  0.00  0.00    -0.188 NA
ATOM      2  C   UNN dAMED       0.751   0.429  -0.381  0.00  0.00     0.300 C 
ATOM      3  O   UNN dAMED       0.522   1.306  -1.209  0.00  0.00    -0.263 OA
ENDROOT
BRANCH   1   4
ATOM      4  C   UNN dAMED      -1.369  -0.154   0.128  0.00  0.00     0.162 A 
ATOM      5  N   UNN dAMED      -1.800   0.440   1.268  0.00  0.00    -0.226 NA
ATOM      6  C   UNN dAMED      -3.117   0.739   1.355  0.00  0.00     0.101 A 
ATOM      7  C   UNN dAMED      -4.041   0.474   0.360  0.00  0.00     0.021 A 
ATOM      8  C   UNN dAMED      -3.584  -0.152  -0.790  0.00  0.00     0.000 A 
ATOM      9  C   UNN dAMED      -2.240  -0.481  -0.906  0.00  0.00     0.014 A 
ATOM     10  C   UNN dAMED      -1.742  -1.226  -2.111  0.00  0.00     0.034 C 
ENDBRANCH   1   4
BRANCH   2  11
ATOM     11  C   UNN dAMED       2.088   0.231   0.161  0.00  0.00     0.163 A 
ATOM     12  N   UNN dAMED       2.594  -1.045   0.409  0.00  0.00    -0.163 NA
ATOM     13  N   UNN dAMED       3.809  -1.004   0.930  0.00  0.00    -0.036 NA
ATOM     14  S   UNN dAMED       4.395   0.556   1.078  0.00  0.00     0.006 SA
ATOM     15  C   UNN dAMED       2.970   1.254   0.449  0.00  0.00     0.075 A 
ENDBRANCH   2  11
TORSDOF 2
