REMARK  2 active torsions:
REMARK  status: ('A' for Active; 'I' for Inactive)
REMARK    1  A    between atoms: C_5  and  C_14 
REMARK    2  A    between atoms: C_6  and  C_13 
ROOT
ATOM      1  C   UNN dAMED      -0.419   0.157   0.562  0.00  0.00     0.000 C 
ATOM      2  C   UNN dAMED       0.457  -0.350  -0.303  0.00  0.00     0.000 C 
ENDROOT
BRANCH   1   3
ATOM      3  C   UNN dAMED      -1.886   0.003   0.300  0.00  0.00     0.003 A 
ATOM      4  C   UNN dAMED      -2.346  -1.137  -0.346  0.00  0.00     0.021 A 
ATOM      5  C   UNN dAMED      -3.715  -1.332  -0.410  0.00  0.00     0.099 A 
ATOM      6  N   UNN dAMED      -4.624  -0.483   0.118  0.00  0.00    -0.242 NA
ATOM      7  C   UNN dAMED      -4.135   0.617   0.732  0.00  0.00     0.099 A 
ATOM      8  C   UNN dAMED      -2.786   0.905   0.854  0.00  0.00     0.021 A 
ENDBRANCH   1   3
BRANCH   2   9
ATOM      9  C   UNN dAMED       1.924  -0.230  -0.023  0.00  0.00     0.003 A 
ATOM     10  C   UNN dAMED       2.391   0.847   0.719  0.00  0.00     0.021 A 
ATOM     11  C   UNN dAMED       3.761   1.030   0.793  0.00  0.00     0.099 A 
ATOM     12  N   UNN dAMED       4.664   0.228   0.187  0.00  0.00    -0.242 NA
ATOM     13  C   UNN dAMED       4.168  -0.812  -0.519  0.00  0.00     0.099 A 
ATOM     14  C   UNN dAMED       2.818  -1.083  -0.658  0.00  0.00     0.021 A 
ENDBRANCH   2   9
TORSDOF 2
