REMARK  6 active torsions:
REMARK  status: ('A' for Active; 'I' for Inactive)
REMARK    1  A    between atoms: O_2  and  C_14 
REMARK    2  A    between atoms: O_2  and  C_18 
REMARK    3  A    between atoms: C_5  and  N_35 
REMARK    4  A    between atoms: C_11  and  N_32 
REMARK    5  A    between atoms: C_20  and  N_31 
REMARK    6  A    between atoms: C_24  and  N_28 
REMARK       I    between atoms: N_28  and  C_29 
REMARK       I    between atoms: C_29  and  N_31 
REMARK       I    between atoms: N_32  and  C_33 
REMARK       I    between atoms: C_33  and  N_35 
ROOT
ATOM      1  O   UNN dAMED      -4.568  -1.899   6.424  0.00  0.00    -0.307 OA
ENDROOT
BRANCH   1   2
ATOM      2  C   UNN dAMED      -4.185  -1.277   7.592  0.00  0.00     0.100 A 
ATOM      3  C   UNN dAMED      -4.578   0.010   7.955  0.00  0.00     0.026 A 
ATOM      4  C   UNN dAMED      -4.118   0.571   9.145  0.00  0.00     0.021 A 
ATOM      5  C   UNN dAMED      -3.296  -0.149  10.021  0.00  0.00     0.086 A 
ATOM      6  C   UNN dAMED      -2.940  -1.453   9.651  0.00  0.00     0.021 A 
ATOM      7  C   UNN dAMED      -3.381  -2.018   8.453  0.00  0.00     0.026 A 
BRANCH   5   8
ATOM      8  N   UNN dAMED      -2.719   0.446  11.084  0.00  0.00    -0.191 NA
ATOM      9  C   UNN dAMED      -3.487   0.551  12.198  0.00  0.00     0.369 C 
ATOM     10  O   UNN dAMED      -4.652   0.178  12.326  0.00  0.00    -0.242 OA
ATOM     11  N   UNN dAMED      -2.719   1.089  13.178  0.00  0.00    -0.190 NA
BRANCH  11  12
ATOM     12  C   UNN dAMED      -3.356   1.958  13.997  0.00  0.00     0.097 A 
ATOM     13  C   UNN dAMED      -3.579   1.571  15.328  0.00  0.00     0.020 A 
ATOM     14  C   UNN dAMED      -4.133   2.434  16.274  0.00  0.00     0.002 A 
ATOM     15  C   UNN dAMED      -4.478   3.727  15.907  0.00  0.00     0.001 A 
ATOM     16  C   UNN dAMED      -4.269   4.148  14.598  0.00  0.00     0.013 A 
ATOM     17  C   UNN dAMED      -3.710   3.279  13.656  0.00  0.00     0.075 A 
ATOM     18 CL   UNN dAMED      -3.463   3.929  12.072  0.00  0.00    -0.081 Cl
ENDBRANCH  11  12
ENDBRANCH   5   8
ENDBRANCH   1   2
BRANCH   1  19
ATOM     19  C   UNN dAMED      -5.135  -1.101   5.462  0.00  0.00     0.100 A 
ATOM     20  C   UNN dAMED      -4.332  -0.357   4.605  0.00  0.00     0.026 A 
ATOM     21  C   UNN dAMED      -4.933   0.397   3.600  0.00  0.00     0.021 A 
ATOM     22  C   UNN dAMED      -6.322   0.385   3.397  0.00  0.00     0.086 A 
ATOM     23  C   UNN dAMED      -7.102  -0.381   4.275  0.00  0.00     0.021 A 
ATOM     24  C   UNN dAMED      -6.517  -1.137   5.291  0.00  0.00     0.026 A 
BRANCH  22  25
ATOM     25  N   UNN dAMED      -6.871   1.141   2.420  0.00  0.00    -0.191 NA
ATOM     26  C   UNN dAMED      -7.230   0.571   1.245  0.00  0.00     0.369 C 
ATOM     27  N   UNN dAMED      -6.625  -0.610   0.996  0.00  0.00    -0.190 NA
ATOM     28  O   UNN dAMED      -7.975   1.159   0.460  0.00  0.00    -0.242 OA
BRANCH  27  29
ATOM     29  C   UNN dAMED      -7.187  -1.366   0.026  0.00  0.00     0.097 A 
ATOM     30  C   UNN dAMED      -6.456  -1.572  -1.155  0.00  0.00     0.020 A 
ATOM     31  C   UNN dAMED      -6.915  -2.396  -2.181  0.00  0.00     0.002 A 
ATOM     32  C   UNN dAMED      -8.134  -3.047  -2.048  0.00  0.00     0.001 A 
ATOM     33  C   UNN dAMED      -8.882  -2.874  -0.890  0.00  0.00     0.013 A 
ATOM     34  C   UNN dAMED      -8.413  -2.053   0.140  0.00  0.00     0.075 A 
ATOM     35 CL   UNN dAMED      -9.416  -1.941   1.545  0.00  0.00    -0.081 Cl
ENDBRANCH  27  29
ENDBRANCH  22  25
ENDBRANCH   1  19
TORSDOF 6
