REMARK  1 active torsions:
REMARK  status: ('A' for Active; 'I' for Inactive)
REMARK    1  A    between atoms: C_11  and  S_12 
ROOT
ATOM      1  C   UNN dAMED      -3.729  -0.816  -0.526  0.00  0.00     0.008 A 
ATOM      2  C   UNN dAMED      -3.854   0.428   0.027  0.00  0.00     0.035 A 
ATOM      3  S   UNN dAMED      -2.365   1.142   0.410  0.00  0.00    -0.083 SA
ATOM      4  C   UNN dAMED      -1.501  -0.227  -0.168  0.00  0.00     0.065 A 
ATOM      5  C   UNN dAMED      -2.369  -1.190  -0.637  0.00  0.00     0.010 A 
ATOM      6  C   UNN dAMED      -0.075  -0.288  -0.136  0.00  0.00     0.170 A 
ATOM      7  N   UNN dAMED       0.744   0.675   0.245  0.00  0.00    -0.128 NA
ATOM      8  N   UNN dAMED       0.666  -1.381  -0.506  0.00  0.00    -0.316 N 
ATOM      9  H   UNN dAMED       0.322  -2.270  -0.847  0.00  0.00     0.169 HD
ATOM     10  N   UNN dAMED       2.039   0.209   0.126  0.00  0.00    -0.122 NA
ATOM     11  C   UNN dAMED       1.965  -1.019  -0.326  0.00  0.00     0.190 A 
ENDROOT
BRANCH  11  12
ATOM     12  S   UNN dAMED       3.251  -2.102  -0.682  0.00  0.00    -0.075 SA
ATOM     13  C   UNN dAMED       2.358  -2.997  -1.949  0.00  0.00     0.077 C 
ENDBRANCH  11  12
TORSDOF 1
