REMARK  4 active torsions:
REMARK  status: ('A' for Active; 'I' for Inactive)
REMARK    1  A    between atoms: N_1  and  C_6 
REMARK       I    between atoms: C_2  and  N_15 
REMARK    2  A    between atoms: C_6  and  C_7 
REMARK    3  A    between atoms: C_7  and  C_8 
REMARK    4  A    between atoms: C_8  and  N_9 
ROOT
ATOM      1  C   UNN dAMED      -4.084  -2.433  -0.584  0.00  0.00     0.140 C 
ENDROOT
BRANCH   1   2
ATOM      2  N   UNN dAMED      -4.351  -3.522   0.290  0.00  0.00    -0.188 NA
ATOM      3  C   UNN dAMED      -5.547  -4.068  -0.034  0.00  0.00     0.255 C 
ATOM      4  N   UNN dAMED      -5.482  -5.358  -0.237  0.00  0.00    -0.210 NA
ATOM      5  N   UNN dAMED      -6.737  -3.311  -0.133  0.00  0.00    -0.083 N 
ATOM      6  C   UNN dAMED      -4.141  -5.638  -0.133  0.00  0.00     0.114 C 
ATOM      7  C   UNN dAMED      -3.401  -4.490   0.105  0.00  0.00     0.075 C 
ATOM      8  O   UNN dAMED      -6.628  -2.094  -0.274  0.00  0.00    -0.530 OA
ATOM      9  O   UNN dAMED      -7.802  -3.954  -0.086  0.00  0.00    -0.530 OA
ENDBRANCH   1   2
BRANCH   1  10
ATOM     10  C   UNN dAMED      -2.999  -1.415  -0.251  0.00  0.00     0.142 C 
ATOM     11  O   UNN dAMED      -2.245  -0.888  -1.261  0.00  0.00    -0.192 OA
BRANCH  10  12
ATOM     12  C   UNN dAMED      -3.026  -0.677   1.092  0.00  0.00     0.096 C 
BRANCH  12  13
ATOM     13  N   UNN dAMED      -3.642  -1.202   2.259  0.00  0.00    -0.346 N 
ATOM     14  C   UNN dAMED      -4.271  -1.722   3.418  0.00  0.00     0.102 A 
ATOM     15  C   UNN dAMED      -3.958  -0.224   3.263  0.00  0.00     0.102 A 
ATOM     16  C   UNN dAMED      -3.450  -2.566   4.405  0.00  0.00     0.026 C 
ATOM     17  C   UNN dAMED      -5.051   0.798   2.976  0.00  0.00     0.026 C 
ENDBRANCH  12  13
ENDBRANCH  10  12
ENDBRANCH   1  10
TORSDOF 4
