REMARK  2 active torsions:
REMARK  status: ('A' for Active; 'I' for Inactive)
REMARK    1  A    between atoms: O_1  and  C_2 
REMARK       I    between atoms: C_2  and  N_18 
REMARK    2  A    between atoms: C_5  and  N_18 
ROOT
ATOM      1  C   UNN dAMED       1.606   1.174  -0.812  0.00  0.00     0.056 C 
ATOM      2  C   UNN dAMED       1.084   0.058  -0.202  0.00  0.00     0.109 C 
ATOM      3  S   UNN dAMED       0.496   2.448  -0.940  0.00  0.00    -0.088 SA
ATOM      4  C   UNN dAMED      -0.325   0.202   0.053  0.00  0.00     0.080 C 
ATOM      5  C   UNN dAMED      -0.692   1.500  -0.200  0.00  0.00     0.024 C 
ATOM      6  H   UNN dAMED      -0.626  -1.570   1.033  0.00  0.00     0.169 HD
ATOM      7  N   UNN dAMED      -1.119  -0.797   0.596  0.00  0.00    -0.320 N 
ATOM      8  C   UNN dAMED      -1.901   2.121   0.428  0.00  0.00     0.035 C 
ATOM      9  C   UNN dAMED      -2.492  -0.928   0.464  0.00  0.00     0.253 C 
ATOM     10  C   UNN dAMED      -3.155   2.119  -0.417  0.00  0.00     0.010 C 
ATOM     11  C   UNN dAMED      -3.206  -0.478  -0.797  0.00  0.00     0.034 C 
ATOM     12  C   UNN dAMED      -3.225   0.940  -1.369  0.00  0.00     0.031 C 
ATOM     13  O   UNN dAMED      -3.075  -1.833   1.066  0.00  0.00    -0.268 OA
ENDROOT
BRANCH   2  14
ATOM     14  N   UNN dAMED       1.891  -1.035   0.021  0.00  0.00    -0.184 NA
ATOM     15  C   UNN dAMED       2.201  -1.252   1.304  0.00  0.00     0.388 C 
ATOM     16  O   UNN dAMED       2.358  -2.352   1.825  0.00  0.00    -0.236 OA
BRANCH  15  17
ATOM     17  O   UNN dAMED       2.433  -0.106   2.017  0.00  0.00    -0.281 OA
ATOM     18  C   UNN dAMED       1.883   0.912   1.233  0.00  0.00     0.186 C 
ENDBRANCH  15  17
ENDBRANCH   2  14
TORSDOF 2
