REMARK  0 active torsions:
REMARK  status: ('A' for Active; 'I' for Inactive)
ROOT
ATOM      1  C   UNN dAMED      -2.365   0.247   0.000  0.00  0.00     0.273 A 
ATOM      2  N   UNN dAMED      -1.567   1.361  -0.000  0.00  0.00    -0.025 NA
ATOM      3  N   UNN dAMED      -1.729  -0.930   0.000  0.00  0.00    -0.113 NA
ATOM      4  C   UNN dAMED      -0.365   0.844  -0.000  0.00  0.00     0.750 A 
ATOM      5  N   UNN dAMED      -0.435  -0.521   0.000  0.00  0.00    -0.017 N 
ATOM      6  H   UNN dAMED       0.912   2.432  -0.000  0.00  0.00     0.208 HD
ATOM      7  N   UNN dAMED       0.854   1.411  -0.000  0.00  0.00    -0.105 N 
ATOM      8  C   UNN dAMED       0.660  -1.355   0.000  0.00  0.00     0.311 A 
ATOM      9  O   UNN dAMED       0.610  -2.573   0.000  0.00  0.00    -0.263 OA
ATOM     10  C   UNN dAMED       1.955  -0.588   0.000  0.00  0.00     0.138 A 
ATOM     11  N   UNN dAMED       2.028   0.714  -0.000  0.00  0.00    -0.158 NA
ATOM     12  N   UNN dAMED      -3.788   0.338  -0.000  0.00  0.00    -0.058 NA
ATOM     13  C   UNN dAMED       3.231  -1.381  -0.000  0.00  0.00     0.059 C 
ENDROOT
TORSDOF 0
