REMARK  3 active torsions:
REMARK  status: ('A' for Active; 'I' for Inactive)
REMARK    1  A    between atoms: O_2  and  C_12 
REMARK    2  A    between atoms: O_2  and  C_15 
REMARK    3  A    between atoms: C_14  and  C_15 
ROOT
ATOM      1  O   UNN dAMED      -0.159   3.675   0.864  0.00  0.00    -0.286 OA
ATOM      2  C   UNN dAMED       2.423   0.249  -1.150  0.00  0.00     0.016 C 
ATOM      3  C   UNN dAMED       2.771  -1.550  -0.954  0.00  0.00     0.004 C 
ATOM      4  C   UNN dAMED       1.228   0.606  -0.335  0.00  0.00    -0.037 C 
ATOM      5  C   UNN dAMED       0.989   1.913  -0.212  0.00  0.00     0.034 C 
ATOM      6  C   UNN dAMED       0.017   2.471   0.810  0.00  0.00     0.197 C 
ATOM      7  C   UNN dAMED       1.661  -2.444  -0.431  0.00  0.00     0.001 C 
ATOM      8  C   UNN dAMED       0.398  -0.352   0.456  0.00  0.00     0.055 C 
ATOM      9  C   UNN dAMED      -1.153   1.533   0.619  0.00  0.00     0.062 C 
ATOM     10  C   UNN dAMED       0.340  -1.732  -0.201  0.00  0.00     0.010 C 
ATOM     11  C   UNN dAMED      -0.970   0.209   0.631  0.00  0.00     0.078 C 
ATOM     12  C   UNN dAMED       1.034  -0.551   1.837  0.00  0.00     0.011 C 
ATOM     13  C   UNN dAMED       2.770  -1.543  -0.953  0.00  0.00     0.004 C 
ATOM     14  C   UNN dAMED       2.770  -1.541  -0.955  0.00  0.00     0.004 C 
ENDROOT
BRANCH  11  15
ATOM     15  O   UNN dAMED      -2.018  -0.617   0.329  0.00  0.00    -0.332 OA
BRANCH  15  16
ATOM     16  C   UNN dAMED      -1.432  -1.754  -0.228  0.00  0.00     0.184 C 
BRANCH  16  17
ATOM     17  C   UNN dAMED      -2.233  -2.579  -1.234  0.00  0.00     0.215 C 
ATOM     18  O   UNN dAMED      -3.169  -3.466  -0.785  0.00  0.00    -0.218 OA
ENDBRANCH  16  17
ENDBRANCH  15  16
ENDBRANCH  11  15
TORSDOF 3
