REMARK  4 active torsions:
REMARK  status: ('A' for Active; 'I' for Inactive)
REMARK    1  A    between atoms: C_2  and  C_8 
REMARK    2  A    between atoms: C_4  and  C_12 
REMARK    3  A    between atoms: C_8  and  C_10 
REMARK    4  A    between atoms: C_12  and  C_14 
ROOT
ATOM      1  O   UNN dAMED       3.804  -3.407  -3.603  0.00  0.00    -0.297 OA
ATOM      2  C   UNN dAMED       2.856  -2.450  -4.081  0.00  0.00     0.148 C 
ATOM      3  C   UNN dAMED       2.303  -1.429  -3.091  0.00  0.00     0.179 C 
ATOM      4  C   UNN dAMED       2.450  -1.757  -1.607  0.00  0.00     0.148 C 
ATOM      5  O   UNN dAMED       3.184  -2.925  -1.251  0.00  0.00    -0.297 OA
ATOM      6  C   UNN dAMED       3.092  -2.624  -2.645  0.00  0.00     0.304 C 
ATOM      7  O   UNN dAMED       1.402  -0.482  -3.502  0.00  0.00    -0.186 OA
ENDROOT
BRANCH   2   8
ATOM      8  C   UNN dAMED       2.155  -2.674  -5.429  0.00  0.00     0.166 C 
ATOM      9  O   UNN dAMED       2.677  -2.131  -6.575  0.00  0.00    -0.190 OA
BRANCH   8  10
ATOM     10  C   UNN dAMED       0.801  -3.384  -5.455  0.00  0.00     0.238 C 
ATOM     11  O   UNN dAMED       0.551  -4.405  -4.580  0.00  0.00    -0.213 OA
ENDBRANCH   8  10
ENDBRANCH   2   8
BRANCH   4  12
ATOM     12  C   UNN dAMED       2.174  -0.676  -0.562  0.00  0.00     0.166 C 
ATOM     13  O   UNN dAMED       3.192   0.128  -0.116  0.00  0.00    -0.190 OA
BRANCH  12  14
ATOM     14  C   UNN dAMED       0.723  -0.299  -0.240  0.00  0.00     0.238 C 
ATOM     15  O   UNN dAMED      -0.190  -1.259   0.101  0.00  0.00    -0.213 OA
ENDBRANCH  12  14
ENDBRANCH   4  12
TORSDOF 4
