REMARK  2 active torsions:
REMARK  status: ('A' for Active; 'I' for Inactive)
REMARK    1  A    between atoms: C_9  and  C_11 
REMARK    2  A    between atoms: C_12  and  C_15 
ROOT
ATOM      1  C   UNN dAMED       1.102   0.447   0.612  0.00  0.00     0.016 C 
ATOM      2  C   UNN dAMED       1.535   0.798   1.831  0.00  0.00     0.121 C 
ATOM      3  C   UNN dAMED       0.724   0.719   2.993  0.00  0.00     0.105 C 
ATOM      4  N   UNN dAMED       0.064   0.660   3.945  0.00  0.00    -0.191 NA
ENDROOT
BRANCH   2   5
ATOM      5  C   UNN dAMED       2.907   1.319   1.968  0.00  0.00     0.276 C 
ATOM      6  O   UNN dAMED       3.561   1.664   0.994  0.00  0.00    -0.270 OA
ATOM      7  N   UNN dAMED       3.518   1.324   3.255  0.00  0.00    -0.057 NA
ENDBRANCH   2   5
BRANCH   1   8
ATOM      8  C   UNN dAMED      -0.234  -0.183   0.295  0.00  0.00     0.019 A 
ATOM      9  C   UNN dAMED      -1.432   0.520   0.053  0.00  0.00     0.017 A 
ATOM     10  C   UNN dAMED      -2.377  -0.440  -0.316  0.00  0.00     0.057 A 
ATOM     11  C   UNN dAMED      -1.815   1.870   0.111  0.00  0.00     0.002 A 
ATOM     12  N   UNN dAMED      -1.743  -1.665  -0.310  0.00  0.00    -0.352 N 
ATOM     13  C   UNN dAMED      -3.704  -0.119  -0.621  0.00  0.00     0.017 A 
ATOM     14  H   UNN dAMED      -2.182  -2.543  -0.550  0.00  0.00     0.166 HD
ATOM     15  C   UNN dAMED      -0.428  -1.517   0.045  0.00  0.00     0.072 A 
ATOM     16  C   UNN dAMED      -4.060   1.230  -0.549  0.00  0.00     0.002 A 
ATOM     17  C   UNN dAMED      -3.136   2.208  -0.192  0.00  0.00     0.000 A 
ENDBRANCH   1   8
TORSDOF 2
