REMARK  6 active torsions:
REMARK  status: ('A' for Active; 'I' for Inactive)
REMARK    1  A    between atoms: N_2  and  C_28 
REMARK    2  A    between atoms: N_5  and  C_33 
REMARK    3  A    between atoms: C_11  and  C_28 
REMARK    4  A    between atoms: C_14  and  C_29 
REMARK    5  A    between atoms: C_20  and  C_33 
REMARK    6  A    between atoms: C_21  and  C_29 
ROOT
ATOM      1  C   UNN dAMED       1.392  -1.515   3.033  0.00  0.00     0.038 C 
ATOM      2  C   UNN dAMED       1.727  -1.731   4.516  0.00  0.00     0.009 C 
ATOM      3  C   UNN dAMED       1.760  -2.881   2.432  0.00  0.00     0.009 C 
ENDROOT
BRANCH   1   4
ATOM      4  C   UNN dAMED      -0.073  -1.289   2.872  0.00  0.00    -0.018 A 
ATOM      5  C   UNN dAMED      -0.833  -0.873   3.957  0.00  0.00    -0.003 A 
ATOM      6  C   UNN dAMED      -2.216  -0.698   3.825  0.00  0.00     0.050 A 
ATOM      7  C   UNN dAMED      -2.908  -0.913   2.614  0.00  0.00     0.204 A 
ATOM      8  C   UNN dAMED      -2.091  -1.368   1.547  0.00  0.00     0.096 A 
ATOM      9  O   UNN dAMED      -4.164  -0.704   2.535  0.00  0.00    -0.286 OA
ATOM     10 CL   UNN dAMED      -2.759  -1.728  -0.015  0.00  0.00    -0.079 Cl
ATOM     11  C   UNN dAMED      -0.709  -1.560   1.669  0.00  0.00     0.011 A 
BRANCH   6  12
ATOM     12  C   UNN dAMED      -3.008  -0.261   5.035  0.00  0.00     0.280 C 
BRANCH  12  13
ATOM     13  N   UNN dAMED      -3.659  -1.278   5.943  0.00  0.00     0.147 N 
ATOM     14  C   UNN dAMED      -2.273  -0.714   6.104  0.00  0.00     0.283 C 
ATOM     15  C   UNN dAMED      -2.048   0.800   6.090  0.00  0.00     0.178 C 
ATOM     16  O   UNN dAMED      -2.565   1.600   7.126  0.00  0.00    -0.350 OA
ATOM     17  C   UNN dAMED      -3.873   1.172   6.836  0.00  0.00     0.178 C 
ATOM     18  C   UNN dAMED      -4.235  -0.315   6.901  0.00  0.00     0.283 C 
ENDBRANCH  12  13
ENDBRANCH   6  12
ENDBRANCH   1   4
BRANCH   1  19
ATOM     19  C   UNN dAMED       2.287  -0.464   2.467  0.00  0.00    -0.018 A 
ATOM     20  C   UNN dAMED       3.343  -0.849   1.656  0.00  0.00    -0.003 A 
ATOM     21  C   UNN dAMED       4.242   0.102   1.157  0.00  0.00     0.050 A 
ATOM     22  C   UNN dAMED       4.139   1.483   1.431  0.00  0.00     0.204 A 
ATOM     23  C   UNN dAMED       3.039   1.828   2.259  0.00  0.00     0.096 A 
ATOM     24  O   UNN dAMED       4.987   2.310   0.955  0.00  0.00    -0.286 OA
ATOM     25 CL   UNN dAMED       2.702   3.476   2.687  0.00  0.00    -0.079 Cl
ATOM     26  C   UNN dAMED       2.148   0.881   2.781  0.00  0.00     0.011 A 
BRANCH  21  27
ATOM     27  C   UNN dAMED       5.435  -0.379   0.366  0.00  0.00     0.280 C 
BRANCH  27  28
ATOM     28  N   UNN dAMED       5.269  -1.231  -0.844  0.00  0.00     0.147 N 
ATOM     29  C   UNN dAMED       4.728  -2.248   0.091  0.00  0.00     0.283 C 
ATOM     30  C   UNN dAMED       5.381  -2.485   1.458  0.00  0.00     0.178 C 
ATOM     31  O   UNN dAMED       6.691  -2.986   1.542  0.00  0.00    -0.350 OA
ATOM     32  C   UNN dAMED       7.226  -1.979   0.722  0.00  0.00     0.178 C 
ATOM     33  C   UNN dAMED       6.649  -1.734  -0.676  0.00  0.00     0.283 C 
ENDBRANCH  27  28
ENDBRANCH  21  27
ENDBRANCH   1  19
TORSDOF 6
