REMARK  0 active torsions:
REMARK  status: ('A' for Active; 'I' for Inactive)
ROOT
ATOM      1  C   UNN dAMED      -3.745   1.405   0.344  0.00  0.00     0.002 A 
ATOM      2  C   UNN dAMED      -4.223   0.138   0.062  0.00  0.00     0.002 A 
ATOM      3  C   UNN dAMED      -2.370   1.613   0.381  0.00  0.00     0.026 A 
ATOM      4  C   UNN dAMED      -3.314  -0.888  -0.177  0.00  0.00     0.021 A 
ATOM      5  C   UNN dAMED      -1.443   0.583   0.142  0.00  0.00     0.117 A 
ATOM      6  C   UNN dAMED      -1.924  -0.689  -0.142  0.00  0.00     0.104 A 
ATOM      7  N   UNN dAMED      -1.177  -1.828  -0.404  0.00  0.00    -0.242 NA
ATOM      8  O   UNN dAMED      -0.170   1.060   0.240  0.00  0.00    -0.306 OA
ATOM      9  C   UNN dAMED       0.065  -1.975  -0.448  0.00  0.00     0.101 A 
ATOM     10  C   UNN dAMED       1.159  -0.976  -0.229  0.00  0.00     0.042 A 
ATOM     11  C   UNN dAMED       0.982   0.360   0.074  0.00  0.00     0.101 A 
ATOM     12  C   UNN dAMED       2.460  -1.489  -0.353  0.00  0.00     0.003 A 
ATOM     13  C   UNN dAMED       2.117   1.165   0.248  0.00  0.00     0.021 A 
ATOM     14  C   UNN dAMED       3.406   0.655   0.124  0.00  0.00    -0.020 A 
ATOM     15  C   UNN dAMED       3.581  -0.685  -0.180  0.00  0.00    -0.004 A 
ATOM     16  C   UNN dAMED       4.595   1.551   0.318  0.00  0.00     0.031 C 
ENDROOT
TORSDOF 0
