REMARK  4 active torsions:
REMARK  status: ('A' for Active; 'I' for Inactive)
REMARK    1  A    between atoms: C_3  and  C_7 
REMARK    2  A    between atoms: C_6  and  N_19 
REMARK    3  A    between atoms: C_8  and  C_9 
REMARK    4  A    between atoms: C_9  and  C_13 
ROOT
ATOM      1  C   UNN dAMED       0.182   0.807  -0.459  0.00  0.00     0.013 C 
ATOM      2  C   UNN dAMED      -0.434   1.915  -0.020  0.00  0.00     0.107 C 
ATOM      3  C   UNN dAMED       0.233   2.877   0.789  0.00  0.00     0.104 C 
ATOM      4  N   UNN dAMED       0.782   3.659   1.447  0.00  0.00    -0.191 NA
ENDROOT
BRANCH   2   5
ATOM      5  C   UNN dAMED      -1.902   1.990  -0.188  0.00  0.00     0.205 C 
ATOM      6  O   UNN dAMED      -2.647   1.085   0.160  0.00  0.00    -0.286 OA
BRANCH   5   7
ATOM      7  C   UNN dAMED      -2.421   3.195  -0.833  0.00  0.00     0.040 A 
ATOM      8  C   UNN dAMED      -3.079   4.142  -0.052  0.00  0.00     0.003 A 
ATOM      9  C   UNN dAMED      -3.587   5.285  -0.662  0.00  0.00     0.000 A 
ATOM     10  C   UNN dAMED      -3.436   5.467  -2.036  0.00  0.00     0.000 A 
ATOM     11  C   UNN dAMED      -2.784   4.505  -2.807  0.00  0.00     0.000 A 
ATOM     12  C   UNN dAMED      -2.276   3.356  -2.208  0.00  0.00     0.003 A 
ENDBRANCH   5   7
ENDBRANCH   2   5
BRANCH   1  13
ATOM     13  C   UNN dAMED       1.645   0.472  -0.253  0.00  0.00     0.001 A 
ATOM     14  C   UNN dAMED       2.573   0.768  -1.250  0.00  0.00     0.002 A 
ATOM     15  C   UNN dAMED       3.925   0.505  -1.041  0.00  0.00     0.017 A 
ATOM     16  C   UNN dAMED       4.353  -0.060   0.161  0.00  0.00     0.056 A 
ATOM     17  C   UNN dAMED       3.419  -0.371   1.149  0.00  0.00     0.017 A 
ATOM     18  C   UNN dAMED       2.067  -0.111   0.942  0.00  0.00     0.002 A 
BRANCH  16  19
ATOM     19  N   UNN dAMED       5.720  -0.308   0.378  0.00  0.00    -0.344 N 
ATOM     20  C   UNN dAMED       6.131  -1.484   1.122  0.00  0.00     0.126 C 
ATOM     21  C   UNN dAMED       6.685   0.760   0.185  0.00  0.00     0.126 C 
ENDBRANCH  16  19
ENDBRANCH   1  13
TORSDOF 4
