REMARK  2 active torsions:
REMARK  status: ('A' for Active; 'I' for Inactive)
REMARK    1  A    between atoms: C_2  and  C_20 
REMARK    2  A    between atoms: C_14  and  C_20 
ROOT
ATOM      1  C   UNN dAMED      -0.602  -0.566  -0.120  0.00  0.00     0.051 C 
ATOM      2  C   UNN dAMED      -0.537  -0.944   1.160  0.00  0.00     0.063 C 
ATOM      3  N   UNN dAMED       0.624  -0.199  -0.637  0.00  0.00    -0.214 NA
ATOM      4  H   UNN dAMED       0.598   0.663  -1.175  0.00  0.00     0.147 HD
ATOM      5  N   UNN dAMED       1.513  -0.161   0.433  0.00  0.00    -0.163 NA
ATOM      6  C   UNN dAMED       0.886  -0.749   1.529  0.00  0.00     0.251 C 
ATOM      7  O   UNN dAMED       1.368  -1.067   2.602  0.00  0.00    -0.272 OA
ATOM      8  C   UNN dAMED       2.678  -0.911   0.112  0.00  0.00     0.085 C 
ATOM      9  C   UNN dAMED       3.396  -1.733   1.175  0.00  0.00     0.053 C 
ATOM     10  C   UNN dAMED       2.903  -1.412  -1.310  0.00  0.00     0.053 C 
ATOM     11  C   UNN dAMED       4.716  -2.368   0.722  0.00  0.00     0.252 C 
ATOM     12  C   UNN dAMED       4.261  -2.077  -1.560  0.00  0.00     0.252 C 
ATOM     13  N   UNN dAMED       4.766  -3.033  -0.575  0.00  0.00     0.139 N 
ATOM     14  C   UNN dAMED      -1.818  -0.465  -0.905  0.00  0.00     0.011 A 
ATOM     15  C   UNN dAMED      -2.183  -1.507  -1.760  0.00  0.00     0.001 A 
ATOM     16  C   UNN dAMED      -3.348  -1.416  -2.518  0.00  0.00     0.000 A 
ATOM     17  C   UNN dAMED      -4.151  -0.282  -2.426  0.00  0.00     0.000 A 
ATOM     18  C   UNN dAMED      -3.789   0.762  -1.577  0.00  0.00     0.000 A 
ATOM     19  C   UNN dAMED      -2.624   0.671  -0.819  0.00  0.00     0.001 A 
ATOM     20  C   UNN dAMED       6.067  -3.510  -1.007  0.00  0.00     0.285 C 
ENDROOT
BRANCH   2  21
ATOM     21  C   UNN dAMED      -1.683  -1.202   2.096  0.00  0.00     0.005 C 
BRANCH  21  22
ATOM     22  C   UNN dAMED      -2.340  -2.554   2.205  0.00  0.00     0.000 A 
ATOM     23  C   UNN dAMED      -3.542  -2.793   1.542  0.00  0.00     0.000 A 
ATOM     24  C   UNN dAMED      -4.198  -4.010   1.704  0.00  0.00     0.000 A 
ATOM     25  C   UNN dAMED      -3.657  -4.986   2.538  0.00  0.00     0.000 A 
ATOM     26  C   UNN dAMED      -2.462  -4.743   3.212  0.00  0.00     0.000 A 
ATOM     27  C   UNN dAMED      -1.805  -3.526   3.049  0.00  0.00     0.000 A 
ENDBRANCH  21  22
ENDBRANCH   2  21
TORSDOF 2
