REMARK  4 active torsions:
REMARK  status: ('A' for Active; 'I' for Inactive)
REMARK    1  A    between atoms: C_3  and  N_20 
REMARK    2  A    between atoms: C_8  and  N_20 
REMARK    3  A    between atoms: C_10  and  N_17 
REMARK    4  A    between atoms: C_11  and  S_14 
ROOT
ATOM      1  C   UNN dAMED       1.240   0.175   2.667  0.00  0.00     0.021 A 
ATOM      2  C   UNN dAMED       0.819   0.851   1.504  0.00  0.00     0.103 A 
ATOM      3  C   UNN dAMED       0.593   0.304   3.897  0.00  0.00     0.015 A 
ATOM      4  C   UNN dAMED      -0.326   1.658   1.675  0.00  0.00     0.145 A 
ATOM      5  C   UNN dAMED      -0.518   1.130   3.989  0.00  0.00     0.108 A 
ATOM      6  C   UNN dAMED      -1.009   1.806   2.884  0.00  0.00     0.038 A 
ENDROOT
BRANCH   2   7
ATOM      7  N   UNN dAMED       1.415   0.718   0.289  0.00  0.00    -0.244 NA
BRANCH   7   8
ATOM      8  C   UNN dAMED       2.637   0.146   0.264  0.00  0.00     0.081 A 
ATOM      9  C   UNN dAMED       2.783  -1.211  -0.058  0.00  0.00     0.019 A 
ATOM     10  C   UNN dAMED       4.039  -1.807  -0.150  0.00  0.00     0.002 A 
ATOM     11  C   UNN dAMED       5.183  -1.046   0.063  0.00  0.00     0.000 A 
ATOM     12  C   UNN dAMED       5.068   0.308   0.359  0.00  0.00     0.002 A 
ATOM     13  C   UNN dAMED       3.806   0.897   0.446  0.00  0.00     0.019 A 
ENDBRANCH   7   8
ENDBRANCH   2   7
BRANCH   4  14
ATOM     14  N   UNN dAMED      -0.884   2.377   0.555  0.00  0.00    -0.112 N 
ATOM     15  O   UNN dAMED      -1.749   1.793  -0.109  0.00  0.00    -0.532 OA
ATOM     16  O   UNN dAMED      -0.454   3.519   0.353  0.00  0.00    -0.532 OA
ENDBRANCH   4  14
BRANCH   5  17
ATOM     17  S   UNN dAMED      -1.396   1.254   5.511  0.00  0.00     0.302 S 
ATOM     18  N   UNN dAMED      -2.860   0.387   5.360  0.00  0.00    -0.043 N 
ATOM     19  O   UNN dAMED      -0.576   0.593   6.510  0.00  0.00    -0.197 OA
ATOM     20  O   UNN dAMED      -1.711   2.663   5.663  0.00  0.00    -0.197 OA
ENDBRANCH   5  17
TORSDOF 4
