REMARK  2 active torsions:
REMARK  status: ('A' for Active; 'I' for Inactive)
REMARK    1  A    between atoms: C_2  and  C_19 
REMARK    2  A    between atoms: C_14  and  C_17 
ROOT
ATOM      1  C   UNN dAMED      -5.348  -0.969   5.254  0.00  0.00    -0.001 A 
ATOM      2  C   UNN dAMED      -5.763  -2.290   5.126  0.00  0.00    -0.008 A 
ATOM      3  C   UNN dAMED      -4.714  -0.335   4.191  0.00  0.00    -0.005 A 
ATOM      4  C   UNN dAMED      -5.537  -2.974   3.936  0.00  0.00    -0.005 A 
ATOM      5  C   UNN dAMED      -4.476  -1.016   2.994  0.00  0.00    -0.027 A 
ATOM      6  C   UNN dAMED      -4.917  -2.334   2.867  0.00  0.00    -0.026 A 
ATOM      7  C   UNN dAMED      -3.903  -0.229   1.864  0.00  0.00     0.019 C 
ATOM      8  C   UNN dAMED      -2.488   0.235   2.141  0.00  0.00     0.004 C 
ATOM      9  C   UNN dAMED      -1.836   1.063   1.040  0.00  0.00     0.000 C 
ATOM     10  C   UNN dAMED      -4.646  -3.102   1.614  0.00  0.00     0.026 C 
ATOM     11  C   UNN dAMED      -3.751  -0.982   0.508  0.00  0.00     0.006 C 
ATOM     12  C   UNN dAMED      -2.015   0.536  -0.378  0.00  0.00     0.002 C 
ATOM     13  C   UNN dAMED      -4.510  -2.278   0.354  0.00  0.00     0.005 C 
ATOM     14  C   UNN dAMED      -3.306  -0.238  -0.828  0.00  0.00     0.037 C 
ATOM     15  C   UNN dAMED      -4.366   1.000  -0.320  0.00  0.00     0.002 C 
ATOM     16  C   UNN dAMED      -4.968   0.649   1.236  0.00  0.00     0.004 C 
ENDROOT
BRANCH   2  17
ATOM     17  C   UNN dAMED      -6.143  -3.059   6.360  0.00  0.00    -0.044 C 
ATOM     18  C   UNN dAMED      -7.610  -3.411   6.640  0.00  0.00     0.026 C 
ATOM     19  C   UNN dAMED      -5.106  -3.215   7.472  0.00  0.00     0.026 C 
ENDBRANCH   2  17
BRANCH  14  20
ATOM     20  C   UNN dAMED      -4.380   1.016  -0.313  0.00  0.00     0.338 C 
ATOM     21  N   UNN dAMED      -5.818   0.829  -0.384  0.00  0.00     0.618 N 
ENDBRANCH  14  20
TORSDOF 2
