REMARK  4 active torsions:
REMARK  status: ('A' for Active; 'I' for Inactive)
REMARK    1  A    between atoms: N_2  and  C_18 
REMARK    2  A    between atoms: C_14  and  C_20 
REMARK    3  A    between atoms: C_17  and  C_19 
REMARK    4  A    between atoms: C_18  and  C_19 
ROOT
ATOM      1  O   UNN dAMED      -1.492  -0.845  -1.848  0.00  0.00    -0.273 OA
ATOM      2  N   UNN dAMED      -1.421   0.564   0.029  0.00  0.00    -0.165 NA
ATOM      3  O   UNN dAMED      -1.971   1.069   2.253  0.00  0.00    -0.273 OA
ATOM      4  C   UNN dAMED      -1.998  -0.188  -0.959  0.00  0.00     0.243 C 
ATOM      5  C   UNN dAMED      -3.422  -0.191  -0.623  0.00  0.00     0.055 A 
ATOM      6  C   UNN dAMED      -4.475  -0.785  -1.284  0.00  0.00     0.004 A 
ATOM      7  C   UNN dAMED      -5.718  -0.719  -0.651  0.00  0.00     0.000 A 
ATOM      8  C   UNN dAMED      -3.571   0.415   0.623  0.00  0.00     0.055 A 
ATOM      9  C   UNN dAMED      -5.868  -0.106   0.610  0.00  0.00     0.000 A 
ATOM     10  C   UNN dAMED      -4.782   0.460   1.280  0.00  0.00     0.004 A 
ATOM     11  C   UNN dAMED      -2.241   0.794   1.100  0.00  0.00     0.243 C 
ENDROOT
BRANCH   2  12
ATOM     12  C   UNN dAMED      -0.141   0.093   0.413  0.00  0.00     0.094 C 
BRANCH  12  13
ATOM     13  C   UNN dAMED       0.890   1.088   0.953  0.00  0.00     0.064 C 
BRANCH  13  14
ATOM     14  C   UNN dAMED       2.226   0.595   1.428  0.00  0.00     0.060 A 
ATOM     15  N   UNN dAMED       2.520  -0.714   1.252  0.00  0.00    -0.249 NA
ATOM     16  C   UNN dAMED       3.748  -1.119   1.639  0.00  0.00     0.094 A 
ATOM     17  C   UNN dAMED       4.697  -0.280   2.194  0.00  0.00    -0.003 A 
ATOM     18  C   UNN dAMED       4.360   1.054   2.376  0.00  0.00    -0.002 A 
ATOM     19  C   UNN dAMED       3.105   1.509   1.989  0.00  0.00     0.015 A 
BRANCH  17  20
ATOM     20  C   UNN dAMED       6.029  -0.809   2.647  0.00  0.00     0.028 C 
ATOM     21  C   UNN dAMED       7.210  -0.879   1.671  0.00  0.00     0.005 C 
ENDBRANCH  17  20
ENDBRANCH  13  14
ENDBRANCH  12  13
ENDBRANCH   2  12
TORSDOF 4
