REMARK  4 active torsions:
REMARK  status: ('A' for Active; 'I' for Inactive)
REMARK    1  A    between atoms: N_2  and  C_9 
REMARK       I    between atoms: C_5  and  N_6 
REMARK    2  A    between atoms: C_9  and  C_10 
REMARK    3  A    between atoms: C_10  and  C_12 
REMARK    4  A    between atoms: C_12  and  O_13 
ROOT
ATOM      1  N   UNN dAMED      -2.211  -1.433  -0.508  0.00  0.00    -0.210 NA
ATOM      2  N   UNN dAMED      -0.520   0.004  -0.656  0.00  0.00    -0.193 NA
ATOM      3  C   UNN dAMED       0.035  -1.227  -0.859  0.00  0.00     0.074 C 
ATOM      4  C   UNN dAMED      -1.045  -2.091  -0.838  0.00  0.00     0.114 C 
ATOM      5  C   UNN dAMED      -1.823  -0.194  -0.345  0.00  0.00     0.255 C 
ATOM      6  N   UNN dAMED      -2.677   0.823   0.130  0.00  0.00    -0.083 N 
ATOM      7  O   UNN dAMED      -3.421   0.518   1.069  0.00  0.00    -0.530 OA
ATOM      8  O   UNN dAMED      -2.623   1.917  -0.441  0.00  0.00    -0.530 OA
ENDROOT
BRANCH   2   9
ATOM      9  C   UNN dAMED       0.146   0.642   0.427  0.00  0.00     0.120 C 
BRANCH   9  10
ATOM     10  C   UNN dAMED       1.408   1.472   0.150  0.00  0.00     0.198 C 
ATOM     11  O   UNN dAMED       1.286   2.827   0.007  0.00  0.00    -0.219 OA
BRANCH  10  12
ATOM     12  C   UNN dAMED       2.619   0.780  -0.491  0.00  0.00     0.177 C 
BRANCH  12  13
ATOM     13  O   UNN dAMED       3.095  -0.457  -0.002  0.00  0.00    -0.349 OA
ATOM     14  C   UNN dAMED       1.914  -0.936  -0.610  0.00  0.00     0.174 C 
ENDBRANCH  12  13
ENDBRANCH  10  12
ENDBRANCH   9  10
ENDBRANCH   2   9
TORSDOF 4
