REMARK  0 active torsions:
REMARK  status: ('A' for Active; 'I' for Inactive)
ROOT
ATOM      1  S   UNN dAMED       3.964  -0.296   0.025  0.00  0.00    -0.039 SA
ATOM      2  N   UNN dAMED       2.002   1.537  -0.278  0.00  0.00    -0.216 NA
ATOM      3  N   UNN dAMED       1.368  -0.704   0.113  0.00  0.00    -0.316 N 
ATOM      4  H   UNN dAMED       1.640  -1.663   0.277  0.00  0.00     0.170 HD
ATOM      5  N   UNN dAMED      -1.664   0.982  -0.158  0.00  0.00    -0.328 N 
ATOM      6  H   UNN dAMED      -2.226   1.810  -0.298  0.00  0.00     0.168 HD
ATOM      7  N   UNN dAMED      -1.039  -1.138   0.203  0.00  0.00    -0.317 N 
ATOM      8  H   UNN dAMED      -1.070  -2.132   0.374  0.00  0.00     0.170 HD
ATOM      9  S   UNN dAMED      -3.749  -0.762   0.154  0.00  0.00    -0.040 SA
ATOM     10  C   UNN dAMED       0.798   1.908  -0.334  0.00  0.00     0.121 A 
ATOM     11  C   UNN dAMED      -0.298   0.902  -0.153  0.00  0.00     0.110 A 
ATOM     12  C   UNN dAMED       0.067  -0.361   0.062  0.00  0.00     0.139 A 
ATOM     13  C   UNN dAMED      -2.170  -0.311   0.068  0.00  0.00     0.178 A 
ATOM     14  C   UNN dAMED       2.376   0.228  -0.055  0.00  0.00     0.200 A 
ENDROOT
TORSDOF 0
