REMARK  5 active torsions:
REMARK  status: ('A' for Active; 'I' for Inactive)
REMARK    1  A    between atoms: N_7  and  O_10 
REMARK    2  A    between atoms: O_10  and  C_20 
REMARK    3  A    between atoms: C_13  and  C_20 
REMARK    4  A    between atoms: C_14  and  O_15 
REMARK    5  A    between atoms: C_17  and  C_21 
ROOT
ATOM      1  O   UNN dAMED      -0.281  -0.469   0.423  0.00  0.00    -0.232 OA
ENDROOT
BRANCH   1   2
ATOM      2  N   UNN dAMED      -1.404  -0.511  -0.406  0.00  0.00    -0.135 NA
ATOM      3  C   UNN dAMED      -2.426  -0.080   0.255  0.00  0.00     0.096 C 
ATOM      4  C   UNN dAMED      -3.736  -0.003  -0.399  0.00  0.00     0.013 A 
ATOM      5  C   UNN dAMED      -2.312   0.115   1.747  0.00  0.00     0.106 C 
ATOM      6  C   UNN dAMED      -3.882  -0.256  -1.761  0.00  0.00     0.001 A 
ATOM      7  C   UNN dAMED      -4.820   0.375   0.386  0.00  0.00    -0.010 A 
ATOM      8  C   UNN dAMED      -5.142  -0.147  -2.343  0.00  0.00     0.000 A 
ATOM      9  C   UNN dAMED      -6.239   0.219  -1.563  0.00  0.00    -0.000 A 
ATOM     10  C   UNN dAMED      -6.079   0.471  -0.201  0.00  0.00    -0.003 A 
ATOM     11  C   UNN dAMED      -4.679   0.496   1.879  0.00  0.00     0.084 C 
ATOM     12  S   UNN dAMED      -3.283   1.353   2.612  0.00  0.00    -0.129 SA
ENDBRANCH   1   2
BRANCH   1  13
ATOM     13  C   UNN dAMED       0.722  -1.171  -0.270  0.00  0.00     0.205 C 
BRANCH  13  14
ATOM     14  C   UNN dAMED       1.281  -0.678  -1.588  0.00  0.00     0.033 A 
ATOM     15  C   UNN dAMED       2.419   0.120  -1.623  0.00  0.00     0.093 A 
ATOM     16  C   UNN dAMED       2.861   0.699  -2.809  0.00  0.00     0.024 A 
ATOM     17  C   UNN dAMED       2.148   0.481  -3.986  0.00  0.00     0.005 A 
ATOM     18  C   UNN dAMED       1.020  -0.332  -3.953  0.00  0.00     0.035 A 
ATOM     19  C   UNN dAMED       0.579  -0.914  -2.769  0.00  0.00     0.003 A 
BRANCH  15  20
ATOM     20  O   UNN dAMED       3.095   0.369  -0.467  0.00  0.00    -0.328 OA
ATOM     21  C   UNN dAMED       4.411   0.625  -0.860  0.00  0.00     0.181 C 
ENDBRANCH  15  20
BRANCH  18  22
ATOM     22  C   UNN dAMED       0.252  -0.489  -5.186  0.00  0.00     0.173 C 
ATOM     23  O   UNN dAMED      -0.443  -1.474  -5.391  0.00  0.00    -0.291 OA
ATOM     24  C   UNN dAMED       0.346   0.575  -6.243  0.00  0.00     0.077 C 
ENDBRANCH  18  22
ENDBRANCH  13  14
ENDBRANCH   1  13
TORSDOF 5
