REMARK  2 active torsions:
REMARK  status: ('A' for Active; 'I' for Inactive)
REMARK    1  A    between atoms: C_10  and  C_18 
REMARK    2  A    between atoms: C_12  and  C_15 
ROOT
ATOM      1  C   UNN dAMED      -1.726  -2.231   0.046  0.00  0.00     0.000 A 
ATOM      2  C   UNN dAMED      -3.023  -2.506  -0.374  0.00  0.00     0.000 A 
ATOM      3  C   UNN dAMED      -1.336  -0.915   0.299  0.00  0.00     0.006 A 
ATOM      4  C   UNN dAMED      -3.937  -1.469  -0.528  0.00  0.00     0.000 A 
ATOM      5  C   UNN dAMED      -2.249   0.137   0.152  0.00  0.00     0.064 A 
ATOM      6  C   UNN dAMED      -3.551  -0.157  -0.263  0.00  0.00     0.006 A 
ENDROOT
BRANCH   3   7
ATOM      7  C   UNN dAMED       0.047  -0.651   0.853  0.00  0.00     0.011 C 
ATOM      8  C   UNN dAMED       1.163  -0.483   0.131  0.00  0.00     0.087 A 
ATOM      9  S   UNN dAMED       1.228  -0.133  -1.562  0.00  0.00    -0.054 SA
ATOM     10  C   UNN dAMED       2.427  -0.095   0.785  0.00  0.00     0.265 A 
ATOM     11  C   UNN dAMED       2.849   0.523  -1.452  0.00  0.00     0.146 A 
ATOM     12  S   UNN dAMED       3.720   1.187  -2.699  0.00  0.00    -0.052 SA
ATOM     13  N   UNN dAMED       3.290   0.421  -0.156  0.00  0.00    -0.307 N 
ATOM     14  H   UNN dAMED       4.207   0.763   0.112  0.00  0.00     0.170 HD
ATOM     15  O   UNN dAMED       2.610  -0.193   1.989  0.00  0.00    -0.267 OA
ENDBRANCH   3   7
BRANCH   5  16
ATOM     16  C   UNN dAMED      -1.854   1.554   0.431  0.00  0.00     0.211 C 
ATOM     17  O   UNN dAMED      -0.844   1.740   1.177  0.00  0.00    -0.644 OA
ATOM     18  O   UNN dAMED      -2.565   2.463  -0.099  0.00  0.00    -0.644 OA
ENDBRANCH   5  16
TORSDOF 2
