REMARK  0 active torsions:
REMARK  status: ('A' for Active; 'I' for Inactive)
ROOT
ATOM      1  F   UNN dAMED      -6.442  -0.900   0.499  0.00  0.00    -0.204 F 
ATOM      2  C   UNN dAMED      -5.112  -0.771   0.399  0.00  0.00     0.140 A 
ATOM      3  C   UNN dAMED      -4.510  -0.849  -0.852  0.00  0.00     0.030 A 
ATOM      4  C   UNN dAMED      -4.355  -0.559   1.546  0.00  0.00     0.030 A 
ATOM      5  C   UNN dAMED      -3.126  -0.716  -0.952  0.00  0.00     0.004 A 
ATOM      6  C   UNN dAMED      -2.973  -0.423   1.435  0.00  0.00     0.004 A 
ATOM      7  N   UNN dAMED      -0.445   0.879  -0.248  0.00  0.00    -0.246 NA
ATOM      8  C   UNN dAMED      -2.341  -0.503   0.187  0.00  0.00     0.018 A 
ATOM      9  C   UNN dAMED      -0.898  -0.359   0.074  0.00  0.00     0.081 A 
ATOM     10  C   UNN dAMED       0.896   1.061  -0.359  0.00  0.00     0.081 A 
ATOM     11  C   UNN dAMED       1.795   0.020  -0.141  0.00  0.00     0.020 A 
ATOM     12  C   UNN dAMED      -0.049  -1.439   0.288  0.00  0.00     0.020 A 
ATOM     13  C   UNN dAMED       1.328  -1.253   0.188  0.00  0.00     0.009 A 
ATOM     14  C   UNN dAMED       3.632  -2.374   0.088  0.00  0.00     0.007 A 
ATOM     15  C   UNN dAMED       2.286  -2.343   0.400  0.00  0.00     0.030 A 
ATOM     16  S   UNN dAMED       1.817  -3.828   1.141  0.00  0.00    -0.086 SA
ATOM     17  C   UNN dAMED       3.386  -4.455   1.013  0.00  0.00     0.035 A 
ATOM     18  C   UNN dAMED       4.270  -3.584   0.442  0.00  0.00     0.007 A 
ATOM     19  C   UNN dAMED       1.353   2.409  -0.719  0.00  0.00     0.018 A 
ATOM     20  C   UNN dAMED       0.446   3.464  -0.880  0.00  0.00     0.002 A 
ATOM     21  C   UNN dAMED       0.873   4.749  -1.218  0.00  0.00     0.000 A 
ATOM     22  C   UNN dAMED       2.227   5.003  -1.402  0.00  0.00     0.000 A 
ATOM     23  C   UNN dAMED       3.150   3.974  -1.248  0.00  0.00     0.000 A 
ATOM     24  C   UNN dAMED       2.712   2.693  -0.912  0.00  0.00     0.002 A 
ENDROOT
TORSDOF 0
