REMARK  2 active torsions:
REMARK  status: ('A' for Active; 'I' for Inactive)
REMARK    1  A    between atoms: C_5  and  C_9 
REMARK    2  A    between atoms: N_10  and  N_11 
ROOT
ATOM      1 CL   UNN dAMED      -1.268   2.727   0.684  0.00  0.00    -0.082 Cl
ATOM      2 CL   UNN dAMED      -0.077  -2.343  -0.667  0.00  0.00    -0.082 Cl
ATOM      3  C   UNN dAMED      -1.763   1.169   0.162  0.00  0.00     0.060 A 
ATOM      4  C   UNN dAMED      -3.112   0.921  -0.071  0.00  0.00     0.011 A 
ATOM      5  C   UNN dAMED      -0.815   0.165  -0.014  0.00  0.00     0.042 A 
ATOM      6  C   UNN dAMED      -1.231  -1.094  -0.441  0.00  0.00     0.060 A 
ATOM      7  C   UNN dAMED      -3.519  -0.344  -0.490  0.00  0.00     0.002 A 
ATOM      8  C   UNN dAMED      -2.578  -1.354  -0.677  0.00  0.00     0.011 A 
ENDROOT
BRANCH   5   9
ATOM      9  C   UNN dAMED       0.646   0.441   0.235  0.00  0.00     0.124 C 
ATOM     10  N   UNN dAMED       1.154   0.266   1.370  0.00  0.00    -0.144 NA
BRANCH  10  11
ATOM     11  N   UNN dAMED       2.446   0.539   1.570  0.00  0.00    -0.112 NA
ATOM     12  C   UNN dAMED       2.922   1.116   0.479  0.00  0.00     0.275 C 
ATOM     13  N   UNN dAMED       2.033   1.722  -0.452  0.00  0.00    -0.057 NA
ATOM     14  N   UNN dAMED       4.172   1.537   0.571  0.00  0.00    -0.109 N 
ENDBRANCH  10  11
ENDBRANCH   5   9
TORSDOF 2
