REMARK  0 active torsions:
REMARK  status: ('A' for Active; 'I' for Inactive)
ROOT
ATOM      1  O   UNN dAMED       3.045  -0.326  -4.037  0.00  0.00    -0.246 OA
ATOM      2  N   UNN dAMED       1.954  -2.086  -2.965  0.00  0.00    -0.246 N 
ATOM      3  N   UNN dAMED       0.976   0.031  -3.055  0.00  0.00    -0.263 N 
ATOM      4  O   UNN dAMED       1.257  -3.739  -1.481  0.00  0.00    -0.266 OA
ATOM      5  N   UNN dAMED      -0.848  -1.683  -0.656  0.00  0.00    -0.199 NA
ATOM      6  N   UNN dAMED      -0.944   0.346  -1.557  0.00  0.00    -0.204 NA
ATOM      7  N   UNN dAMED      -2.622  -0.326   0.060  0.00  0.00    -0.223 NA
ATOM      8  O   UNN dAMED      -5.643  -0.906   1.136  0.00  0.00    -0.351 OA
ATOM      9  C   UNN dAMED       1.122  -2.628  -1.979  0.00  0.00     0.278 C 
ATOM     10  C   UNN dAMED       0.141  -1.654  -1.588  0.00  0.00     0.134 A 
ATOM     11  C   UNN dAMED       0.077  -0.378  -2.100  0.00  0.00     0.165 A 
ATOM     12  C   UNN dAMED      -3.180  -1.458   0.811  0.00  0.00     0.111 C 
ATOM     13  C   UNN dAMED      -4.407  -1.251   1.706  0.00  0.00     0.160 C 
ATOM     14  C   UNN dAMED      -1.531  -0.495  -0.720  0.00  0.00     0.168 A 
ATOM     15  C   UNN dAMED      -3.933  -0.058  -0.548  0.00  0.00     0.111 C 
ATOM     16  C   UNN dAMED      -5.163   0.149   0.343  0.00  0.00     0.160 C 
ATOM     17  C   UNN dAMED       2.069  -0.755  -3.424  0.00  0.00     0.335 C 
ATOM     18  C   UNN dAMED       3.177  -2.798  -3.081  0.00  0.00     0.138 C 
ATOM     19  C   UNN dAMED       1.282   1.415  -2.985  0.00  0.00     0.137 C 
ATOM     20  C   UNN dAMED      -1.743  -2.742  -0.971  0.00  0.00     0.102 C 
ENDROOT
TORSDOF 0
