REMARK  0 active torsions:
REMARK  status: ('A' for Active; 'I' for Inactive)
ROOT
ATOM      1  O   UNN dAMED      -0.076  -2.982  -1.000  0.00  0.00    -0.218 OA
ATOM      2  S   UNN dAMED      -0.031  -1.908  -0.030  0.00  0.00     0.202 S 
ATOM      3  O   UNN dAMED       0.009   2.839  -0.459  0.00  0.00    -0.287 OA
ATOM      4  O   UNN dAMED      -0.001  -2.147   1.397  0.00  0.00    -0.218 OA
ATOM      5  C   UNN dAMED      -0.013   1.640  -0.681  0.00  0.00     0.188 C 
ATOM      6  C   UNN dAMED       1.023   0.741  -0.012  0.00  0.00     0.023 C 
ATOM      7  C   UNN dAMED      -2.333   1.344   0.542  0.00  0.00     0.026 C 
ATOM      8  C   UNN dAMED      -0.998   0.757   0.078  0.00  0.00     0.023 C 
ATOM      9  C   UNN dAMED      -2.887   0.517   1.706  0.00  0.00     0.005 C 
ATOM     10  C   UNN dAMED      -3.326   1.318  -0.624  0.00  0.00     0.005 C 
ATOM     11  C   UNN dAMED       2.401   1.306   0.336  0.00  0.00     0.026 C 
ATOM     12  C   UNN dAMED       3.047   0.431   1.419  0.00  0.00     0.005 C 
ATOM     13  C   UNN dAMED       3.288   1.314  -0.908  0.00  0.00     0.005 C 
ATOM     14  C   UNN dAMED      -3.131  -0.906   1.211  0.00  0.00     0.005 C 
ATOM     15  C   UNN dAMED      -1.247  -0.662  -0.417  0.00  0.00     0.064 C 
ATOM     16  C   UNN dAMED       1.202  -0.698  -0.483  0.00  0.00     0.064 C 
ATOM     17  C   UNN dAMED       3.195  -0.834   1.018  0.00  0.00     0.005 C 
ATOM     18  C   UNN dAMED      -3.555   0.074  -1.051  0.00  0.00     0.005 C 
ATOM     19  C   UNN dAMED       3.481  -0.132  -1.361  0.00  0.00     0.005 C 
ATOM     20  C   UNN dAMED      -2.741  -0.966  -0.266  0.00  0.00     0.033 C 
ATOM     21  C   UNN dAMED       2.692  -1.044  -0.416  0.00  0.00     0.033 C 
ENDROOT
TORSDOF 0
