REMARK  4 active torsions:
REMARK  status: ('A' for Active; 'I' for Inactive)
REMARK    1  A    between atoms: C_4  and  AS_17 
REMARK    2  A    between atoms: C_5  and  N_19 
REMARK    3  A    between atoms: C_10  and  AS_17 
REMARK    4  A    between atoms: C_12  and  N_14 
REMARK       I    between atoms: N_19  and  C_20 
ROOT
ATOM      1  O   UNN dAMED      -0.131  -2.154  -1.933  0.00  0.00     0.000 OA
ATOM      2 AS   UNN dAMED      -0.411  -0.991  -0.886  0.00  0.00     0.000 As
ATOM      3  O   UNN dAMED      -1.328  -1.645   0.466  0.00  0.00     0.000 OA
ENDROOT
BRANCH   2   4
ATOM      4  C   UNN dAMED       1.277  -0.315  -0.267  0.00  0.00     0.000 A 
ATOM      5  C   UNN dAMED       2.113   0.548  -0.955  0.00  0.00     0.002 A 
ATOM      6  C   UNN dAMED       3.470   0.605  -0.632  0.00  0.00     0.019 A 
ATOM      7  C   UNN dAMED       4.026  -0.211   0.364  0.00  0.00     0.084 A 
ATOM      8  C   UNN dAMED       3.156  -1.054   1.068  0.00  0.00     0.019 A 
ATOM      9  C   UNN dAMED       1.800  -1.125   0.751  0.00  0.00     0.002 A 
BRANCH   7  10
ATOM     10  N   UNN dAMED       5.336  -0.130   0.673  0.00  0.00    -0.212 NA
ATOM     11  C   UNN dAMED       6.007  -1.140   0.124  0.00  0.00     0.256 C 
ATOM     12  O   UNN dAMED       7.194  -1.147  -0.179  0.00  0.00    -0.270 OA
ATOM     13  C   UNN dAMED       5.242  -2.418  -0.087  0.00  0.00     0.100 C 
ENDBRANCH   7  10
ENDBRANCH   2   4
BRANCH   2  14
ATOM     14  C   UNN dAMED      -1.459   0.393  -1.707  0.00  0.00     0.000 A 
ATOM     15  C   UNN dAMED      -2.446  -0.093  -2.580  0.00  0.00     0.002 A 
ATOM     16  C   UNN dAMED      -3.510   0.720  -2.955  0.00  0.00     0.024 A 
ATOM     17  C   UNN dAMED      -3.565   2.004  -2.425  0.00  0.00     0.127 A 
ATOM     18  C   UNN dAMED      -2.604   2.511  -1.556  0.00  0.00     0.024 A 
ATOM     19  C   UNN dAMED      -1.543   1.687  -1.197  0.00  0.00     0.002 A 
BRANCH  17  20
ATOM     20  N   UNN dAMED      -4.690   2.829  -2.754  0.00  0.00    -0.114 N 
ATOM     21  O   UNN dAMED      -5.748   2.599  -2.155  0.00  0.00    -0.532 OA
ATOM     22  O   UNN dAMED      -4.509   3.706  -3.608  0.00  0.00    -0.532 OA
ENDBRANCH  17  20
ENDBRANCH   2  14
TORSDOF 4
