REMARK  2 active torsions:
REMARK  status: ('A' for Active; 'I' for Inactive)
REMARK    1  A    between atoms: N_16  and  C_19 
REMARK    2  A    between atoms: C_19  and  C_22 
ROOT
ATOM      1  C   UNN dAMED       1.360  -2.158  -0.265  0.00  0.00    -0.022 A 
ATOM      2  C   UNN dAMED       1.679  -0.824  -0.358  0.00  0.00     0.007 A 
ATOM      3  C   UNN dAMED       2.998  -0.362  -0.457  0.00  0.00     0.135 A 
ATOM      4  C   UNN dAMED       0.083  -2.448   0.490  0.00  0.00     0.062 C 
ATOM      5  C   UNN dAMED      -0.835  -1.238   0.833  0.00  0.00     0.252 C 
ATOM      6  C   UNN dAMED      -0.117   0.089   1.152  0.00  0.00     0.166 C 
ATOM      7  C   UNN dAMED       0.741   0.298  -0.105  0.00  0.00     0.093 C 
ATOM      8  C   UNN dAMED       1.759   1.405   0.034  0.00  0.00     0.118 C 
ATOM      9  O   UNN dAMED       3.090   1.022  -0.291  0.00  0.00    -0.305 OA
ATOM     10  C   UNN dAMED      -0.831   1.434   1.280  0.00  0.00     0.041 C 
ATOM     11  C   UNN dAMED      -0.162   2.634   0.575  0.00  0.00     0.074 C 
ATOM     12  C   UNN dAMED       1.359   2.787   0.545  0.00  0.00     0.192 C 
ATOM     13  C   UNN dAMED       2.405  -3.060  -0.353  0.00  0.00    -0.001 A 
ATOM     14  C   UNN dAMED       3.724  -2.587  -0.525  0.00  0.00     0.044 A 
ATOM     15  C   UNN dAMED       4.097  -1.220  -0.564  0.00  0.00     0.218 A 
ATOM     16  N   UNN dAMED      -2.153  -1.147   0.141  0.00  0.00     0.142 N 
ATOM     17  C   UNN dAMED      -1.362  -0.786  -1.189  0.00  0.00     0.252 C 
ATOM     18  C   UNN dAMED      -0.295   0.325  -1.219  0.00  0.00     0.048 C 
ATOM     19  O   UNN dAMED       1.857   3.785   0.045  0.00  0.00    -0.290 OA
ATOM     20  O   UNN dAMED       5.306  -0.838  -0.665  0.00  0.00    -0.284 OA
ATOM     21  O   UNN dAMED       0.611  -0.057   2.235  0.00  0.00    -0.223 OA
ENDROOT
BRANCH  16  22
ATOM     22  C   UNN dAMED      -1.414  -0.705  -1.166  0.00  0.00     0.279 C 
BRANCH  22  23
ATOM     23  C   UNN dAMED      -1.999   0.395  -2.011  0.00  0.00     0.038 A 
ATOM     24  C   UNN dAMED      -3.220   0.302  -2.631  0.00  0.00     0.120 A 
ATOM     25  O   UNN dAMED      -3.696   1.553  -2.892  0.00  0.00    -0.303 OA
ATOM     26  C   UNN dAMED      -2.792   2.437  -2.383  0.00  0.00     0.122 A 
ATOM     27  C   UNN dAMED      -1.741   1.765  -1.800  0.00  0.00     0.026 A 
ENDBRANCH  22  23
ENDBRANCH  16  22
TORSDOF 2
