REMARK  4 active torsions:
REMARK  status: ('A' for Active; 'I' for Inactive)
REMARK    1  A    between atoms: C_5  and  S_10 
REMARK    2  A    between atoms: C_7  and  C_12 
REMARK    3  A    between atoms: C_12  and  O_14 
REMARK    4  A    between atoms: O_14  and  C_15 
ROOT
ATOM      1  N   UNN dAMED      -2.489  -1.142   0.850  0.00  0.00    -0.199 NA
ATOM      2  N   UNN dAMED      -0.114  -1.261   0.719  0.00  0.00    -0.205 NA
ATOM      3  N   UNN dAMED      -1.324   0.527  -0.165  0.00  0.00    -0.189 N 
ATOM      4  N   UNN dAMED      -1.219   1.700  -0.815  0.00  0.00    -0.160 NA
ATOM      5  C   UNN dAMED      -2.543  -0.008   0.230  0.00  0.00     0.194 A 
ATOM      6  C   UNN dAMED       0.096   1.828  -1.007  0.00  0.00     0.129 A 
ATOM      7  C   UNN dAMED       0.848   0.749  -0.482  0.00  0.00     0.120 A 
ATOM      8  C   UNN dAMED      -0.111  -0.078   0.064  0.00  0.00     0.174 A 
ATOM      9  C   UNN dAMED      -1.210  -1.764   1.092  0.00  0.00     0.202 A 
ENDROOT
BRANCH   7  10
ATOM     10  C   UNN dAMED       2.283   0.574  -0.507  0.00  0.00     0.300 C 
ATOM     11  O   UNN dAMED       3.072   1.473  -0.772  0.00  0.00    -0.259 OA
BRANCH  10  12
ATOM     12  O   UNN dAMED       2.682  -0.694  -0.225  0.00  0.00    -0.298 OA
BRANCH  12  13
ATOM     13  C   UNN dAMED       1.505  -1.380   0.074  0.00  0.00     0.152 C 
ATOM     14  C   UNN dAMED       0.313  -1.293  -0.883  0.00  0.00     0.035 C 
ENDBRANCH  12  13
ENDBRANCH  10  12
ENDBRANCH   7  10
BRANCH   5  15
ATOM     15  S   UNN dAMED      -4.064   0.780  -0.077  0.00  0.00    -0.074 SA
ATOM     16  C   UNN dAMED      -3.440   2.437   0.183  0.00  0.00     0.077 C 
ENDBRANCH   5  15
TORSDOF 4
