REMARK  2 active torsions:
REMARK  status: ('A' for Active; 'I' for Inactive)
REMARK    1  A    between atoms: C_9  and  N_17 
REMARK    2  A    between atoms: C_12  and  N_17 
ROOT
ATOM      1  N   UNN dAMED      -1.064   2.322  -0.203  0.00  0.00    -0.207 NA
ATOM      2  N   UNN dAMED      -3.185   1.173  -0.508  0.00  0.00    -0.205 NA
ATOM      3  N   UNN dAMED      -2.975  -1.206  -0.129  0.00  0.00    -0.260 N 
ATOM      4  H   UNN dAMED      -3.923  -1.524  -0.288  0.00  0.00     0.191 HD
ATOM      5  N   UNN dAMED      -2.042  -2.120   0.188  0.00  0.00    -0.170 NA
ATOM      6  C   UNN dAMED      -2.492   0.068  -0.199  0.00  0.00     0.163 A 
ATOM      7  C   UNN dAMED      -1.145  -0.016   0.106  0.00  0.00     0.090 A 
ATOM      8  C   UNN dAMED      -0.394   1.168   0.107  0.00  0.00     0.150 A 
ATOM      9  C   UNN dAMED      -0.931  -1.391   0.335  0.00  0.00     0.126 A 
ATOM     10  C   UNN dAMED      -2.385   2.256  -0.491  0.00  0.00     0.202 A 
ENDROOT
BRANCH   8  11
ATOM     11  N   UNN dAMED       0.983   1.147   0.425  0.00  0.00    -0.310 N 
ATOM     12  C   UNN dAMED       1.539  -0.024   1.085  0.00  0.00     0.132 C 
BRANCH  11  13
ATOM     13  C   UNN dAMED       1.815   2.262   0.221  0.00  0.00     0.081 A 
ATOM     14  C   UNN dAMED       2.760   2.271  -0.799  0.00  0.00     0.020 A 
ATOM     15  C   UNN dAMED       3.617   3.355  -0.943  0.00  0.00     0.022 A 
ATOM     16  C   UNN dAMED       3.490   4.399  -0.041  0.00  0.00     0.099 A 
ATOM     17  N   UNN dAMED       2.590   4.429   0.966  0.00  0.00    -0.241 NA
ATOM     18  C   UNN dAMED       1.783   3.354   1.077  0.00  0.00     0.116 A 
ENDBRANCH  11  13
ENDBRANCH   8  11
TORSDOF 2
