REMARK  2 active torsions:
REMARK  status: ('A' for Active; 'I' for Inactive)
REMARK    1  A    between atoms: C_4  and  N_8 
REMARK    2  A    between atoms: N_8  and  C_9 
ROOT
ATOM      1 CL   UNN dAMED      -3.079  -1.838  -0.033  0.00  0.00    -0.082 Cl
ATOM      2  C   UNN dAMED      -0.179   1.574  -0.043  0.00  0.00     0.019 A 
ATOM      3  C   UNN dAMED      -1.547   1.831   0.014  0.00  0.00     0.002 A 
ATOM      4  C   UNN dAMED       0.328   0.264  -0.044  0.00  0.00     0.084 A 
ATOM      5  C   UNN dAMED      -0.599  -0.786  -0.048  0.00  0.00     0.031 A 
ATOM      6  C   UNN dAMED      -2.447   0.774   0.035  0.00  0.00     0.011 A 
ATOM      7  C   UNN dAMED      -1.969  -0.530  -0.011  0.00  0.00     0.059 A 
ENDROOT
BRANCH   4   8
ATOM      8  N   UNN dAMED       1.653   0.012  -0.061  0.00  0.00    -0.222 NA
BRANCH   8   9
ATOM      9  C   UNN dAMED       2.207   0.434   1.073  0.00  0.00     0.207 C 
ATOM     10  S   UNN dAMED       3.650  -0.133   1.699  0.00  0.00    -0.042 SA
ATOM     11  N   UNN dAMED       1.558   1.502   1.759  0.00  0.00    -0.068 NA
ENDBRANCH   8   9
ENDBRANCH   4   8
TORSDOF 2
