REMARK  3 active torsions:
REMARK  status: ('A' for Active; 'I' for Inactive)
REMARK    1  A    between atoms: C_9  and  C_21 
REMARK    2  A    between atoms: C_16  and  C_21 
REMARK    3  A    between atoms: C_21  and  C_23 
ROOT
ATOM      1  C   UNN dAMED      -0.141  -1.033   0.776  0.00  0.00     0.117 C 
ATOM      2  C   UNN dAMED       0.610   0.275   1.063  0.00  0.00     0.020 C 
ENDROOT
BRANCH   1   3
ATOM      3  C   UNN dAMED      -0.569  -1.582   2.103  0.00  0.00    -0.002 A 
ATOM      4  C   UNN dAMED       0.114  -1.370   3.350  0.00  0.00     0.008 A 
ATOM      5  C   UNN dAMED      -0.650  -1.961   4.362  0.00  0.00     0.040 A 
ATOM      6  C   UNN dAMED       1.289  -0.683   3.709  0.00  0.00     0.001 A 
ATOM      7  N   UNN dAMED      -1.692  -2.581   3.738  0.00  0.00    -0.234 NA
ATOM      8  C   UNN dAMED      -0.308  -1.896   5.716  0.00  0.00     0.011 A 
ATOM      9  C   UNN dAMED      -1.697  -2.310   2.414  0.00  0.00     0.015 A 
ATOM     10  C   UNN dAMED      -2.922  -2.171   4.321  0.00  0.00     0.099 C 
ATOM     11  C   UNN dAMED      -2.932  -2.311   1.565  0.00  0.00     0.043 C 
ATOM     12  C   UNN dAMED       0.865  -1.209   6.038  0.00  0.00     0.001 A 
ATOM     13  C   UNN dAMED       1.654  -0.618   5.056  0.00  0.00     0.000 A 
ENDBRANCH   1   3
BRANCH   1  14
ATOM     14  C   UNN dAMED      -1.270  -0.685  -0.146  0.00  0.00    -0.002 A 
ATOM     15  C   UNN dAMED      -1.933   0.589  -0.206  0.00  0.00     0.008 A 
ATOM     16  C   UNN dAMED      -2.987   0.481  -1.120  0.00  0.00     0.040 A 
ATOM     17  C   UNN dAMED      -1.766   1.805   0.485  0.00  0.00     0.001 A 
ATOM     18  N   UNN dAMED      -2.890  -0.766  -1.664  0.00  0.00    -0.234 NA
ATOM     19  C   UNN dAMED      -3.891   1.516  -1.375  0.00  0.00     0.011 A 
ATOM     20  C   UNN dAMED      -1.933  -1.490  -1.045  0.00  0.00     0.015 A 
ATOM     21  C   UNN dAMED      -4.140  -1.436  -1.580  0.00  0.00     0.099 C 
ATOM     22  C   UNN dAMED      -1.926  -2.987  -0.975  0.00  0.00     0.043 C 
ATOM     23  C   UNN dAMED      -3.697   2.708  -0.672  0.00  0.00     0.001 A 
ATOM     24  C   UNN dAMED      -2.653   2.855   0.236  0.00  0.00     0.000 A 
ENDBRANCH   1  14
BRANCH   1  25
ATOM     25  C   UNN dAMED       0.858  -1.982   0.115  0.00  0.00     0.192 C 
ATOM     26  O   UNN dAMED       0.498  -3.183  -0.032  0.00  0.00    -0.647 OA
ATOM     27  O   UNN dAMED       1.951  -1.426  -0.198  0.00  0.00    -0.647 OA
ENDBRANCH   1  25
TORSDOF 3
