REMARK  1 active torsions:
REMARK  status: ('A' for Active; 'I' for Inactive)
REMARK    1  A    between atoms: C_1  and  C_5 
REMARK       I    between atoms: C_1  and  N_11 
ROOT
ATOM      1  C   UNN dAMED      -0.776  -0.138   0.086  0.00  0.00     0.058 A 
ATOM      2  C   UNN dAMED      -1.202   1.158   0.373  0.00  0.00     0.005 A 
ATOM      3  C   UNN dAMED      -2.566   1.434   0.402  0.00  0.00     0.000 A 
ATOM      4  C   UNN dAMED      -3.488   0.425   0.126  0.00  0.00     0.000 A 
ATOM      5  C   UNN dAMED      -3.051  -0.862  -0.186  0.00  0.00     0.000 A 
ATOM      6  C   UNN dAMED      -1.689  -1.150  -0.207  0.00  0.00     0.005 A 
ENDROOT
BRANCH   1   7
ATOM      7  C   UNN dAMED       0.660  -0.441   0.027  0.00  0.00     0.281 C 
ATOM      8  O   UNN dAMED       1.153  -0.563  -1.093  0.00  0.00    -0.265 OA
ATOM      9  N   UNN dAMED       1.231  -0.540   1.231  0.00  0.00    -0.183 NA
ATOM     10  C   UNN dAMED       2.484  -0.970   1.122  0.00  0.00     0.210 C 
ATOM     11  S   UNN dAMED       3.614  -0.897   2.355  0.00  0.00    -0.042 SA
ATOM     12  N   UNN dAMED       2.922  -1.428  -0.153  0.00  0.00    -0.068 NA
ENDBRANCH   1   7
TORSDOF 1
