REMARK  1 active torsions:
REMARK  status: ('A' for Active; 'I' for Inactive)
REMARK    1  A    between atoms: N_2  and  N_10 
ROOT
ATOM      1  S   UNN dAMED      -3.017  -0.256   0.487  0.00  0.00    -0.063 SA
ATOM      2  N   UNN dAMED       0.779  -0.253  -0.553  0.00  0.00    -0.134 NA
ATOM      3  N   UNN dAMED      -0.803   1.259   0.115  0.00  0.00    -0.358 N 
ATOM      4  H   UNN dAMED      -1.272   2.139   0.303  0.00  0.00     0.162 HD
ATOM      5  C   UNN dAMED       0.613   1.105  -0.023  0.00  0.00     0.131 C 
ATOM      6  C   UNN dAMED      -0.389  -1.015  -0.071  0.00  0.00     0.112 C 
ATOM      7  C   UNN dAMED      -1.423   0.037   0.177  0.00  0.00     0.102 C 
ATOM      8  C   UNN dAMED      -0.859  -1.948  -1.184  0.00  0.00     0.025 C 
ATOM      9  C   UNN dAMED      -0.030  -1.688   1.253  0.00  0.00     0.025 C 
ATOM     10  C   UNN dAMED       1.250   1.165   1.366  0.00  0.00     0.041 C 
ATOM     11  C   UNN dAMED       1.158   2.126  -1.020  0.00  0.00     0.041 C 
ENDROOT
BRANCH   2  12
ATOM     12  N   UNN dAMED       1.915  -0.778  -0.177  0.00  0.00    -0.037 NA
ATOM     13  O   UNN dAMED       2.149  -1.819  -0.803  0.00  0.00    -0.047 OA
ENDBRANCH   2  12
TORSDOF 1
