REMARK  3 active torsions:
REMARK  status: ('A' for Active; 'I' for Inactive)
REMARK    1  A    between atoms: N_1  and  S_16 
REMARK    2  A    between atoms: C_8  and  S_16 
REMARK    3  A    between atoms: C_10  and  S_19 
ROOT
ATOM      1  S   UNN dAMED       3.894  -0.804   1.070  0.00  0.00    -0.060 SA
ATOM      2  N   UNN dAMED       2.980   1.199  -0.265  0.00  0.00    -0.232 NA
ATOM      3  C   UNN dAMED       1.349  -1.951   0.660  0.00  0.00     0.009 A 
ATOM      4  C   UNN dAMED       2.272  -0.906   0.499  0.00  0.00     0.049 A 
ATOM      5  C   UNN dAMED       0.084  -1.799   0.094  0.00  0.00     0.013 A 
ATOM      6  C   UNN dAMED       1.959   0.265  -0.197  0.00  0.00     0.089 A 
ATOM      7  C   UNN dAMED      -0.237  -0.643  -0.604  0.00  0.00     0.100 A 
ATOM      8  C   UNN dAMED       0.674   0.399  -0.759  0.00  0.00     0.032 A 
ATOM      9  C   UNN dAMED       4.039   0.747   0.364  0.00  0.00     0.136 A 
ENDROOT
BRANCH   7  10
ATOM     10  S   UNN dAMED      -1.857  -0.512  -1.275  0.00  0.00     0.247 S 
ATOM     11  O   UNN dAMED      -2.756  -0.336  -0.152  0.00  0.00    -0.206 OA
ATOM     12  O   UNN dAMED      -2.011  -1.611  -2.209  0.00  0.00    -0.206 OA
BRANCH  10  13
ATOM     13  N   UNN dAMED      -1.790   0.950  -2.162  0.00  0.00    -0.177 NA
ATOM     14  C   UNN dAMED      -0.488   1.598  -2.364  0.00  0.00     0.088 C 
ATOM     15  C   UNN dAMED       0.169   2.307  -1.176  0.00  0.00     0.018 C 
ATOM     16  C   UNN dAMED      -0.738   3.299  -0.462  0.00  0.00     0.003 C 
ATOM     17  C   UNN dAMED      -2.194   2.858  -0.470  0.00  0.00     0.018 C 
ATOM     18  C   UNN dAMED      -2.613   2.087  -1.726  0.00  0.00     0.088 C 
ENDBRANCH  10  13
ENDBRANCH   7  10
BRANCH   9  19
ATOM     19  S   UNN dAMED       5.503   1.701   0.465  0.00  0.00    -0.087 SA
ATOM     20  C   UNN dAMED       6.238   0.725   1.774  0.00  0.00     0.076 C 
ENDBRANCH   9  19
TORSDOF 3
