REMARK  3 active torsions:
REMARK  status: ('A' for Active; 'I' for Inactive)
REMARK    1  A    between atoms: C_3  and  N_13 
REMARK    2  A    between atoms: C_11  and  C_17 
REMARK    3  A    between atoms: N_13  and  C_14 
REMARK       I    between atoms: N_16  and  C_17 
ROOT
ATOM      1  C   UNN dAMED       0.076   0.509   2.111  0.00  0.00     0.224 C 
ATOM      2  S   UNN dAMED      -1.053  -0.617   2.690  0.00  0.00    -0.037 SA
ATOM      3  N   UNN dAMED       0.876   0.244   1.064  0.00  0.00    -0.177 NA
ATOM      4  C   UNN dAMED       2.113  -0.133   1.428  0.00  0.00     0.304 C 
ATOM      5  O   UNN dAMED       2.466  -0.613   2.502  0.00  0.00    -0.263 OA
ENDROOT
BRANCH   1   6
ATOM      6  N   UNN dAMED       0.037   1.809   2.456  0.00  0.00    -0.217 NA
BRANCH   6   7
ATOM      7  C   UNN dAMED       0.988   2.173   3.349  0.00  0.00     0.087 A 
ATOM      8  C   UNN dAMED       0.922   1.832   4.700  0.00  0.00     0.019 A 
ATOM      9  C   UNN dAMED       1.922   2.223   5.581  0.00  0.00     0.005 A 
ATOM     10  C   UNN dAMED       2.992   2.987   5.112  0.00  0.00     0.042 A 
ATOM     11  C   UNN dAMED       3.119   3.399   3.778  0.00  0.00     0.197 A 
ATOM     12  C   UNN dAMED       2.077   2.964   2.941  0.00  0.00     0.061 A 
ATOM     13  O   UNN dAMED       4.092   4.105   3.359  0.00  0.00    -0.286 OA
ENDBRANCH   6   7
ENDBRANCH   1   6
BRANCH   4  14
ATOM     14  C   UNN dAMED       3.052   0.091   0.351  0.00  0.00     0.158 A 
ATOM     15  O   UNN dAMED       4.375  -0.113   0.630  0.00  0.00    -0.300 OA
ATOM     16  C   UNN dAMED       5.079   0.148  -0.506  0.00  0.00     0.123 A 
ATOM     17  C   UNN dAMED       4.222   0.515  -1.517  0.00  0.00     0.029 A 
ATOM     18  C   UNN dAMED       2.919   0.473  -0.970  0.00  0.00     0.032 A 
ENDBRANCH   4  14
TORSDOF 3
