REMARK  5 active torsions:
REMARK  status: ('A' for Active; 'I' for Inactive)
REMARK    1  A    between atoms: C_18  and  O_20 
REMARK    2  A    between atoms: C_19  and  C_22 
REMARK    3  A    between atoms: N_21  and  C_22 
REMARK    4  A    between atoms: N_21  and  C_24 
REMARK    5  A    between atoms: N_21  and  C_26 
ROOT
ATOM      1 CL   UNN dAMED      -7.514  -0.300  -0.657  0.00  0.00    -0.082 Cl
ATOM      2  C   UNN dAMED      -5.121   0.686  -1.380  0.00  0.00     0.012 A 
ATOM      3  C   UNN dAMED      -5.808  -0.192  -0.546  0.00  0.00     0.059 A 
ATOM      4  C   UNN dAMED      -3.743   0.792  -1.258  0.00  0.00     0.004 A 
ATOM      5  C   UNN dAMED      -5.131  -0.967   0.399  0.00  0.00     0.031 A 
ATOM      6  C   UNN dAMED      -3.083   0.021  -0.288  0.00  0.00     0.033 A 
ATOM      7  C   UNN dAMED      -3.758  -0.879   0.557  0.00  0.00     0.084 A 
ATOM      8  H   UNN dAMED      -0.938   1.484  -1.535  0.00  0.00     0.166 HD
ATOM      9  C   UNN dAMED      -1.703   0.121  -0.095  0.00  0.00     0.060 A 
ATOM     10  N   UNN dAMED      -3.124  -1.612   1.492  0.00  0.00    -0.244 NA
ATOM     11  N   UNN dAMED      -0.753   0.873  -0.753  0.00  0.00    -0.353 N 
ATOM     12  C   UNN dAMED      -1.042  -0.610   0.888  0.00  0.00     0.036 A 
ATOM     13  C   UNN dAMED      -1.786  -1.490   1.680  0.00  0.00     0.100 A 
ATOM     14  C   UNN dAMED       0.343  -0.275   0.816  0.00  0.00     0.020 A 
ATOM     15  C   UNN dAMED       0.500   0.605  -0.255  0.00  0.00     0.057 A 
ATOM     16  C   UNN dAMED       1.744   1.056  -0.701  0.00  0.00     0.017 A 
ATOM     17  C   UNN dAMED       1.489  -0.694   1.522  0.00  0.00     0.025 A 
ATOM     18  C   UNN dAMED       2.734  -0.260   1.061  0.00  0.00     0.092 A 
ATOM     19  C   UNN dAMED       2.869   0.580  -0.038  0.00  0.00     0.035 A 
ENDROOT
BRANCH  19  20
ATOM     20  C   UNN dAMED       4.170   0.684  -0.755  0.00  0.00     0.279 C 
BRANCH  20  21
ATOM     21  N   UNN dAMED       5.102   2.089  -0.620  0.00  0.00     0.141 N 
BRANCH  21  22
ATOM     22  C   UNN dAMED       4.159   0.676  -0.757  0.00  0.00     0.251 C 
ATOM     23  C   UNN dAMED       4.493  -0.536   0.102  0.00  0.00     0.037 C 
ENDBRANCH  21  22
BRANCH  21  24
ATOM     24  C   UNN dAMED       4.162   0.678  -0.757  0.00  0.00     0.251 C 
ATOM     25  C   UNN dAMED       3.587  -0.049   0.465  0.00  0.00     0.037 C 
ENDBRANCH  21  24
ENDBRANCH  20  21
ENDBRANCH  19  20
BRANCH  18  26
ATOM     26  O   UNN dAMED       3.855  -0.714   1.695  0.00  0.00    -0.328 OA
ATOM     27  C   UNN dAMED       4.835  -0.765   0.705  0.00  0.00     0.181 C 
ENDBRANCH  18  26
TORSDOF 5
