REMARK  3 active torsions:
REMARK  status: ('A' for Active; 'I' for Inactive)
REMARK    1  A    between atoms: C_1  and  N_11 
REMARK    2  A    between atoms: C_3  and  S_7 
REMARK    3  A    between atoms: S_7  and  N_10 
ROOT
ATOM      1  N   UNN dAMED      -1.325   1.022   1.119  0.00  0.00    -0.232 NA
ATOM      2  C   UNN dAMED      -1.554   0.847   2.259  0.00  0.00     0.163 C 
ATOM      3  S   UNN dAMED      -1.841   0.636   3.813  0.00  0.00    -0.055 SA
ENDROOT
BRANCH   1   4
ATOM      4  C   UNN dAMED      -1.406  -0.165   0.365  0.00  0.00     0.094 A 
ATOM      5  C   UNN dAMED      -0.296  -0.950   0.019  0.00  0.00     0.116 A 
ATOM      6  C   UNN dAMED      -0.453  -2.115  -0.736  0.00  0.00     0.014 A 
ATOM      7  C   UNN dAMED      -1.715  -2.506  -1.173  0.00  0.00     0.001 A 
ATOM      8  C   UNN dAMED      -2.823  -1.722  -0.873  0.00  0.00     0.002 A 
ATOM      9  C   UNN dAMED      -2.664  -0.561  -0.121  0.00  0.00     0.020 A 
BRANCH   5  10
ATOM     10  S   UNN dAMED       1.366  -0.572   0.501  0.00  0.00     0.248 S 
ATOM     11  O   UNN dAMED       1.949  -1.810   0.983  0.00  0.00    -0.206 OA
ATOM     12  O   UNN dAMED       1.378   0.621   1.321  0.00  0.00    -0.206 OA
BRANCH  10  13
ATOM     13  N   UNN dAMED       2.063  -0.186  -1.014  0.00  0.00    -0.174 NA
ATOM     14  C   UNN dAMED       3.462   0.466  -1.066  0.00  0.00     0.107 C 
ATOM     15  C   UNN dAMED       3.462   0.466  -1.066  0.00  0.00     0.107 C 
ENDBRANCH  10  13
ENDBRANCH   5  10
ENDBRANCH   1   4
TORSDOF 3
