REMARK  3 active torsions:
REMARK  status: ('A' for Active; 'I' for Inactive)
REMARK    1  A    between atoms: O_5  and  C_10 
REMARK    2  A    between atoms: O_5  and  C_11 
REMARK    3  A    between atoms: C_8  and  C_10 
ROOT
ATOM      1  C   UNN dAMED       2.927  -1.016  -2.123  0.00  0.00    -0.049 C 
ATOM      2  C   UNN dAMED       2.340   0.289  -1.874  0.00  0.00     0.180 C 
ATOM      3  C   UNN dAMED       2.868   1.495  -2.658  0.00  0.00     0.047 C 
ATOM      4  C   UNN dAMED       3.402  -2.094  -2.346  0.00  0.00    -0.012 C 
ENDROOT
BRANCH   2   5
ATOM      5  O   UNN dAMED       1.089   0.364  -1.271  0.00  0.00    -0.337 OA
BRANCH   5   6
ATOM      6  C   UNN dAMED       0.648  -0.576  -0.345  0.00  0.00     0.196 C 
BRANCH   6   7
ATOM      7  C   UNN dAMED      -0.812  -0.562   0.119  0.00  0.00     0.127 A 
ATOM      8  O   UNN dAMED      -1.804  -1.222  -0.613  0.00  0.00    -0.283 OA
ATOM      9  C   UNN dAMED      -2.916  -0.425  -0.453  0.00  0.00     0.220 A 
ATOM     10  S   UNN dAMED      -4.290  -0.789  -1.301  0.00  0.00    -0.033 SA
ATOM     11  N   UNN dAMED      -2.743   0.648   0.388  0.00  0.00    -0.323 N 
ATOM     12  H   UNN dAMED      -3.287   1.476   0.576  0.00  0.00     0.169 HD
ATOM     13  C   UNN dAMED      -1.384   0.677   0.730  0.00  0.00     0.098 A 
ENDBRANCH   6   7
ENDBRANCH   5   6
ENDBRANCH   2   5
TORSDOF 3
