REMARK  2 active torsions:
REMARK  status: ('A' for Active; 'I' for Inactive)
REMARK    1  A    between atoms: C_11  and  N_13 
REMARK    2  A    between atoms: C_18  and  N_20 
ROOT
ATOM      1  C   UNN dAMED      -3.793   2.776   0.019  0.00  0.00     0.002 A 
ATOM      2  C   UNN dAMED      -4.815   1.834   0.038  0.00  0.00     0.001 A 
ATOM      3  C   UNN dAMED      -2.467   2.356  -0.051  0.00  0.00     0.018 A 
ATOM      4  C   UNN dAMED      -4.505   0.479  -0.018  0.00  0.00     0.008 A 
ATOM      5  C   UNN dAMED      -2.142   0.995  -0.093  0.00  0.00     0.063 A 
ATOM      6  C   UNN dAMED      -3.176   0.051  -0.085  0.00  0.00     0.046 A 
ATOM      7  N   UNN dAMED      -0.799   0.612  -0.176  0.00  0.00    -0.351 N 
ATOM      8  S   UNN dAMED      -2.887  -1.703  -0.168  0.00  0.00    -0.063 SA
ATOM      9  H   UNN dAMED      -0.102   1.346  -0.120  0.00  0.00     0.166 HD
ATOM     10  C   UNN dAMED      -0.352  -0.693  -0.159  0.00  0.00     0.083 A 
ATOM     11  C   UNN dAMED      -1.141  -1.796  -0.136  0.00  0.00     0.156 A 
ATOM     12  C   UNN dAMED       1.120  -0.820  -0.161  0.00  0.00     0.019 A 
ATOM     13  C   UNN dAMED       1.827  -0.772   1.048  0.00  0.00     0.002 A 
ATOM     14  C   UNN dAMED       1.810  -0.977  -1.364  0.00  0.00     0.025 A 
ATOM     15  C   UNN dAMED       3.219  -0.893   1.063  0.00  0.00     0.002 A 
ATOM     16  C   UNN dAMED       3.194  -1.099  -1.313  0.00  0.00     0.127 A 
ATOM     17  C   UNN dAMED       3.918  -1.064  -0.127  0.00  0.00     0.024 A 
ENDROOT
BRANCH  11  18
ATOM     18  N   UNN dAMED      -0.652  -3.042  -0.141  0.00  0.00    -0.088 NA
ATOM     19  O   UNN dAMED      -0.466  -3.513   0.989  0.00  0.00    -0.060 OA
ENDBRANCH  11  18
BRANCH  16  20
ATOM     20  N   UNN dAMED       3.906  -1.294  -2.540  0.00  0.00    -0.114 N 
ATOM     21  O   UNN dAMED       4.312  -0.279  -3.119  0.00  0.00    -0.532 OA
ATOM     22  O   UNN dAMED       4.058  -2.462  -2.919  0.00  0.00    -0.532 OA
ENDBRANCH  16  20
TORSDOF 2
