REMARK  8 active torsions:
REMARK  status: ('A' for Active; 'I' for Inactive)
REMARK    1  A    between atoms: C_1  and  C_16 
REMARK    2  A    between atoms: C_1  and  N_17 
REMARK    3  A    between atoms: C_2  and  N_3 
REMARK    4  A    between atoms: C_2  and  C_22 
REMARK    5  A    between atoms: N_3  and  C_6 
REMARK    6  A    between atoms: C_11  and  C_16 
REMARK       I    between atoms: N_17  and  C_18 
REMARK    7  A    between atoms: C_18  and  C_20 
REMARK    8  A    between atoms: C_20  and  C_22 
ROOT
ATOM      1  N   UNN dAMED      -1.701  -1.611  -1.260  0.00  0.00    -0.161 NA
ATOM      2  C   UNN dAMED      -0.581  -1.668  -0.462  0.00  0.00     0.326 C 
ATOM      3  O   UNN dAMED      -0.394  -2.433   0.481  0.00  0.00    -0.261 OA
ENDROOT
BRANCH   2   4
ATOM      4  C   UNN dAMED       0.599  -0.794  -0.777  0.00  0.00     0.263 C 
ATOM      5  O   UNN dAMED       0.399   0.223  -1.426  0.00  0.00    -0.281 OA
BRANCH   4   6
ATOM      6  C   UNN dAMED       1.803  -0.881   0.130  0.00  0.00     0.108 C 
BRANCH   6   7
ATOM      7  C   UNN dAMED       3.035  -0.569  -0.278  0.00  0.00     0.002 C 
BRANCH   7   8
ATOM      8  N   UNN dAMED       4.135  -0.311  -0.600  0.00  0.00    -0.204 NA
BRANCH   8   9
ATOM      9  C   UNN dAMED       4.921   0.087   0.496  0.00  0.00     0.090 A 
ATOM     10  C   UNN dAMED       5.401   1.399   0.568  0.00  0.00     0.020 A 
ATOM     11  C   UNN dAMED       6.244   1.791   1.608  0.00  0.00     0.002 A 
ATOM     12  C   UNN dAMED       6.622   0.873   2.583  0.00  0.00     0.000 A 
ATOM     13  C   UNN dAMED       6.169  -0.441   2.514  0.00  0.00     0.002 A 
ATOM     14  C   UNN dAMED       5.338  -0.834   1.467  0.00  0.00     0.020 A 
ENDBRANCH   8   9
ENDBRANCH   7   8
ENDBRANCH   6   7
ENDBRANCH   4   6
ENDBRANCH   2   4
BRANCH   1  15
ATOM     15  C   UNN dAMED      -2.719  -1.476  -0.691  0.00  0.00     0.002 C 
BRANCH  15  16
ATOM     16  C   UNN dAMED      -3.874  -1.360  -0.031  0.00  0.00     0.061 C 
BRANCH  16  17
ATOM     17  C   UNN dAMED      -4.649  -0.066   0.010  0.00  0.00     0.009 A 
ATOM     18  C   UNN dAMED      -4.353   0.892   0.979  0.00  0.00     0.001 A 
ATOM     19  C   UNN dAMED      -5.174   2.006   1.134  0.00  0.00     0.000 A 
ATOM     20  C   UNN dAMED      -6.301   2.158   0.331  0.00  0.00     0.000 A 
ATOM     21  C   UNN dAMED      -6.607   1.196  -0.629  0.00  0.00     0.000 A 
ATOM     22  C   UNN dAMED      -5.785   0.083  -0.786  0.00  0.00     0.001 A 
ENDBRANCH  16  17
ENDBRANCH  15  16
ENDBRANCH   1  15
TORSDOF 8
