REMARK  5 active torsions:
REMARK  status: ('A' for Active; 'I' for Inactive)
REMARK    1  A    between atoms: C_7  and  C_13 
REMARK    2  A    between atoms: C_8  and  C_9 
REMARK    3  A    between atoms: C_9  and  O_11 
REMARK    4  A    between atoms: C_13  and  C_14 
REMARK    5  A    between atoms: C_14  and  O_16 
ROOT
ATOM      1  O   UNN dAMED      -0.496  -3.070  -1.369  0.00  0.00    -0.247 OA
ATOM      2  H   UNN dAMED      -2.476  -1.122  -1.260  0.00  0.00     0.171 HD
ATOM      3  N   UNN dAMED      -1.576  -1.028  -0.806  0.00  0.00    -0.301 N 
ATOM      4  H   UNN dAMED       1.395  -1.790   0.211  0.00  0.00     0.171 HD
ATOM      5  N   UNN dAMED       0.497  -1.383  -0.022  0.00  0.00    -0.305 N 
ATOM      6  C   UNN dAMED      -0.520  -1.982  -0.817  0.00  0.00     0.325 A 
ATOM      7  C   UNN dAMED       0.050  -0.166   0.429  0.00  0.00     0.087 A 
ATOM      8  C   UNN dAMED      -1.184   0.041  -0.045  0.00  0.00     0.140 A 
ENDROOT
BRANCH   7   9
ATOM      9  C   UNN dAMED       0.758   0.754   1.384  0.00  0.00     0.087 C 
BRANCH   9  10
ATOM     10  C   UNN dAMED       2.139   0.479   1.918  0.00  0.00     0.297 C 
ATOM     11  O   UNN dAMED       3.010   1.313   1.706  0.00  0.00    -0.259 OA
BRANCH  10  12
ATOM     12  O   UNN dAMED       2.296  -0.541   2.806  0.00  0.00    -0.296 OA
ATOM     13  C   UNN dAMED       2.979   0.017   3.889  0.00  0.00     0.185 C 
ENDBRANCH  10  12
ENDBRANCH   9  10
ENDBRANCH   7   9
BRANCH   8  14
ATOM     14  C   UNN dAMED      -2.013   1.207   0.219  0.00  0.00     0.313 C 
ATOM     15  O   UNN dAMED      -2.116   2.173  -0.519  0.00  0.00    -0.257 OA
BRANCH  14  16
ATOM     16  O   UNN dAMED      -2.605   1.076   1.429  0.00  0.00    -0.295 OA
ATOM     17  C   UNN dAMED      -2.270  -0.209   1.865  0.00  0.00     0.185 C 
ENDBRANCH  14  16
ENDBRANCH   8  14
TORSDOF 5
