REMARK  2 active torsions:
REMARK  status: ('A' for Active; 'I' for Inactive)
REMARK    1  A    between atoms: C_5  and  C_11 
REMARK    2  A    between atoms: C_8  and  C_10 
ROOT
ATOM      1  H   UNN dAMED      -1.337  -1.795  -0.328  0.00  0.00     0.189 HD
ATOM      2  N   UNN dAMED      -0.760  -0.994  -0.088  0.00  0.00    -0.278 N 
ATOM      3  N   UNN dAMED       0.584  -1.170  -0.185  0.00  0.00    -0.172 NA
ATOM      4  O   UNN dAMED       1.464   2.185   0.287  0.00  0.00    -0.285 OA
ATOM      5  C   UNN dAMED       1.351  -0.136  -0.026  0.00  0.00     0.150 C 
ATOM      6  C   UNN dAMED       0.742   1.203   0.244  0.00  0.00     0.214 C 
ATOM      7  C   UNN dAMED      -0.744   1.327   0.132  0.00  0.00     0.060 C 
ATOM      8  C   UNN dAMED      -1.435   0.197  -0.004  0.00  0.00     0.088 C 
ENDROOT
BRANCH   5   9
ATOM      9  C   UNN dAMED       2.848  -0.284  -0.099  0.00  0.00     0.233 C 
ATOM     10  O   UNN dAMED       3.498  -0.268  -1.305  0.00  0.00    -0.214 OA
ENDBRANCH   5   9
BRANCH   8  11
ATOM     11  C   UNN dAMED      -2.936   0.214  -0.035  0.00  0.00     0.227 C 
ATOM     12  O   UNN dAMED      -3.637   0.700   1.034  0.00  0.00    -0.214 OA
ENDBRANCH   8  11
TORSDOF 2
