REMARK  4 active torsions:
REMARK  status: ('A' for Active; 'I' for Inactive)
REMARK       I    between atoms: N_1  and  C_7 
REMARK    1  A    between atoms: C_7  and  C_9 
REMARK    2  A    between atoms: C_9  and  C_10 
REMARK    3  A    between atoms: C_10  and  C_11 
REMARK    4  A    between atoms: C_11  and  C_12 
ROOT
ATOM      1  N   UNN dAMED      -1.728  -0.234   0.476  0.00  0.00    -0.223 NA
ATOM      2  C   UNN dAMED      -1.357   0.162  -0.850  0.00  0.00     0.079 C 
ATOM      3  C   UNN dAMED      -1.292   1.659  -1.180  0.00  0.00     0.018 C 
ATOM      4  C   UNN dAMED      -2.273   2.549  -0.423  0.00  0.00     0.003 C 
ATOM      5  C   UNN dAMED      -2.453   2.135   1.032  0.00  0.00     0.018 C 
ATOM      6  C   UNN dAMED      -1.714   0.848   1.411  0.00  0.00     0.079 C 
ATOM      7  C   UNN dAMED      -0.802  -1.154   0.902  0.00  0.00     0.213 C 
ATOM      8  O   UNN dAMED       0.304  -1.311   0.399  0.00  0.00    -0.279 OA
ENDROOT
BRANCH   7   9
ATOM      9  C   UNN dAMED      -1.176  -2.029   2.066  0.00  0.00     0.082 C 
BRANCH   9  10
ATOM     10  C   UNN dAMED      -0.163  -2.292   3.185  0.00  0.00     0.009 C 
BRANCH  10  11
ATOM     11  C   UNN dAMED       1.094  -3.121   2.899  0.00  0.00     0.001 C 
BRANCH  11  12
ATOM     12  C   UNN dAMED       2.020  -3.529   4.049  0.00  0.00     0.000 C 
ATOM     13  C   UNN dAMED       3.514  -3.200   3.982  0.00  0.00     0.000 C 
ENDBRANCH  11  12
ENDBRANCH  10  11
ENDBRANCH   9  10
ENDBRANCH   7   9
TORSDOF 4
