REMARK  3 active torsions:
REMARK  status: ('A' for Active; 'I' for Inactive)
REMARK    1  A    between atoms: N_1  and  C_5 
REMARK    2  A    between atoms: N_2  and  C_14 
REMARK    3  A    between atoms: C_8  and  N_15 
ROOT
ATOM      1  C   UNN dAMED       1.155  -0.941  -0.066  0.00  0.00     0.022 A 
ATOM      2  C   UNN dAMED       0.664   0.195  -0.723  0.00  0.00     0.103 A 
ATOM      3  C   UNN dAMED       2.499  -1.056   0.273  0.00  0.00     0.018 A 
ATOM      4  C   UNN dAMED       1.560   1.227  -1.014  0.00  0.00     0.022 A 
ATOM      5  C   UNN dAMED       3.382  -0.021  -0.022  0.00  0.00     0.056 A 
ATOM      6  C   UNN dAMED       2.910   1.122  -0.667  0.00  0.00     0.018 A 
ENDROOT
BRANCH   2   7
ATOM      7  N   UNN dAMED      -0.705   0.368  -1.020  0.00  0.00    -0.147 NA
ATOM      8  N   UNN dAMED      -1.297  -0.731  -1.059  0.00  0.00    -0.129 NA
BRANCH   8   9
ATOM      9  C   UNN dAMED      -2.678  -0.621  -1.296  0.00  0.00     0.184 A 
ATOM     10  N   UNN dAMED      -3.201   0.546  -1.746  0.00  0.00    -0.224 NA
ATOM     11  C   UNN dAMED      -4.527   0.564  -2.012  0.00  0.00     0.101 A 
ATOM     12  C   UNN dAMED      -5.366  -0.527  -1.863  0.00  0.00     0.021 A 
ATOM     13  C   UNN dAMED      -4.807  -1.709  -1.402  0.00  0.00     0.005 A 
ATOM     14  C   UNN dAMED      -3.449  -1.764  -1.113  0.00  0.00     0.041 A 
ENDBRANCH   8   9
ENDBRANCH   2   7
BRANCH   5  15
ATOM     15  N   UNN dAMED       4.732  -0.137   0.351  0.00  0.00    -0.344 N 
ATOM     16  C   UNN dAMED       5.136  -1.223   1.224  0.00  0.00     0.126 C 
ATOM     17  C   UNN dAMED       5.715   0.787  -0.179  0.00  0.00     0.126 C 
ENDBRANCH   5  15
TORSDOF 3
