REMARK  3 active torsions:
REMARK  status: ('A' for Active; 'I' for Inactive)
REMARK       I    between atoms: N_1  and  C_8 
REMARK    1  A    between atoms: C_8  and  C_10 
REMARK    2  A    between atoms: C_10  and  C_11 
REMARK    3  A    between atoms: C_11  and  C_12 
ROOT
ATOM      1  N   UNN dAMED      -0.490  -0.486  -0.388  0.00  0.00    -0.223 NA
ATOM      2  C   UNN dAMED       0.039   0.811  -0.127  0.00  0.00     0.079 C 
ATOM      3  C   UNN dAMED      -0.985   1.887   0.228  0.00  0.00     0.018 C 
ATOM      4  C   UNN dAMED      -2.075   1.423   1.194  0.00  0.00     0.003 C 
ATOM      5  C   UNN dAMED      -2.561  -0.014   0.988  0.00  0.00     0.017 C 
ATOM      6  C   UNN dAMED      -1.491  -0.992   0.496  0.00  0.00     0.079 C 
ATOM      7  C   UNN dAMED      -3.728  -0.540   1.831  0.00  0.00     0.001 C 
ATOM      8  C   UNN dAMED       0.546  -1.382  -0.370  0.00  0.00     0.213 C 
ATOM      9  O   UNN dAMED       0.388  -2.598  -0.334  0.00  0.00    -0.279 OA
ENDROOT
BRANCH   8  10
ATOM     10  C   UNN dAMED       1.942  -0.846  -0.204  0.00  0.00     0.082 C 
BRANCH  10  11
ATOM     11  C   UNN dAMED       2.851  -0.662  -1.424  0.00  0.00     0.009 C 
BRANCH  11  12
ATOM     12  C   UNN dAMED       4.354  -0.938  -1.310  0.00  0.00     0.001 C 
ATOM     13  C   UNN dAMED       5.346   0.228  -1.242  0.00  0.00     0.000 C 
ENDBRANCH  11  12
ENDBRANCH  10  11
ENDBRANCH   8  10
TORSDOF 3
