REMARK  0 active torsions:
REMARK  status: ('A' for Active; 'I' for Inactive)
ROOT
ATOM      1  N   UNN dAMED       3.174  -0.468   0.286  0.00  0.00    -0.250 NA
ATOM      2  O   UNN dAMED      -3.170   1.132   0.083  0.00  0.00    -0.300 OA
ATOM      3  O   UNN dAMED      -3.018  -1.170  -0.032  0.00  0.00    -0.300 OA
ATOM      4  C   UNN dAMED      -0.753   1.607   0.051  0.00  0.00     0.022 A 
ATOM      5  C   UNN dAMED       0.474   0.923  -0.020  0.00  0.00    -0.018 A 
ATOM      6  C   UNN dAMED      -1.857   0.763   0.037  0.00  0.00     0.119 A 
ATOM      7  C   UNN dAMED       1.771   1.669   0.054  0.00  0.00     0.044 C 
ATOM      8  C   UNN dAMED       3.024   0.852  -0.280  0.00  0.00     0.081 C 
ATOM      9  C   UNN dAMED      -1.765  -0.629  -0.033  0.00  0.00     0.119 A 
ATOM     10  C   UNN dAMED       0.576  -0.493  -0.069  0.00  0.00     0.009 A 
ATOM     11  C   UNN dAMED      -0.562  -1.322  -0.094  0.00  0.00     0.027 A 
ATOM     12  C   UNN dAMED       1.944  -1.133  -0.199  0.00  0.00     0.047 C 
ATOM     13  C   UNN dAMED      -3.815  -0.067   0.042  0.00  0.00     0.304 A 
ATOM     14  C   UNN dAMED       3.978  -1.663   0.174  0.00  0.00     0.094 C 
ENDROOT
TORSDOF 0
