REMARK  3 active torsions:
REMARK  status: ('A' for Active; 'I' for Inactive)
REMARK    1  A    between atoms: C_2  and  C_3 
REMARK    2  A    between atoms: C_8  and  N_13 
REMARK       I    between atoms: C_10  and  N_13 
REMARK    3  A    between atoms: C_10  and  C_14 
ROOT
ATOM      1  C   UNN dAMED      -2.652  -0.408   0.280  0.00  0.00     0.103 A 
ATOM      2  C   UNN dAMED      -2.701   0.468  -0.831  0.00  0.00     0.203 A 
ATOM      3  C   UNN dAMED      -1.545  -0.457   1.139  0.00  0.00     0.011 A 
ATOM      4  C   UNN dAMED      -1.547   1.261  -0.985  0.00  0.00     0.061 A 
ATOM      5  C   UNN dAMED      -0.450   0.372   0.926  0.00  0.00     0.020 A 
ATOM      6  C   UNN dAMED      -0.418   1.262  -0.143  0.00  0.00     0.088 A 
ATOM      7  O   UNN dAMED      -3.682   0.565  -1.642  0.00  0.00    -0.286 OA
ENDROOT
BRANCH   6   8
ATOM      8  N   UNN dAMED       0.669   2.054  -0.295  0.00  0.00    -0.208 NA
ATOM      9  C   UNN dAMED       0.569   3.024  -1.206  0.00  0.00     0.279 C 
ATOM     10  O   UNN dAMED       0.991   2.998  -2.359  0.00  0.00    -0.265 OA
BRANCH   9  11
ATOM     11  C   UNN dAMED      -0.010   4.290  -0.721  0.00  0.00     0.058 A 
ATOM     12  C   UNN dAMED       0.659   5.042   0.243  0.00  0.00     0.005 A 
ATOM     13  C   UNN dAMED       0.113   6.253   0.660  0.00  0.00     0.000 A 
ATOM     14  C   UNN dAMED      -1.079   6.713   0.100  0.00  0.00     0.000 A 
ATOM     15  C   UNN dAMED      -1.734   5.961  -0.874  0.00  0.00     0.000 A 
ATOM     16  C   UNN dAMED      -1.200   4.744  -1.290  0.00  0.00     0.005 A 
ENDBRANCH   9  11
ENDBRANCH   6   8
BRANCH   1  17
ATOM     17  C   UNN dAMED      -3.783  -1.332   0.598  0.00  0.00     0.214 C 
ATOM     18  O   UNN dAMED      -4.636  -0.908   1.436  0.00  0.00    -0.644 OA
ATOM     19  O   UNN dAMED      -3.775  -2.455   0.010  0.00  0.00    -0.644 OA
ENDBRANCH   1  17
TORSDOF 3
