REMARK  4 active torsions:
REMARK  status: ('A' for Active; 'I' for Inactive)
REMARK    1  A    between atoms: C_4  and  S_14 
REMARK    2  A    between atoms: C_12  and  C_18 
REMARK    3  A    between atoms: S_14  and  N_17 
REMARK    4  A    between atoms: N_17  and  C_18 
ROOT
ATOM      1  S   UNN dAMED       0.563  -3.304  -1.187  0.00  0.00     0.285 S 
ATOM      2  O   UNN dAMED       1.094  -4.231  -0.190  0.00  0.00    -0.198 OA
ATOM      3  O   UNN dAMED       0.985  -3.565  -2.560  0.00  0.00    -0.198 OA
ENDROOT
BRANCH   1   4
ATOM      4  C   UNN dAMED      -1.173  -3.745  -1.257  0.00  0.00     0.105 A 
ATOM      5  C   UNN dAMED      -1.987  -3.093  -2.179  0.00  0.00     0.014 A 
ATOM      6  C   UNN dAMED      -3.312  -3.498  -2.314  0.00  0.00     0.015 A 
ATOM      7  C   UNN dAMED      -3.806  -4.546  -1.537  0.00  0.00     0.070 A 
ATOM      8  C   UNN dAMED      -2.980  -5.186  -0.613  0.00  0.00     0.015 A 
ATOM      9  N   UNN dAMED      -5.120  -5.041  -1.772  0.00  0.00    -0.101 NA
ATOM     10  C   UNN dAMED      -1.653  -4.790  -0.472  0.00  0.00     0.014 A 
ENDBRANCH   1   4
BRANCH   1  11
ATOM     11  N   UNN dAMED       0.624  -1.773  -0.755  0.00  0.00    -0.155 NA
BRANCH  11  12
ATOM     12  C   UNN dAMED       1.613  -1.332   0.221  0.00  0.00     0.132 C 
BRANCH  12  13
ATOM     13  C   UNN dAMED       3.070  -1.005  -0.164  0.00  0.00     0.091 C 
ATOM     14  O   UNN dAMED       3.381  -0.394  -1.386  0.00  0.00    -0.334 OA
ATOM     15  C   UNN dAMED       4.592   0.282  -1.569  0.00  0.00     0.148 C 
ATOM     16  C   UNN dAMED       5.811  -0.196  -0.778  0.00  0.00     0.033 C 
ATOM     17  C   UNN dAMED       5.496  -0.600   0.654  0.00  0.00     0.009 C 
ATOM     18  C   UNN dAMED       4.212  -1.414   0.778  0.00  0.00     0.053 C 
ENDBRANCH  12  13
ENDBRANCH  11  12
ENDBRANCH   1  11
TORSDOF 4
