REMARK  0 active torsions:
REMARK  status: ('A' for Active; 'I' for Inactive)
ROOT
ATOM      1  N   UNN dAMED       2.600  -0.324  -0.934  0.00  0.00    -0.203 NA
ATOM      2  N   UNN dAMED       0.497  -0.995   0.007  0.00  0.00    -0.317 N 
ATOM      3  S   UNN dAMED       3.510   2.249  -0.698  0.00  0.00    -0.056 SA
ATOM      4  H   UNN dAMED      -0.165  -1.748   0.165  0.00  0.00     0.169 HD
ATOM      5  N   UNN dAMED       0.742   2.429   0.801  0.00  0.00    -0.226 NA
ATOM      6  N   UNN dAMED      -0.695   0.765   1.182  0.00  0.00    -0.201 NA
ATOM      7  C   UNN dAMED       2.440   0.986  -0.477  0.00  0.00     0.158 A 
ATOM      8  C   UNN dAMED       1.220   1.262   0.258  0.00  0.00     0.137 A 
ATOM      9  C   UNN dAMED       0.323   0.249   0.461  0.00  0.00     0.124 A 
ATOM     10  C   UNN dAMED      -0.445   2.110   1.293  0.00  0.00     0.154 A 
ATOM     11  C   UNN dAMED       1.676  -1.224  -0.691  0.00  0.00     0.217 A 
ATOM     12  C   UNN dAMED      -2.700  -0.715   0.498  0.00  0.00     0.017 C 
ATOM     13  C   UNN dAMED      -3.587  -0.752  -0.753  0.00  0.00     0.002 C 
ATOM     14  C   UNN dAMED      -1.901   0.588   0.450  0.00  0.00     0.069 C 
ATOM     15  C   UNN dAMED      -3.239   0.467  -1.619  0.00  0.00     0.002 C 
ATOM     16  C   UNN dAMED      -2.138   1.259  -0.904  0.00  0.00     0.017 C 
ATOM     17  N   UNN dAMED       1.902  -2.543  -1.179  0.00  0.00    -0.061 NA
ENDROOT
TORSDOF 0
