REMARK  4 active torsions:
REMARK  status: ('A' for Active; 'I' for Inactive)
REMARK    1  A    between atoms: C_3  and  C_19 
REMARK    2  A    between atoms: C_4  and  N_18 
REMARK    3  A    between atoms: C_7  and  N_21 
REMARK    4  A    between atoms: C_12  and  N_18 
REMARK       I    between atoms: C_19  and  N_21 
ROOT
ATOM      1  S   UNN dAMED      -1.018   2.650   1.568  0.00  0.00    -0.129 SA
ATOM      2  C   UNN dAMED       0.387   1.695   0.983  0.00  0.00     0.090 C 
ATOM      3  C   UNN dAMED       0.065   0.504   0.131  0.00  0.00     0.061 C 
ATOM      4  C   UNN dAMED      -1.257   0.255   0.080  0.00  0.00     0.071 C 
ATOM      5  C   UNN dAMED      -1.998   1.316   0.854  0.00  0.00     0.103 C 
ENDROOT
BRANCH   3   6
ATOM      6  C   UNN dAMED       1.188  -0.292  -0.446  0.00  0.00     0.277 C 
ATOM      7  O   UNN dAMED       2.277  -0.267   0.125  0.00  0.00    -0.265 OA
ATOM      8  N   UNN dAMED       0.858  -0.982  -1.536  0.00  0.00    -0.208 NA
BRANCH   8   9
ATOM      9  C   UNN dAMED       1.471  -0.564  -2.664  0.00  0.00     0.085 A 
ATOM     10  C   UNN dAMED       2.297  -1.441  -3.379  0.00  0.00     0.019 A 
ATOM     11  C   UNN dAMED       2.837  -1.095  -4.618  0.00  0.00     0.002 A 
ATOM     12  C   UNN dAMED       2.557   0.149  -5.171  0.00  0.00     0.000 A 
ATOM     13  C   UNN dAMED       1.733   1.038  -4.489  0.00  0.00     0.002 A 
ATOM     14  C   UNN dAMED       1.188   0.675  -3.257  0.00  0.00     0.019 A 
ENDBRANCH   8   9
ENDBRANCH   3   6
BRANCH   4  15
ATOM     15  N   UNN dAMED      -2.015  -0.716  -0.472  0.00  0.00    -0.249 NA
BRANCH  15  16
ATOM     16  C   UNN dAMED      -3.238  -0.785   0.094  0.00  0.00     0.081 A 
ATOM     17  C   UNN dAMED      -3.427  -1.296   1.387  0.00  0.00     0.019 A 
ATOM     18  C   UNN dAMED      -4.699  -1.445   1.940  0.00  0.00     0.002 A 
ATOM     19  C   UNN dAMED      -5.823  -1.113   1.193  0.00  0.00     0.000 A 
ATOM     20  C   UNN dAMED      -5.669  -0.636  -0.104  0.00  0.00     0.002 A 
ATOM     21  C   UNN dAMED      -4.391  -0.478  -0.644  0.00  0.00     0.019 A 
ENDBRANCH  15  16
ENDBRANCH   4  15
TORSDOF 4
