REMARK  0 active torsions:
REMARK  status: ('A' for Active; 'I' for Inactive)
ROOT
ATOM      1  O   UNN dAMED      -2.241   2.199   0.008  0.00  0.00    -0.286 OA
ATOM      2 BR   UNN dAMED      -4.218  -0.224  -0.071  0.00  0.00    -0.046 Br
ATOM      3  C   UNN dAMED      -2.362  -0.178  -0.042  0.00  0.00     0.073 A 
ATOM      4  C   UNN dAMED      -1.655   1.125  -0.003  0.00  0.00     0.202 A 
ATOM      5  C   UNN dAMED      -1.686  -1.329  -0.056  0.00  0.00     0.010 A 
ATOM      6  C   UNN dAMED      -0.182  -1.364  -0.038  0.00  0.00     0.001 A 
ATOM      7  C   UNN dAMED      -0.176   1.065   0.022  0.00  0.00     0.040 A 
ATOM      8  C   UNN dAMED       0.504  -2.576  -0.056  0.00  0.00     0.000 A 
ATOM      9  C   UNN dAMED       0.512  -0.154   0.004  0.00  0.00     0.003 A 
ATOM     10  C   UNN dAMED       0.535   2.265   0.065  0.00  0.00     0.003 A 
ATOM     11  C   UNN dAMED       1.897  -2.582  -0.033  0.00  0.00     0.000 A 
ATOM     12  C   UNN dAMED       1.922  -0.164   0.029  0.00  0.00     0.000 A 
ATOM     13  C   UNN dAMED       1.928   2.254   0.090  0.00  0.00     0.000 A 
ATOM     14  C   UNN dAMED       2.604  -1.381   0.010  0.00  0.00     0.000 A 
ATOM     15  C   UNN dAMED       2.619   1.044   0.071  0.00  0.00     0.000 A 
ENDROOT
TORSDOF 0
