REMARK  1 active torsions:
REMARK  status: ('A' for Active; 'I' for Inactive)
REMARK    1  A    between atoms: C_5  and  S_7 
ROOT
ATOM      1  H   UNN dAMED      -1.634  -1.547  -0.253  0.00  0.00     0.176 HD
ATOM      2  N   UNN dAMED      -0.797  -1.033   0.000  0.00  0.00    -0.302 N 
ATOM      3  N   UNN dAMED       0.470   0.907  -0.140  0.00  0.00    -0.195 NA
ATOM      4  S   UNN dAMED       0.721  -1.717   0.053  0.00  0.00     0.030 SA
ATOM      5  C   UNN dAMED      -0.704   0.331  -0.149  0.00  0.00     0.176 A 
ATOM      6  C   UNN dAMED       1.410  -0.095  -0.005  0.00  0.00     0.234 A 
ATOM      7  N   UNN dAMED       2.675   0.129   0.062  0.00  0.00    -0.099 NA
ATOM      8  N   UNN dAMED       3.166   1.463   0.007  0.00  0.00    -0.020 N 
ENDROOT
BRANCH   5   9
ATOM      9  S   UNN dAMED      -2.162   1.260  -0.362  0.00  0.00    -0.076 SA
ATOM     10  C   UNN dAMED      -3.267  -0.131  -0.147  0.00  0.00     0.077 C 
ENDBRANCH   5   9
TORSDOF 1
