REMARK  3 active torsions:
REMARK  status: ('A' for Active; 'I' for Inactive)
REMARK    1  A    between atoms: N_2  and  C_12 
REMARK    2  A    between atoms: N_3  and  C_5 
REMARK    3  A    between atoms: C_14  and  AS_16 
ROOT
ATOM      1  C   UNN dAMED      -1.396  -1.338  -0.123  0.00  0.00     0.021 A 
ATOM      2  C   UNN dAMED      -2.786  -1.293  -0.202  0.00  0.00     0.002 A 
ATOM      3  C   UNN dAMED      -0.642  -0.175   0.083  0.00  0.00     0.103 A 
ATOM      4  C   UNN dAMED      -1.312   1.048   0.161  0.00  0.00     0.021 A 
ATOM      5  C   UNN dAMED      -3.441  -0.075  -0.117  0.00  0.00     0.000 A 
ATOM      6  C   UNN dAMED      -2.703   1.100   0.067  0.00  0.00     0.002 A 
ENDROOT
BRANCH   3   7
ATOM      7  N   UNN dAMED       0.766  -0.191   0.084  0.00  0.00    -0.148 NA
ATOM      8  N   UNN dAMED       1.206  -1.150   0.756  0.00  0.00    -0.148 NA
BRANCH   8   9
ATOM      9  C   UNN dAMED       2.612  -1.222   0.750  0.00  0.00     0.103 A 
ATOM     10  C   UNN dAMED       3.445  -0.150   0.435  0.00  0.00     0.024 A 
ATOM     11  C   UNN dAMED       4.836  -0.286   0.495  0.00  0.00     0.044 A 
ATOM     12  C   UNN dAMED       5.482  -1.471   0.881  0.00  0.00     0.196 A 
ATOM     13  C   UNN dAMED       4.609  -2.516   1.220  0.00  0.00     0.044 A 
ATOM     14  O   UNN dAMED       6.749  -1.589   0.913  0.00  0.00    -0.287 OA
ATOM     15  C   UNN dAMED       3.215  -2.408   1.159  0.00  0.00     0.024 A 
ENDBRANCH   8   9
ENDBRANCH   3   7
BRANCH   5  16
ATOM     16 AS   UNN dAMED      -5.332   0.174   0.092  0.00  0.00     0.000 As
ATOM     17  O   UNN dAMED      -5.689   0.142   1.640  0.00  0.00     0.000 OA
ATOM     18  O   UNN dAMED      -5.818   1.724  -0.586  0.00  0.00     0.000 OA
ATOM     19  O   UNN dAMED      -6.205  -1.114  -0.729  0.00  0.00     0.000 OA
ENDBRANCH   5  16
TORSDOF 3
