REMARK  1 active torsions:
REMARK  status: ('A' for Active; 'I' for Inactive)
REMARK    1  A    between atoms: C_2  and  N_13 
REMARK       I    between atoms: C_5  and  N_13 
ROOT
ATOM      1  C   UNN dAMED      -1.539  -1.064  -0.174  0.00  0.00     0.328 C 
ATOM      2  C   UNN dAMED       0.150   0.350   0.266  0.00  0.00     0.205 C 
ATOM      3  C   UNN dAMED      -1.093   1.136   0.018  0.00  0.00     0.295 C 
ATOM      4  O   UNN dAMED      -1.258   2.239   0.517  0.00  0.00    -0.264 OA
ATOM      5  H   UNN dAMED       0.480  -1.689   0.362  0.00  0.00     0.172 HD
ATOM      6  N   UNN dAMED      -0.142  -1.005  -0.045  0.00  0.00    -0.288 N 
ATOM      7  N   UNN dAMED      -2.051   0.221  -0.315  0.00  0.00    -0.272 N 
ATOM      8  H   UNN dAMED      -3.046   0.415  -0.281  0.00  0.00     0.174 HD
ATOM      9  O   UNN dAMED      -2.210  -2.085  -0.062  0.00  0.00    -0.247 OA
ENDROOT
BRANCH   2  10
ATOM     10  N   UNN dAMED       1.475   0.901   0.002  0.00  0.00    -0.173 NA
ATOM     11  C   UNN dAMED       2.356   1.019   0.988  0.00  0.00     0.356 C 
ATOM     12  O   UNN dAMED       2.177   0.703   2.158  0.00  0.00    -0.249 OA
ATOM     13  N   UNN dAMED       3.630   1.563   0.649  0.00  0.00    -0.038 NA
ENDBRANCH   2  10
TORSDOF 1
