REMARK  4 active torsions:
REMARK  status: ('A' for Active; 'I' for Inactive)
REMARK    1  A    between atoms: C_2  and  C_15 
REMARK    2  A    between atoms: C_5  and  C_13 
REMARK    3  A    between atoms: C_7  and  N_19 
REMARK    4  A    between atoms: C_8  and  N_18 
REMARK       I    between atoms: C_13  and  N_18 
ROOT
ATOM      1  C   UNN dAMED      -0.880  -0.968   0.396  0.00  0.00     0.279 C 
ATOM      2  O   UNN dAMED      -1.467  -1.725   1.163  0.00  0.00    -0.265 OA
ATOM      3  N   UNN dAMED       0.437  -1.019   0.150  0.00  0.00    -0.208 NA
ENDROOT
BRANCH   1   4
ATOM      4  C   UNN dAMED      -1.683   0.013  -0.416  0.00  0.00     0.064 A 
ATOM      5  C   UNN dAMED      -3.014   0.348  -0.110  0.00  0.00     0.069 A 
ATOM      6  C   UNN dAMED      -3.676   1.313  -0.882  0.00  0.00     0.006 A 
ATOM      7  C   UNN dAMED      -3.041   1.938  -1.950  0.00  0.00     0.000 A 
ATOM      8  C   UNN dAMED      -1.738   1.588  -2.275  0.00  0.00     0.000 A 
ATOM      9  C   UNN dAMED      -1.071   0.632  -1.516  0.00  0.00     0.005 A 
BRANCH   5  10
ATOM     10  C   UNN dAMED      -3.804  -0.299   0.973  0.00  0.00     0.211 C 
ATOM     11  O   UNN dAMED      -4.508  -1.298   0.631  0.00  0.00    -0.644 OA
ATOM     12  O   UNN dAMED      -3.709   0.213   2.129  0.00  0.00    -0.644 OA
ENDBRANCH   5  10
ENDBRANCH   1   4
BRANCH   3  13
ATOM     13  C   UNN dAMED       1.162  -0.105   0.834  0.00  0.00     0.086 A 
ATOM     14  C   UNN dAMED       1.183  -0.038   2.232  0.00  0.00     0.043 A 
ATOM     15  C   UNN dAMED       1.959   0.933   2.858  0.00  0.00     0.128 A 
ATOM     16  C   UNN dAMED       2.745   1.842   2.162  0.00  0.00     0.024 A 
ATOM     17  C   UNN dAMED       2.766   1.753   0.777  0.00  0.00     0.003 A 
ATOM     18  C   UNN dAMED       1.985   0.792   0.131  0.00  0.00     0.019 A 
BRANCH  15  19
ATOM     19  N   UNN dAMED       1.882   1.053   4.284  0.00  0.00    -0.114 N 
ATOM     20  O   UNN dAMED       0.868   1.590   4.746  0.00  0.00    -0.532 OA
ATOM     21  O   UNN dAMED       2.836   0.613   4.936  0.00  0.00    -0.532 OA
ENDBRANCH  15  19
ENDBRANCH   3  13
TORSDOF 4
