REMARK  5 active torsions:
REMARK  status: ('A' for Active; 'I' for Inactive)
REMARK    1  A    between atoms: N_2  and  C_28 
REMARK    2  A    between atoms: O_3  and  C_27 
REMARK    3  A    between atoms: O_3  and  C_29 
REMARK    4  A    between atoms: C_9  and  C_29 
REMARK    5  A    between atoms: C_27  and  C_28 
ROOT
ATOM      1  N   UNN dAMED      -6.151  -2.661  -0.719  0.00  0.00    -0.243 NA
ATOM      2  N   UNN dAMED      -0.646   0.530  -0.509  0.00  0.00    -0.230 NA
ATOM      3  C   UNN dAMED      -2.155  -1.411  -1.020  0.00  0.00    -0.011 A 
ATOM      4  C   UNN dAMED      -3.480  -1.834  -0.909  0.00  0.00    -0.000 A 
ATOM      5  C   UNN dAMED      -1.815  -0.167  -0.482  0.00  0.00     0.036 A 
ATOM      6  C   UNN dAMED      -3.874  -3.055  -1.445  0.00  0.00     0.020 A 
ATOM      7  C   UNN dAMED      -5.207  -3.417  -1.324  0.00  0.00     0.099 A 
ATOM      8  C   UNN dAMED      -2.730   0.646   0.190  0.00  0.00     0.007 A 
ATOM      9  C   UNN dAMED      -4.431  -1.022  -0.267  0.00  0.00     0.015 A 
ATOM     10  C   UNN dAMED      -4.064   0.209   0.291  0.00  0.00    -0.019 A 
ATOM     11  C   UNN dAMED      -2.010   1.784   0.679  0.00  0.00     0.011 A 
ATOM     12  C   UNN dAMED       0.327   2.544   0.621  0.00  0.00     0.011 A 
ATOM     13  C   UNN dAMED      -0.050   3.635   1.408  0.00  0.00     0.001 A 
ATOM     14  C   UNN dAMED      -0.681   1.642   0.276  0.00  0.00     0.040 A 
ATOM     15  C   UNN dAMED      -1.367   3.816   1.817  0.00  0.00     0.000 A 
ATOM     16  C   UNN dAMED      -2.360   2.899   1.463  0.00  0.00     0.001 A 
ATOM     17  C   UNN dAMED      -5.738  -1.483  -0.203  0.00  0.00     0.099 A 
ATOM     18  C   UNN dAMED      -1.128  -2.261  -1.709  0.00  0.00     0.032 C 
ATOM     19  C   UNN dAMED      -5.085   1.057   0.993  0.00  0.00     0.031 C 
ENDROOT
BRANCH   2  20
ATOM     20  C   UNN dAMED       0.430  -0.311  -0.124  0.00  0.00     0.114 C 
BRANCH  20  21
ATOM     21  C   UNN dAMED       0.978  -1.325  -1.130  0.00  0.00     0.170 C 
BRANCH  21  22
ATOM     22  O   UNN dAMED       0.898  -2.692  -0.858  0.00  0.00    -0.297 OA
BRANCH  22  23
ATOM     23  C   UNN dAMED       2.173  -3.067  -0.633  0.00  0.00     0.296 C 
ATOM     24  O   UNN dAMED       3.143  -2.330  -0.635  0.00  0.00    -0.259 OA
BRANCH  23  25
ATOM     25  C   UNN dAMED       2.231  -4.503  -0.364  0.00  0.00     0.063 A 
ATOM     26  C   UNN dAMED       1.648  -5.413  -1.244  0.00  0.00     0.005 A 
ATOM     27  C   UNN dAMED       1.833  -6.777  -1.033  0.00  0.00     0.000 A 
ATOM     28  C   UNN dAMED       2.623  -7.220   0.027  0.00  0.00     0.000 A 
ATOM     29  C   UNN dAMED       3.219  -6.302   0.891  0.00  0.00     0.000 A 
ATOM     30  C   UNN dAMED       3.023  -4.938   0.698  0.00  0.00     0.005 A 
ENDBRANCH  23  25
ENDBRANCH  22  23
ENDBRANCH  21  22
ENDBRANCH  20  21
ENDBRANCH   2  20
TORSDOF 5
