REMARK  2 active torsions:
REMARK  status: ('A' for Active; 'I' for Inactive)
REMARK    1  A    between atoms: S_3  and  C_6 
REMARK    2  A    between atoms: S_3  and  C_10 
ROOT
ATOM      1  N   UNN dAMED       0.912  -0.747   0.651  0.00  0.00    -0.235 NA
ATOM      2  N   UNN dAMED       3.553  -0.105  -0.016  0.00  0.00    -0.245 NA
ATOM      3  C   UNN dAMED       1.228   0.422   0.056  0.00  0.00     0.124 A 
ATOM      4  C   UNN dAMED       2.532   0.736  -0.277  0.00  0.00     0.083 A 
ATOM      5  C   UNN dAMED       1.935  -1.586   0.912  0.00  0.00     0.120 A 
ATOM      6  C   UNN dAMED       3.235  -1.269   0.584  0.00  0.00     0.119 A 
ATOM      7  C   UNN dAMED       2.819   2.048  -0.952  0.00  0.00     0.054 C 
ENDROOT
BRANCH   3   8
ATOM      8  S   UNN dAMED      -0.074   1.565  -0.336  0.00  0.00    -0.067 SA
BRANCH   8   9
ATOM      9  C   UNN dAMED      -0.421   2.224   1.276  0.00  0.00     0.031 A 
ATOM     10  C   UNN dAMED      -1.624   1.908   1.906  0.00  0.00     0.006 A 
ATOM     11  C   UNN dAMED      -1.925   2.451   3.153  0.00  0.00     0.001 A 
ATOM     12  C   UNN dAMED      -1.025   3.314   3.772  0.00  0.00     0.000 A 
ATOM     13  C   UNN dAMED       0.175   3.637   3.144  0.00  0.00     0.001 A 
ATOM     14  C   UNN dAMED       0.473   3.099   1.894  0.00  0.00     0.006 A 
ENDBRANCH   8   9
ENDBRANCH   3   8
TORSDOF 2
