REMARK  3 active torsions:
REMARK  status: ('A' for Active; 'I' for Inactive)
REMARK    1  A    between atoms: C_4  and  N_16 
REMARK    2  A    between atoms: N_14  and  C_19 
REMARK    3  A    between atoms: C_19  and  C_20 
ROOT
ATOM      1  C   UNN dAMED      -2.785   1.526   0.191  0.00  0.00     0.058 C 
ATOM      2  C   UNN dAMED      -3.773   1.367  -0.692  0.00  0.00     0.013 C 
ATOM      3  N   UNN dAMED      -1.707   2.445  -0.042  0.00  0.00    -0.173 NA
ATOM      4  C   UNN dAMED      -0.585   1.841   0.454  0.00  0.00     0.203 C 
ATOM      5  C   UNN dAMED      -3.880   2.355  -1.850  0.00  0.00     0.004 C 
ATOM      6  C   UNN dAMED      -0.037   1.199  -0.640  0.00  0.00     0.155 C 
ATOM      7  C   UNN dAMED      -1.539   2.500  -1.404  0.00  0.00     0.130 C 
ATOM      8  C   UNN dAMED      -2.715   2.826  -2.271  0.00  0.00     0.032 C 
ATOM      9  N   UNN dAMED       0.918   0.253  -0.595  0.00  0.00    -0.231 NA
ATOM     10  N   UNN dAMED      -0.632   1.633  -1.798  0.00  0.00    -0.219 NA
ATOM     11  C   UNN dAMED       1.258  -0.585  -1.815  0.00  0.00     0.114 C 
ATOM     12  C   UNN dAMED       1.264  -0.602  -1.839  0.00  0.00     0.114 C 
ATOM     13  C   UNN dAMED       1.767  -2.025  -1.655  0.00  0.00     0.268 C 
ATOM     14  N   UNN dAMED       0.985  -3.191  -0.919  0.00  0.00     0.143 N 
ATOM     15  C   UNN dAMED       0.713  -2.028  -2.008  0.00  0.00     0.268 C 
ENDROOT
BRANCH   4  16
ATOM     16  N   UNN dAMED      -0.334   1.777   1.848  0.00  0.00    -0.099 N 
ATOM     17  O   UNN dAMED      -0.854   2.644   2.558  0.00  0.00    -0.531 OA
ATOM     18  O   UNN dAMED       0.429   0.889   2.237  0.00  0.00    -0.531 OA
ENDBRANCH   4  16
BRANCH  14  19
ATOM     19  C   UNN dAMED       0.657  -2.068  -2.080  0.00  0.00     0.286 C 
BRANCH  19  20
ATOM     20  C   UNN dAMED      -0.671  -1.283  -2.046  0.00  0.00     0.218 C 
ATOM     21  O   UNN dAMED      -1.491  -1.268  -3.153  0.00  0.00    -0.218 OA
ENDBRANCH  19  20
ENDBRANCH  14  19
TORSDOF 3
