REMARK  3 active torsions:
REMARK  status: ('A' for Active; 'I' for Inactive)
REMARK    1  A    between atoms: C_5  and  N_14 
REMARK    2  A    between atoms: C_7  and  C_17 
REMARK    3  A    between atoms: C_10  and  C_11 
ROOT
ATOM      1  O   UNN dAMED      -3.573   1.502   0.452  0.00  0.00    -0.299 OA
ATOM      2  O   UNN dAMED      -1.803   2.986   0.381  0.00  0.00    -0.300 OA
ATOM      3  C   UNN dAMED      -2.273  -0.557   0.082  0.00  0.00     0.050 A 
ATOM      4  C   UNN dAMED      -2.412   0.817   0.238  0.00  0.00     0.121 A 
ATOM      5  C   UNN dAMED      -0.933  -0.935  -0.125  0.00  0.00     0.129 A 
ATOM      6  C   UNN dAMED      -1.340   1.716   0.190  0.00  0.00     0.119 A 
ATOM      7  C   UNN dAMED       0.163  -0.048  -0.176  0.00  0.00     0.024 A 
ATOM      8  C   UNN dAMED      -0.017   1.339  -0.020  0.00  0.00     0.028 A 
ATOM      9  C   UNN dAMED      -3.143   2.793   0.528  0.00  0.00     0.304 A 
ENDROOT
BRANCH   7  10
ATOM     10  C   UNN dAMED       1.548  -0.606  -0.348  0.00  0.00     0.008 C 
ATOM     11  C   UNN dAMED       1.713  -1.872  -0.729  0.00  0.00     0.070 C 
BRANCH  11  12
ATOM     12  C   UNN dAMED       3.095  -2.474  -0.768  0.00  0.00     0.211 C 
ATOM     13  O   UNN dAMED       3.193  -3.694  -0.441  0.00  0.00    -0.644 OA
ATOM     14  O   UNN dAMED       4.033  -1.708  -1.139  0.00  0.00    -0.644 OA
ENDBRANCH  11  12
ENDBRANCH   7  10
BRANCH   5  15
ATOM     15  N   UNN dAMED      -0.654  -2.335  -0.266  0.00  0.00    -0.114 N 
ATOM     16  O   UNN dAMED      -0.612  -3.005   0.773  0.00  0.00    -0.532 OA
ATOM     17  O   UNN dAMED      -0.483  -2.759  -1.416  0.00  0.00    -0.532 OA
ENDBRANCH   5  15
TORSDOF 3
