REMARK  0 active torsions:
REMARK  status: ('A' for Active; 'I' for Inactive)
ROOT
ATOM      1  H   UNN dAMED      -2.764   0.038   0.095  0.00  0.00     0.171 HD
ATOM      2  N   UNN dAMED      -1.762  -0.050   0.018  0.00  0.00    -0.295 N 
ATOM      3  N   UNN dAMED       0.100  -1.494  -0.294  0.00  0.00    -0.203 NA
ATOM      4  O   UNN dAMED      -1.585   2.214   0.334  0.00  0.00    -0.267 OA
ATOM      5  N   UNN dAMED       2.172  -0.222  -0.309  0.00  0.00    -0.138 NA
ATOM      6  N   UNN dAMED       2.627   1.008   0.002  0.00  0.00    -0.188 NA
ATOM      7  C   UNN dAMED       0.821  -0.352  -0.185  0.00  0.00     0.147 A 
ATOM      8  C   UNN dAMED       0.360   0.923   0.029  0.00  0.00     0.106 A 
ATOM      9  C   UNN dAMED      -1.048   1.131   0.143  0.00  0.00     0.264 A 
ATOM     10  C   UNN dAMED       1.501   1.729   0.116  0.00  0.00     0.122 C 
ATOM     11  C   UNN dAMED      -1.186  -1.303  -0.187  0.00  0.00     0.218 A 
ATOM     12  N   UNN dAMED      -2.045  -2.437  -0.284  0.00  0.00    -0.061 NA
ATOM     13  C   UNN dAMED       2.808  -1.184   0.523  0.00  0.00     0.123 C 
ENDROOT
TORSDOF 0
