REMARK  4 active torsions:
REMARK  status: ('A' for Active; 'I' for Inactive)
REMARK    1  A    between atoms: C_5  and  S_11 
REMARK    2  A    between atoms: C_6  and  S_11 
REMARK    3  A    between atoms: C_7  and  N_14 
REMARK    4  A    between atoms: C_9  and  N_17 
ROOT
ATOM      1  C   UNN dAMED      -1.829   1.578   2.671  0.00  0.00     0.010 A 
ATOM      2  C   UNN dAMED      -1.494   1.758   4.013  0.00  0.00     0.024 A 
ATOM      3  C   UNN dAMED      -1.075   2.147   1.636  0.00  0.00     0.054 A 
ATOM      4  C   UNN dAMED      -0.393   2.551   4.312  0.00  0.00     0.128 A 
ATOM      5  C   UNN dAMED       0.033   2.931   2.009  0.00  0.00     0.134 A 
ATOM      6  C   UNN dAMED       0.387   3.157   3.338  0.00  0.00     0.048 A 
ENDROOT
BRANCH   3   7
ATOM      7  S   UNN dAMED      -1.555   1.889  -0.068  0.00  0.00    -0.047 SA
BRANCH   7   8
ATOM      8  C   UNN dAMED      -2.874   0.699   0.042  0.00  0.00     0.194 A 
ATOM      9  N   UNN dAMED      -4.138   1.166  -0.050  0.00  0.00    -0.220 NA
ATOM     10  C   UNN dAMED      -5.112   0.234   0.004  0.00  0.00     0.103 A 
ATOM     11  C   UNN dAMED      -4.879  -1.119   0.141  0.00  0.00     0.041 A 
ATOM     12  C   UNN dAMED      -3.550  -1.477   0.221  0.00  0.00     0.103 A 
ATOM     13  N   UNN dAMED      -2.526  -0.599   0.170  0.00  0.00    -0.220 NA
ENDBRANCH   7   8
ENDBRANCH   3   7
BRANCH   5  14
ATOM     14  N   UNN dAMED       0.899   3.531   1.024  0.00  0.00    -0.113 N 
ATOM     15  O   UNN dAMED       0.459   4.506   0.403  0.00  0.00    -0.532 OA
ATOM     16  O   UNN dAMED       2.027   3.036   0.897  0.00  0.00    -0.532 OA
ENDBRANCH   5  14
BRANCH   4  17
ATOM     17  N   UNN dAMED      -0.043   2.745   5.689  0.00  0.00    -0.114 N 
ATOM     18  O   UNN dAMED      -0.781   3.479   6.357  0.00  0.00    -0.532 OA
ATOM     19  O   UNN dAMED       0.969   2.161   6.098  0.00  0.00    -0.532 OA
ENDBRANCH   4  17
TORSDOF 4
