REMARK  3 active torsions:
REMARK  status: ('A' for Active; 'I' for Inactive)
REMARK    1  A    between atoms: C_5  and  C_8 
REMARK    2  A    between atoms: C_8  and  O_9 
REMARK    3  A    between atoms: O_9  and  S_10 
ROOT
ATOM      1  C   UNN dAMED       1.147  -1.774   0.393  0.00  0.00     0.180 A 
ATOM      2  C   UNN dAMED      -0.242  -1.405  -0.064  0.00  0.00     0.192 A 
ATOM      3  C   UNN dAMED      -0.168   0.115  -0.235  0.00  0.00     0.176 A 
ATOM      4  O   UNN dAMED       1.098   0.688   0.101  0.00  0.00    -0.293 OA
ATOM      5  C   UNN dAMED       1.866  -0.435   0.507  0.00  0.00     0.138 A 
ATOM      6  O   UNN dAMED       1.368  -2.761   1.319  0.00  0.00    -0.186 OA
ATOM      7  O   UNN dAMED      -0.904  -2.186  -0.980  0.00  0.00    -0.185 OA
ATOM      8  C   UNN dAMED      -1.447   3.053  -0.639  0.00  0.00     0.143 A 
ATOM      9  C   UNN dAMED      -1.221   1.852  -1.292  0.00  0.00     0.152 A 
ATOM     10  N   UNN dAMED      -0.926   1.672  -2.586  0.00  0.00    -0.210 NA
ATOM     11  C   UNN dAMED      -0.877   2.859  -3.230  0.00  0.00     0.201 A 
ATOM     12  N   UNN dAMED      -1.073   4.102  -2.727  0.00  0.00    -0.208 NA
ATOM     13  C   UNN dAMED      -1.362   4.212  -1.406  0.00  0.00     0.173 A 
ATOM     14  N   UNN dAMED      -1.698   2.846   0.697  0.00  0.00    -0.226 NA
ATOM     15  C   UNN dAMED      -1.585   1.543   0.868  0.00  0.00     0.160 A 
ATOM     16  N   UNN dAMED      -1.362   0.908  -0.322  0.00  0.00    -0.154 NA
ATOM     17  N   UNN dAMED      -1.514   5.493  -0.804  0.00  0.00    -0.078 NA
ENDROOT
BRANCH   5  18
ATOM     18  C   UNN dAMED       3.399  -0.380   0.482  0.00  0.00     0.218 C 
BRANCH  18  19
ATOM     19  O   UNN dAMED       4.071   0.812   0.767  0.00  0.00    -0.231 OA
BRANCH  19  20
ATOM     20  S   UNN dAMED       3.797   1.082   2.352  0.00  0.00     0.402 S 
ATOM     21  O   UNN dAMED       2.961  -0.006   2.824  0.00  0.00    -0.172 OA
ATOM     22  O   UNN dAMED       5.094   1.298   2.970  0.00  0.00    -0.172 OA
ATOM     23  N   UNN dAMED       2.901   2.529   2.495  0.00  0.00    -0.021 N 
ENDBRANCH  19  20
ENDBRANCH  18  19
ENDBRANCH   5  18
TORSDOF 3
