REMARK  0 active torsions:
REMARK  status: ('A' for Active; 'I' for Inactive)
ROOT
ATOM      1  O   UNN dAMED      -0.382  -3.814  -0.328  0.00  0.00    -0.267 OA
ATOM      2  N   UNN dAMED      -0.273  -1.484  -0.315  0.00  0.00    -0.279 N 
ATOM      3  N   UNN dAMED       1.198   2.831   0.180  0.00  0.00    -0.224 NA
ATOM      4  C   UNN dAMED       1.219   1.100   1.788  0.00  0.00     0.030 C 
ATOM      5  C   UNN dAMED       0.321   1.863   0.846  0.00  0.00     0.074 C 
ATOM      6  C   UNN dAMED       2.308   0.789   0.801  0.00  0.00     0.098 C 
ATOM      7  C   UNN dAMED      -0.345   0.857  -0.149  0.00  0.00     0.069 C 
ATOM      8  C   UNN dAMED       1.845  -0.402  -0.002  0.00  0.00    -0.002 C 
ATOM      9  C   UNN dAMED      -1.683   0.279   0.111  0.00  0.00    -0.000 A 
ATOM     10  C   UNN dAMED      -0.305   1.757  -1.384  0.00  0.00     0.029 C 
ATOM     11  C   UNN dAMED       0.610   2.929  -1.116  0.00  0.00     0.080 C 
ATOM     12  C   UNN dAMED       0.536  -0.363  -0.303  0.00  0.00     0.045 C 
ATOM     13  C   UNN dAMED       2.483  -1.763  -0.003  0.00  0.00     0.002 C 
ATOM     14  C   UNN dAMED      -2.876   0.905   0.403  0.00  0.00    -0.002 A 
ATOM     15  C   UNN dAMED      -4.007   0.098   0.538  0.00  0.00    -0.000 A 
ATOM     16  C   UNN dAMED      -3.933  -1.296   0.374  0.00  0.00     0.002 A 
ATOM     17  C   UNN dAMED      -1.614  -1.116  -0.073  0.00  0.00     0.063 A 
ATOM     18  C   UNN dAMED       1.753  -2.842  -0.308  0.00  0.00     0.061 C 
ATOM     19  C   UNN dAMED      -2.724  -1.924   0.071  0.00  0.00     0.017 A 
ATOM     20  C   UNN dAMED       0.243  -2.762  -0.338  0.00  0.00     0.265 C 
ATOM     21  C   UNN dAMED       2.394   2.103   0.042  0.00  0.00     0.217 C 
ATOM     22  O   UNN dAMED       3.232   2.256  -0.836  0.00  0.00    -0.278 OA
ENDROOT
TORSDOF 0
