REMARK  5 active torsions:
REMARK  status: ('A' for Active; 'I' for Inactive)
REMARK    1  A    between atoms: N_2  and  C_7 
REMARK    2  A    between atoms: N_2  and  C_20 
REMARK    3  A    between atoms: C_10  and  N_17 
REMARK    4  A    between atoms: C_20  and  N_21 
REMARK    5  A    between atoms: C_20  and  C_23 
ROOT
ATOM      1  O   UNN dAMED      -1.331  -0.282   2.810  0.00  0.00    -0.287 OA
ATOM      2 BR   UNN dAMED       2.600  -0.478  -2.986  0.00  0.00    -0.048 Br
ATOM      3  C   UNN dAMED      -1.389  -0.296   1.600  0.00  0.00     0.196 A 
ATOM      4  C   UNN dAMED      -0.250  -0.320   0.660  0.00  0.00     0.041 A 
ATOM      5  C   UNN dAMED       1.101  -0.359   0.936  0.00  0.00     0.023 A 
ATOM      6  C   UNN dAMED       1.982  -0.376  -0.154  0.00  0.00     0.089 A 
ATOM      7  C   UNN dAMED      -2.614  -0.286   0.771  0.00  0.00     0.041 A 
ATOM      8  C   UNN dAMED      -3.932  -0.292   1.173  0.00  0.00     0.027 A 
ATOM      9  C   UNN dAMED      -4.854  -0.285   0.130  0.00  0.00     0.127 A 
ATOM     10  C   UNN dAMED       1.461  -0.390  -1.472  0.00  0.00     0.052 A 
ATOM     11  C   UNN dAMED      -0.771  -0.313  -0.642  0.00  0.00     0.004 A 
ATOM     12  C   UNN dAMED      -2.212  -0.286  -0.579  0.00  0.00     0.003 A 
ATOM     13  C   UNN dAMED      -4.505  -0.272  -1.230  0.00  0.00     0.024 A 
ATOM     14  C   UNN dAMED       0.085  -0.353  -1.724  0.00  0.00     0.008 A 
ATOM     15  C   UNN dAMED      -3.157  -0.275  -1.592  0.00  0.00     0.002 A 
ENDROOT
BRANCH   6  16
ATOM     16  N   UNN dAMED       3.364  -0.450   0.101  0.00  0.00    -0.221 NA
BRANCH  16  17
ATOM     17  C   UNN dAMED       4.059   0.639   0.237  0.00  0.00     0.264 C 
BRANCH  17  18
ATOM     18  N   UNN dAMED       3.607   1.887   0.150  0.00  0.00    -0.073 NA
ATOM     19  O   UNN dAMED       3.259   2.340   1.417  0.00  0.00    -0.059 OA
ENDBRANCH  17  18
BRANCH  17  20
ATOM     20  C   UNN dAMED       5.540   0.555   0.479  0.00  0.00     0.455 C 
ATOM     21  F   UNN dAMED       5.877   0.960   1.731  0.00  0.00    -0.163 F 
ATOM     22  F   UNN dAMED       6.253   1.318  -0.390  0.00  0.00    -0.163 F 
ATOM     23  F   UNN dAMED       6.008  -0.715   0.345  0.00  0.00    -0.163 F 
ENDBRANCH  17  20
ENDBRANCH  16  17
ENDBRANCH   6  16
BRANCH   9  24
ATOM     24  N   UNN dAMED      -6.249  -0.314   0.461  0.00  0.00    -0.114 N 
ATOM     25  O   UNN dAMED      -6.810  -1.416   0.420  0.00  0.00    -0.532 OA
ATOM     26  O   UNN dAMED      -6.776   0.764   0.759  0.00  0.00    -0.532 OA
ENDBRANCH   9  24
TORSDOF 5
