REMARK  0 active torsions:
REMARK  status: ('A' for Active; 'I' for Inactive)
ROOT
ATOM      1  C   UNN dAMED      -3.389  -0.628   0.002  0.00  0.00     0.066 A 
ATOM      2  C   UNN dAMED      -3.391   0.588   0.548  0.00  0.00     0.066 A 
ATOM      3  C   UNN dAMED      -1.956  -0.973  -0.310  0.00  0.00     0.267 A 
ATOM      4  C   UNN dAMED      -1.962   1.059   0.596  0.00  0.00     0.267 A 
ATOM      5  O   UNN dAMED      -1.658   2.081   1.190  0.00  0.00    -0.267 OA
ATOM      6  O   UNN dAMED      -1.647  -2.094  -0.678  0.00  0.00    -0.267 OA
ATOM      7  N   UNN dAMED      -1.165   0.090   0.042  0.00  0.00    -0.241 N 
ATOM      8  C   UNN dAMED       0.232   0.105   0.021  0.00  0.00     0.080 A 
ATOM      9  C   UNN dAMED       0.866   0.506  -1.159  0.00  0.00     0.019 A 
ATOM     10  C   UNN dAMED       1.003  -0.252   1.133  0.00  0.00     0.074 A 
ATOM     11 CL   UNN dAMED       0.301  -0.758   2.623  0.00  0.00    -0.081 Cl
ATOM     12  C   UNN dAMED       2.257   0.558  -1.227  0.00  0.00     0.007 A 
ATOM     13  C   UNN dAMED       2.395  -0.199   1.065  0.00  0.00     0.019 A 
ATOM     14  C   UNN dAMED       3.012   0.207  -0.114  0.00  0.00     0.031 A 
ATOM     15  I   UNN dAMED       5.068   0.306  -0.201  0.00  0.00    -0.043 I 
ENDROOT
TORSDOF 0
