REMARK  0 active torsions:
REMARK  status: ('A' for Active; 'I' for Inactive)
ROOT
ATOM      1  N   UNN dAMED      -0.010   0.971   0.807  0.00  0.00    -0.189 NA
ATOM      2  N   UNN dAMED       0.197  -0.887  -0.724  0.00  0.00    -0.208 NA
ATOM      3  O   UNN dAMED       1.678   1.983   1.638  0.00  0.00    -0.265 OA
ATOM      4  N   UNN dAMED       2.564  -1.356  -1.048  0.00  0.00    -0.259 N 
ATOM      5  H   UNN dAMED       2.546  -2.142  -1.686  0.00  0.00     0.191 HD
ATOM      6  N   UNN dAMED       3.766  -0.881  -0.640  0.00  0.00    -0.157 NA
ATOM      7  C   UNN dAMED      -2.709   1.117  -0.214  0.00  0.00     0.002 A 
ATOM      8  C   UNN dAMED      -2.003  -0.083  -0.110  0.00  0.00     0.025 A 
ATOM      9  C   UNN dAMED      -4.101   1.102  -0.287  0.00  0.00     0.000 A 
ATOM     10  C   UNN dAMED      -0.522  -0.035  -0.032  0.00  0.00     0.166 A 
ATOM     11  C   UNN dAMED      -2.689  -1.300  -0.089  0.00  0.00     0.029 A 
ATOM     12  C   UNN dAMED      -4.789  -0.109  -0.270  0.00  0.00    -0.001 A 
ATOM     13  C   UNN dAMED      -4.082  -1.307  -0.174  0.00  0.00    -0.012 A 
ATOM     14  C   UNN dAMED       1.513  -0.671  -0.516  0.00  0.00     0.165 A 
ATOM     15  C   UNN dAMED       2.050   0.299   0.284  0.00  0.00     0.126 A 
ATOM     16  C   UNN dAMED       3.430   0.127   0.172  0.00  0.00     0.178 A 
ATOM     17  C   UNN dAMED       1.146   1.168   0.975  0.00  0.00     0.286 A 
ATOM     18  N   UNN dAMED       4.387   0.938   0.843  0.00  0.00    -0.078 NA
ENDROOT
TORSDOF 0
