REMARK  1 active torsions:
REMARK  status: ('A' for Active; 'I' for Inactive)
REMARK    1  A    between atoms: C_3  and  C_11 
ROOT
ATOM      1  C   UNN dAMED      -0.068  -1.260   0.114  0.00  0.00     0.139 C 
ATOM      2  C   UNN dAMED      -1.387  -0.890   0.792  0.00  0.00     0.115 C 
ATOM      3  C   UNN dAMED       0.932  -0.115   0.260  0.00  0.00     0.127 C 
ATOM      4  C   UNN dAMED      -0.771  -0.076  -1.232  0.00  0.00     0.154 C 
ATOM      5  C   UNN dAMED      -1.856   0.148  -0.190  0.00  0.00     0.165 C 
ATOM      6  C   UNN dAMED       0.267   0.858  -0.671  0.00  0.00     0.129 C 
ATOM      7 BR   UNN dAMED      -2.589  -2.252   1.355  0.00  0.00    -0.077 Br
ATOM      8  O   UNN dAMED      -1.862   1.483   0.271  0.00  0.00    -0.301 OA
ATOM      9  O   UNN dAMED      -0.321  -1.455  -1.287  0.00  0.00    -0.355 OA
ATOM     10  C   UNN dAMED      -0.578   1.901  -0.002  0.00  0.00     0.275 C 
ATOM     11  O   UNN dAMED      -0.100   2.967   0.354  0.00  0.00    -0.264 OA
ENDROOT
BRANCH   3  12
ATOM     12  C   UNN dAMED       2.407  -0.384   0.121  0.00  0.00     0.188 C 
ATOM     13  O   UNN dAMED       2.885  -0.322  -1.051  0.00  0.00    -0.647 OA
ATOM     14  O   UNN dAMED       3.036  -0.647   1.189  0.00  0.00    -0.647 OA
ENDBRANCH   3  12
TORSDOF 1
