REMARK  2 active torsions:
REMARK  status: ('A' for Active; 'I' for Inactive)
REMARK    1  A    between atoms: C_5  and  N_16 
REMARK    2  A    between atoms: N_11  and  N_15 
REMARK       I    between atoms: C_12  and  N_15 
REMARK       I    between atoms: C_12  and  N_16 
ROOT
ATOM      1  C   UNN dAMED      -0.294  -0.624   1.054  0.00  0.00     0.385 C 
ATOM      2  O   UNN dAMED      -0.009  -1.806   0.866  0.00  0.00    -0.241 OA
ATOM      3  N   UNN dAMED      -1.389  -0.172   1.711  0.00  0.00    -0.103 NA
ATOM      4  N   UNN dAMED       0.428   0.453   0.654  0.00  0.00    -0.190 NA
ENDROOT
BRANCH   3   5
ATOM      5  N   UNN dAMED      -2.363  -1.183   1.947  0.00  0.00    -0.181 N 
ATOM      6  C   UNN dAMED      -3.477  -1.380   1.190  0.00  0.00     0.225 A 
ATOM      7  N   UNN dAMED      -4.304  -2.151   1.868  0.00  0.00    -0.124 NA
ATOM      8  N   UNN dAMED      -3.739  -2.397   3.106  0.00  0.00    -0.124 NA
ATOM      9  C   UNN dAMED      -2.580  -1.771   3.155  0.00  0.00     0.225 A 
ENDBRANCH   3   5
BRANCH   4  10
ATOM     10  C   UNN dAMED       1.628   0.166   0.108  0.00  0.00     0.087 A 
ATOM     11  C   UNN dAMED       1.770  -0.009  -1.277  0.00  0.00     0.019 A 
ATOM     12  C   UNN dAMED       3.017  -0.229  -1.862  0.00  0.00     0.002 A 
ATOM     13  C   UNN dAMED       4.159  -0.247  -1.070  0.00  0.00     0.011 A 
ATOM     14  C   UNN dAMED       4.041  -0.056   0.301  0.00  0.00     0.059 A 
ATOM     15 CL   UNN dAMED       5.452  -0.028   1.278  0.00  0.00    -0.082 Cl
ATOM     16  C   UNN dAMED       2.793   0.155   0.884  0.00  0.00     0.031 A 
ENDBRANCH   4  10
TORSDOF 2
