REMARK  0 active torsions:
REMARK  status: ('A' for Active; 'I' for Inactive)
ROOT
ATOM      1  C   UNN dAMED       0.397  -2.673  -0.995  0.00  0.00     0.065 C 
ATOM      2  C   UNN dAMED       0.545  -1.153  -1.116  0.00  0.00     0.016 C 
ATOM      3  C   UNN dAMED       1.084  -3.413   0.140  0.00  0.00     0.151 C 
ATOM      4  C   UNN dAMED      -0.011  -0.256   0.005  0.00  0.00     0.038 C 
ATOM      5  O   UNN dAMED       0.986  -4.628   0.221  0.00  0.00    -0.296 OA
ATOM      6  C   UNN dAMED       0.674  -1.009   1.158  0.00  0.00     0.016 C 
ATOM      7  C   UNN dAMED       0.527  -2.533   1.246  0.00  0.00     0.065 C 
ATOM      8  C   UNN dAMED      -1.491  -0.390   0.094  0.00  0.00    -0.019 A 
ATOM      9  C   UNN dAMED      -2.241  -0.629  -1.057  0.00  0.00    -0.004 A 
ATOM     10  C   UNN dAMED      -3.623  -0.782  -0.974  0.00  0.00    -0.000 A 
ATOM     11  C   UNN dAMED      -4.259  -0.702   0.262  0.00  0.00    -0.000 A 
ATOM     12  C   UNN dAMED      -3.512  -0.476   1.416  0.00  0.00    -0.000 A 
ATOM     13  C   UNN dAMED      -2.130  -0.325   1.333  0.00  0.00    -0.004 A 
ATOM     14  C   UNN dAMED       0.510   1.132  -0.118  0.00  0.00    -0.019 A 
ATOM     15  C   UNN dAMED       0.757   1.676  -1.378  0.00  0.00    -0.004 A 
ATOM     16  C   UNN dAMED       1.270   2.966  -1.496  0.00  0.00    -0.000 A 
ATOM     17  C   UNN dAMED       1.546   3.712  -0.353  0.00  0.00    -0.000 A 
ATOM     18  C   UNN dAMED       1.312   3.168   0.908  0.00  0.00    -0.000 A 
ATOM     19  C   UNN dAMED       0.800   1.878   1.025  0.00  0.00    -0.004 A 
ENDROOT
TORSDOF 0
