REMARK  4 active torsions:
REMARK  status: ('A' for Active; 'I' for Inactive)
REMARK    1  A    between atoms: N_2  and  C_16 
REMARK    2  A    between atoms: C_11  and  O_14 
REMARK    3  A    between atoms: O_14  and  C_15 
REMARK    4  A    between atoms: C_15  and  C_16 
ROOT
ATOM      1  N   UNN dAMED      -0.460   0.361   0.123  0.00  0.00    -0.222 NA
ATOM      2  C   UNN dAMED      -2.457   1.636  -0.072  0.00  0.00     0.019 A 
ATOM      3  C   UNN dAMED      -3.846   1.715  -0.166  0.00  0.00     0.002 A 
ATOM      4  C   UNN dAMED      -1.800   0.415   0.002  0.00  0.00     0.084 A 
ATOM      5  C   UNN dAMED      -2.592  -0.751  -0.036  0.00  0.00     0.018 A 
ATOM      6  C   UNN dAMED      -4.610   0.557  -0.202  0.00  0.00     0.000 A 
ATOM      7  C   UNN dAMED      -1.968  -1.991   0.059  0.00  0.00     0.005 A 
ATOM      8  C   UNN dAMED       0.094  -0.867   0.238  0.00  0.00     0.178 A 
ATOM      9  C   UNN dAMED      -0.592  -2.064   0.213  0.00  0.00     0.044 A 
ATOM     10  C   UNN dAMED      -3.980  -0.681  -0.143  0.00  0.00     0.002 A 
ENDROOT
BRANCH   8  11
ATOM     11  O   UNN dAMED       1.450  -0.894   0.392  0.00  0.00    -0.308 OA
BRANCH  11  12
ATOM     12  C   UNN dAMED       1.834   0.423   0.102  0.00  0.00     0.195 C 
BRANCH  12  13
ATOM     13  C   UNN dAMED       3.268   0.926   0.381  0.00  0.00     0.078 C 
BRANCH  13  14
ATOM     14  N   UNN dAMED       4.371   0.052   0.570  0.00  0.00    -0.345 N 
ATOM     15  C   UNN dAMED       5.469  -0.817   0.757  0.00  0.00     0.126 A 
ATOM     16  C   UNN dAMED       4.484  -1.016  -0.394  0.00  0.00     0.126 A 
ENDBRANCH  13  14
ENDBRANCH  12  13
ENDBRANCH  11  12
ENDBRANCH   8  11
TORSDOF 4
