REMARK  5 active torsions:
REMARK  status: ('A' for Active; 'I' for Inactive)
REMARK    1  A    between atoms: C_2  and  O_20 
REMARK    2  A    between atoms: C_3  and  C_18 
REMARK    3  A    between atoms: C_8  and  O_13 
REMARK    4  A    between atoms: C_9  and  C_16 
REMARK    5  A    between atoms: C_16  and  C_18 
ROOT
ATOM      1  C   UNN dAMED      -0.578  -0.788  -1.059  0.00  0.00     0.234 C 
ATOM      2  O   UNN dAMED      -1.236  -0.308  -0.152  0.00  0.00    -0.283 OA
ENDROOT
BRANCH   1   3
ATOM      3  C   UNN dAMED      -0.979  -0.699  -2.459  0.00  0.00     0.044 A 
ATOM      4  C   UNN dAMED      -0.165  -0.026  -3.354  0.00  0.00     0.031 A 
ATOM      5  C   UNN dAMED      -0.548   0.025  -4.694  0.00  0.00     0.133 A 
ATOM      6  C   UNN dAMED      -1.729  -0.559  -5.204  0.00  0.00     0.218 A 
ATOM      7  C   UNN dAMED      -2.507  -1.211  -4.226  0.00  0.00     0.044 A 
ATOM      8  O   UNN dAMED      -2.085  -0.519  -6.428  0.00  0.00    -0.284 OA
ATOM      9  C   UNN dAMED      -2.157  -1.299  -2.876  0.00  0.00     0.007 A 
BRANCH   5  10
ATOM     10  O   UNN dAMED       0.308   0.691  -5.538  0.00  0.00    -0.325 OA
ATOM     11  C   UNN dAMED       0.727   1.810  -4.814  0.00  0.00     0.181 C 
ENDBRANCH   5  10
ENDBRANCH   1   3
BRANCH   1  12
ATOM     12  C   UNN dAMED       0.669  -1.546  -0.727  0.00  0.00     0.234 C 
ATOM     13  O   UNN dAMED       0.568  -2.756  -0.594  0.00  0.00    -0.283 OA
BRANCH  12  14
ATOM     14  C   UNN dAMED       1.945  -0.831  -0.575  0.00  0.00     0.044 A 
ATOM     15  C   UNN dAMED       1.986   0.535  -0.328  0.00  0.00     0.031 A 
ATOM     16  C   UNN dAMED       3.229   1.161  -0.170  0.00  0.00     0.133 A 
ATOM     17  C   UNN dAMED       4.467   0.485  -0.239  0.00  0.00     0.218 A 
ATOM     18  C   UNN dAMED       4.345  -0.894  -0.486  0.00  0.00     0.044 A 
ATOM     19  O   UNN dAMED       5.608   1.040  -0.097  0.00  0.00    -0.284 OA
ATOM     20  C   UNN dAMED       3.125  -1.554  -0.654  0.00  0.00     0.007 A 
BRANCH  16  21
ATOM     21  O   UNN dAMED       3.202   2.514   0.072  0.00  0.00    -0.325 OA
ATOM     22  C   UNN dAMED       4.520   2.854   0.390  0.00  0.00     0.181 C 
ENDBRANCH  16  21
ENDBRANCH  12  14
ENDBRANCH   1  12
TORSDOF 5
