REMARK  2 active torsions:
REMARK  status: ('A' for Active; 'I' for Inactive)
REMARK    1  A    between atoms: C_14  and  C_20 
REMARK    2  A    between atoms: C_15  and  C_20 
ROOT
ATOM      1  O   UNN dAMED      -2.431   2.091   1.561  0.00  0.00    -0.247 OA
ATOM      2  H   UNN dAMED      -3.982   0.680   0.164  0.00  0.00     0.174 HD
ATOM      3  N   UNN dAMED      -2.998   0.478   0.009  0.00  0.00    -0.265 N 
ATOM      4  H   UNN dAMED      -0.049   1.370   1.102  0.00  0.00     0.167 HD
ATOM      5  N   UNN dAMED      -0.751   0.893   0.546  0.00  0.00    -0.307 N 
ATOM      6  O   UNN dAMED      -3.574  -0.996  -1.678  0.00  0.00    -0.253 OA
ATOM      7  N   UNN dAMED      -1.349  -0.619  -1.225  0.00  0.00    -0.178 NA
ATOM      8  S   UNN dAMED      -0.178  -1.738   0.933  0.00  0.00    -0.100 SA
ATOM      9  C   UNN dAMED      -0.354  -0.284  -0.205  0.00  0.00     0.181 C 
ATOM     10  C   UNN dAMED      -2.082   1.210   0.774  0.00  0.00     0.326 C 
ATOM     11  C   UNN dAMED      -0.751  -2.819  -0.352  0.00  0.00     0.079 C 
ATOM     12  C   UNN dAMED      -1.154  -1.990  -1.557  0.00  0.00     0.096 C 
ATOM     13  C   UNN dAMED      -2.704  -0.433  -1.014  0.00  0.00     0.308 C 
ENDROOT
BRANCH   9  14
ATOM     14  C   UNN dAMED       0.995  -0.036  -0.930  0.00  0.00     0.020 C 
BRANCH  14  15
ATOM     15  C   UNN dAMED       2.310   0.273  -0.245  0.00  0.00    -0.000 A 
ATOM     16  C   UNN dAMED       3.255  -0.737  -0.075  0.00  0.00    -0.000 A 
ATOM     17  C   UNN dAMED       4.492  -0.447   0.495  0.00  0.00    -0.000 A 
ATOM     18  C   UNN dAMED       4.789   0.856   0.887  0.00  0.00    -0.000 A 
ATOM     19  C   UNN dAMED       3.851   1.869   0.705  0.00  0.00    -0.000 A 
ATOM     20  C   UNN dAMED       2.615   1.579   0.133  0.00  0.00    -0.000 A 
ENDBRANCH  14  15
ENDBRANCH   9  14
TORSDOF 2
