REMARK  8 active torsions:
REMARK  status: ('A' for Active; 'I' for Inactive)
REMARK    1  A    between atoms: O_1  and  C_4 
REMARK    2  A    between atoms: O_1  and  C_9 
REMARK    3  A    between atoms: C_5  and  N_30 
REMARK    4  A    between atoms: C_6  and  N_27 
REMARK    5  A    between atoms: C_12  and  N_26 
REMARK    6  A    between atoms: C_15  and  N_26 
REMARK    7  A    between atoms: C_17  and  N_23 
REMARK    8  A    between atoms: C_18  and  N_20 
ROOT
ATOM      1  C   UNN dAMED       3.162  -2.909  -1.059  0.00  0.00     0.026 A 
ATOM      2  C   UNN dAMED       2.399  -2.068  -0.255  0.00  0.00     0.100 A 
ATOM      3  C   UNN dAMED       2.519  -3.841  -1.878  0.00  0.00     0.021 A 
ATOM      4  C   UNN dAMED       1.017  -2.212  -0.208  0.00  0.00     0.026 A 
ATOM      5  C   UNN dAMED       1.125  -4.011  -1.863  0.00  0.00     0.082 A 
ATOM      6  C   UNN dAMED       0.396  -3.170  -1.010  0.00  0.00     0.021 A 
ENDROOT
BRANCH   2   7
ATOM      7  O   UNN dAMED       2.972  -1.193   0.637  0.00  0.00    -0.305 OA
BRANCH   7   8
ATOM      8  C   UNN dAMED       3.813  -0.246   0.102  0.00  0.00     0.122 A 
ATOM      9  C   UNN dAMED       3.379   0.623  -0.904  0.00  0.00     0.028 A 
ATOM     10  C   UNN dAMED       4.229   1.620  -1.386  0.00  0.00     0.026 A 
ATOM     11  C   UNN dAMED       5.492   1.761  -0.812  0.00  0.00     0.128 A 
ATOM     12  C   UNN dAMED       5.948   0.942   0.214  0.00  0.00     0.049 A 
ATOM     13  C   UNN dAMED       5.087  -0.058   0.650  0.00  0.00     0.151 A 
BRANCH  11  14
ATOM     14  N   UNN dAMED       6.364   2.797  -1.300  0.00  0.00    -0.114 N 
ATOM     15  O   UNN dAMED       7.490   2.452  -1.682  0.00  0.00    -0.532 OA
ATOM     16  O   UNN dAMED       5.925   3.954  -1.295  0.00  0.00    -0.532 OA
ENDBRANCH  11  14
BRANCH  13  17
ATOM     17  N   UNN dAMED       5.546  -0.890   1.729  0.00  0.00    -0.112 N 
ATOM     18  O   UNN dAMED       5.565  -0.384   2.858  0.00  0.00    -0.532 OA
ATOM     19  O   UNN dAMED       5.894  -2.042   1.439  0.00  0.00    -0.532 OA
ENDBRANCH  13  17
ENDBRANCH   7   8
ENDBRANCH   2   7
BRANCH   5  20
ATOM     20  N   UNN dAMED       0.443  -4.811  -2.716  0.00  0.00    -0.244 NA
BRANCH  20  21
ATOM     21  C   UNN dAMED       0.965  -6.039  -2.945  0.00  0.00     0.103 A 
ATOM     22  C   UNN dAMED       0.674  -7.102  -2.066  0.00  0.00     0.022 A 
ATOM     23  C   UNN dAMED       1.114  -8.407  -2.297  0.00  0.00     0.025 A 
ATOM     24  C   UNN dAMED       1.828  -8.661  -3.460  0.00  0.00     0.128 A 
ATOM     25  C   UNN dAMED       2.127  -7.676  -4.387  0.00  0.00     0.049 A 
ATOM     26  C   UNN dAMED       1.689  -6.380  -4.113  0.00  0.00     0.146 A 
BRANCH  24  27
ATOM     27  N   UNN dAMED       2.364  -9.974  -3.669  0.00  0.00    -0.114 N 
ATOM     28  O   UNN dAMED       1.611 -10.813  -4.179  0.00  0.00    -0.532 OA
ATOM     29  O   UNN dAMED       3.540 -10.158  -3.331  0.00  0.00    -0.532 OA
ENDBRANCH  24  27
BRANCH  26  30
ATOM     30  N   UNN dAMED       2.051  -5.377  -5.098  0.00  0.00    -0.112 N 
ATOM     31  O   UNN dAMED       3.240  -5.330  -5.440  0.00  0.00    -0.532 OA
ATOM     32  O   UNN dAMED       1.147  -4.659  -5.546  0.00  0.00    -0.532 OA
ENDBRANCH  26  30
ENDBRANCH  20  21
ENDBRANCH   5  20
TORSDOF 8
