REMARK  0 active torsions:
REMARK  status: ('A' for Active; 'I' for Inactive)
ROOT
ATOM      1  S   UNN dAMED      -0.493   0.987  -1.234  0.00  0.00    -0.065 SA
ATOM      2  N   UNN dAMED      -0.415  -0.646   0.750  0.00  0.00    -0.237 NA
ATOM      3  N   UNN dAMED       2.421   1.286  -0.155  0.00  0.00    -0.242 NA
ATOM      4  C   UNN dAMED      -3.296   0.696  -1.073  0.00  0.00     0.008 A 
ATOM      5  C   UNN dAMED      -1.996   0.403  -0.631  0.00  0.00     0.049 A 
ATOM      6  C   UNN dAMED      -4.365   0.083  -0.416  0.00  0.00     0.001 A 
ATOM      7  C   UNN dAMED      -1.754  -0.468   0.431  0.00  0.00     0.088 A 
ATOM      8  C   UNN dAMED      -4.150  -0.790   0.642  0.00  0.00     0.002 A 
ATOM      9  C   UNN dAMED      -2.853  -1.074   1.073  0.00  0.00     0.020 A 
ATOM     10  C   UNN dAMED       3.774   1.298  -0.090  0.00  0.00     0.099 A 
ATOM     11  C   UNN dAMED       4.554   0.180   0.152  0.00  0.00     0.021 A 
ATOM     12  C   UNN dAMED       3.899  -1.029   0.334  0.00  0.00     0.003 A 
ATOM     13  C   UNN dAMED       2.511  -1.088   0.261  0.00  0.00     0.021 A 
ATOM     14  C   UNN dAMED       1.813   0.086   0.009  0.00  0.00     0.105 A 
ATOM     15  C   UNN dAMED       0.351   0.072  -0.046  0.00  0.00     0.128 A 
ENDROOT
TORSDOF 0
