REMARK  3 active torsions:
REMARK  status: ('A' for Active; 'I' for Inactive)
REMARK    1  A    between atoms: P_6  and  O_8 
REMARK    2  A    between atoms: O_8  and  C_9 
REMARK    3  A    between atoms: O_10  and  C_12 
ROOT
ATOM      1  C   UNN dAMED      -1.556  -2.451  -3.587  0.00  0.00     0.151 C 
ATOM      2  C   UNN dAMED      -0.533  -1.969  -4.585  0.00  0.00     0.147 C 
ATOM      3  C   UNN dAMED      -1.704  -3.773  -3.432  0.00  0.00     0.176 C 
ATOM      4  N   UNN dAMED       0.016  -2.765  -5.385  0.00  0.00    -0.159 NA
ATOM      5  C   UNN dAMED      -1.078  -4.665  -4.447  0.00  0.00     0.304 C 
ATOM      6  O   UNN dAMED      -1.241  -5.883  -4.394  0.00  0.00    -0.263 OA
ATOM      7  N   UNN dAMED      -0.406  -4.034  -5.456  0.00  0.00    -0.201 N 
ATOM      8  C   UNN dAMED       0.533  -4.879  -6.104  0.00  0.00     0.042 C 
ATOM      9  C   UNN dAMED       0.264  -5.331  -7.540  0.00  0.00     0.042 C 
ATOM     10  C   UNN dAMED       2.006  -4.773  -5.715  0.00  0.00     0.042 C 
ATOM     11  C   UNN dAMED       1.221  -6.379  -8.117  0.00  0.00     0.006 C 
ATOM     12  C   UNN dAMED       2.952  -5.832  -6.292  0.00  0.00     0.006 C 
ATOM     13  C   UNN dAMED       2.696  -6.202  -7.752  0.00  0.00     0.001 C 
ENDROOT
BRANCH   1  14
ATOM     14  O   UNN dAMED      -2.173  -1.536  -2.765  0.00  0.00    -0.266 OA
BRANCH  14  15
ATOM     15  P   UNN dAMED      -2.147   0.058  -3.039  0.00  0.00     0.336 P 
ATOM     16  O   UNN dAMED      -3.230   0.312  -4.222  0.00  0.00    -0.295 OA
ATOM     17  C   UNN dAMED      -4.458  -0.140  -3.707  0.00  0.00     0.154 C 
ATOM     18  C   UNN dAMED      -5.707   0.694  -2.454  0.00  0.00     0.056 C 
ATOM     19  C   UNN dAMED      -4.082   1.177  -2.614  0.00  0.00     0.154 C 
ATOM     20  C   UNN dAMED      -4.491  -0.118  -3.674  0.00  0.00     0.005 C 
ATOM     21  C   UNN dAMED      -4.489  -0.111  -3.684  0.00  0.00     0.005 C 
ATOM     22  O   UNN dAMED      -3.073   0.605  -1.840  0.00  0.00    -0.295 OA
ATOM     23  S   UNN dAMED      -0.435   0.927  -3.275  0.00  0.00    -0.007 SA
ENDBRANCH  14  15
ENDBRANCH   1  14
BRANCH   3  24
ATOM     24  O   UNN dAMED      -2.458  -4.337  -2.436  0.00  0.00    -0.322 OA
ATOM     25  C   UNN dAMED      -2.843  -3.270  -1.623  0.00  0.00     0.182 C 
ENDBRANCH   3  24
TORSDOF 3
