REMARK  0 active torsions:
REMARK  status: ('A' for Active; 'I' for Inactive)
REMARK       I    between atoms: N_3  and  C_13 
ROOT
ATOM      1  N   UNN dAMED      -0.596  -1.509   0.592  0.00  0.00    -0.215 NA
ATOM      2  O   UNN dAMED       1.025   1.988  -0.782  0.00  0.00    -0.266 OA
ATOM      3  N   UNN dAMED       1.281  -0.203  -0.023  0.00  0.00    -0.219 N 
ATOM      4  C   UNN dAMED      -2.806  -0.574   0.375  0.00  0.00     0.019 A 
ATOM      5  C   UNN dAMED      -1.423  -0.432   0.242  0.00  0.00     0.089 A 
ATOM      6  C   UNN dAMED      -3.665   0.472   0.042  0.00  0.00     0.002 A 
ATOM      7  C   UNN dAMED      -0.914   0.780  -0.235  0.00  0.00     0.074 A 
ATOM      8  C   UNN dAMED      -3.144   1.675  -0.428  0.00  0.00     0.000 A 
ATOM      9  C   UNN dAMED      -1.766   1.833  -0.567  0.00  0.00     0.006 A 
ATOM     10  C   UNN dAMED       0.549   0.932  -0.377  0.00  0.00     0.270 A 
ATOM     11  C   UNN dAMED       0.684  -1.357   0.457  0.00  0.00     0.227 A 
ATOM     12  N   UNN dAMED       1.531  -2.446   0.809  0.00  0.00    -0.061 NA
ATOM     13  C   UNN dAMED       2.657  -0.183  -0.063  0.00  0.00     0.246 C 
ATOM     14  N   UNN dAMED       3.393  -0.117   1.154  0.00  0.00    -0.059 NA
ATOM     15  N   UNN dAMED       3.211  -0.737  -1.131  0.00  0.00    -0.112 N 
ENDROOT
TORSDOF 0
