REMARK  1 active torsions:
REMARK  status: ('A' for Active; 'I' for Inactive)
REMARK    1  A    between atoms: N_1  and  N_12 
ROOT
ATOM      1  N   UNN dAMED       1.836  -0.010   0.096  0.00  0.00    -0.164 N 
ATOM      2  N   UNN dAMED      -0.408   0.239   0.134  0.00  0.00    -0.257 N 
ATOM      3  O   UNN dAMED       0.500  -1.611  -0.951  0.00  0.00    -0.244 OA
ATOM      4  N   UNN dAMED      -2.430  -0.487  -0.934  0.00  0.00    -0.123 NA
ATOM      5  S   UNN dAMED      -2.667   0.980   1.155  0.00  0.00    -0.025 SA
ATOM      6  N   UNN dAMED      -3.792  -0.332  -0.736  0.00  0.00    -0.137 NA
ATOM      7  C   UNN dAMED       0.110   1.341   0.854  0.00  0.00     0.139 A 
ATOM      8  C   UNN dAMED       1.604   1.168   0.838  0.00  0.00     0.161 A 
ATOM      9  C   UNN dAMED      -4.038   0.411   0.319  0.00  0.00     0.161 A 
ATOM     10  C   UNN dAMED      -1.745   0.146  -0.010  0.00  0.00     0.201 A 
ATOM     11  C   UNN dAMED       0.631  -0.576  -0.305  0.00  0.00     0.352 A 
ENDROOT
BRANCH   1  12
ATOM     12  N   UNN dAMED       3.131  -0.392  -0.068  0.00  0.00    -0.032 N 
ATOM     13  O   UNN dAMED       3.904   0.168   0.708  0.00  0.00    -0.516 OA
ATOM     14  O   UNN dAMED       3.358  -1.190  -0.978  0.00  0.00    -0.516 OA
ENDBRANCH   1  12
TORSDOF 1
