REMARK  5 active torsions:
REMARK  status: ('A' for Active; 'I' for Inactive)
REMARK    1  A    between atoms: C_1  and  O_7 
REMARK    2  A    between atoms: C_4  and  C_14 
REMARK    3  A    between atoms: O_7  and  C_8 
REMARK    4  A    between atoms: C_15  and  C_16 
REMARK    5  A    between atoms: C_16  and  C_18 
ROOT
ATOM      1  C   UNN dAMED      -2.042  -0.533   0.218  0.00  0.00     0.100 A 
ATOM      2  C   UNN dAMED      -1.629   0.620  -0.446  0.00  0.00     0.025 A 
ATOM      3  C   UNN dAMED      -0.280   0.797  -0.718  0.00  0.00     0.002 A 
ATOM      4  C   UNN dAMED       0.637  -0.188  -0.353  0.00  0.00     0.000 A 
ATOM      5  C   UNN dAMED       0.220  -1.346   0.296  0.00  0.00     0.002 A 
ATOM      6  C   UNN dAMED      -1.131  -1.526   0.572  0.00  0.00     0.025 A 
ENDROOT
BRANCH   4   7
ATOM      7  C   UNN dAMED       2.014  -0.091  -0.914  0.00  0.00     0.003 C 
ATOM      8  C   UNN dAMED       2.401   1.105  -1.343  0.00  0.00     0.037 C 
BRANCH   8   9
ATOM      9  C   UNN dAMED       3.705   1.241  -2.055  0.00  0.00     0.172 C 
ATOM     10  O   UNN dAMED       3.693   1.486  -3.254  0.00  0.00    -0.291 OA
BRANCH   9  11
ATOM     11  C   UNN dAMED       4.940   0.821  -1.316  0.00  0.00     0.056 C 
ATOM     12  C   UNN dAMED       6.372   1.634  -2.142  0.00  0.00     0.008 C 
ATOM     13  C   UNN dAMED       6.374   1.635  -2.143  0.00  0.00     0.008 C 
ATOM     14  C   UNN dAMED       6.372   1.634  -2.142  0.00  0.00     0.008 C 
ENDBRANCH   9  11
ENDBRANCH   8   9
ENDBRANCH   4   7
BRANCH   1  15
ATOM     15  O   UNN dAMED      -3.386  -0.776   0.337  0.00  0.00    -0.307 OA
BRANCH  15  16
ATOM     16  C   UNN dAMED      -3.983  -0.413   1.522  0.00  0.00     0.100 A 
ATOM     17  C   UNN dAMED      -3.374   0.360   2.511  0.00  0.00     0.025 A 
ATOM     18  C   UNN dAMED      -4.068   0.665   3.679  0.00  0.00     0.002 A 
ATOM     19  C   UNN dAMED      -5.372   0.208   3.854  0.00  0.00     0.000 A 
ATOM     20  C   UNN dAMED      -5.990  -0.543   2.858  0.00  0.00     0.002 A 
ATOM     21  C   UNN dAMED      -5.296  -0.851   1.691  0.00  0.00     0.025 A 
ENDBRANCH  15  16
ENDBRANCH   1  15
TORSDOF 5
