REMARK  9 active torsions:
REMARK  status: ('A' for Active; 'I' for Inactive)
REMARK    1  A    between atoms: C_2  and  C_7 
REMARK    2  A    between atoms: C_4  and  C_18 
REMARK    3  A    between atoms: C_7  and  O_9 
REMARK    4  A    between atoms: O_9  and  C_10 
REMARK    5  A    between atoms: C_10  and  C_12 
REMARK    6  A    between atoms: C_12  and  C_13 
REMARK    7  A    between atoms: C_13  and  C_14 
REMARK    8  A    between atoms: C_14  and  C_15 
REMARK    9  A    between atoms: C_15  and  C_16 
ROOT
ATOM      1  C   UNN dAMED       0.993   0.753   0.618  0.00  0.00     0.296 C 
ATOM      2  O   UNN dAMED       0.775   0.501   1.788  0.00  0.00    -0.259 OA
ENDROOT
BRANCH   1   3
ATOM      3  C   UNN dAMED       1.677  -0.139  -0.314  0.00  0.00     0.069 A 
ATOM      4  C   UNN dAMED       0.909  -1.097  -0.973  0.00  0.00     0.005 A 
ATOM      5  C   UNN dAMED       1.526  -1.981  -1.855  0.00  0.00     0.000 A 
ATOM      6  C   UNN dAMED       2.901  -1.904  -2.071  0.00  0.00     0.000 A 
ATOM      7  C   UNN dAMED       3.664  -0.948  -1.402  0.00  0.00     0.006 A 
ATOM      8  C   UNN dAMED       3.060  -0.057  -0.512  0.00  0.00     0.070 A 
BRANCH   8   9
ATOM      9  C   UNN dAMED       3.905   0.936   0.202  0.00  0.00     0.211 C 
ATOM     10  O   UNN dAMED       4.252   0.632   1.384  0.00  0.00    -0.644 OA
ATOM     11  O   UNN dAMED       4.200   1.990  -0.438  0.00  0.00    -0.644 OA
ENDBRANCH   8   9
ENDBRANCH   1   3
BRANCH   1  12
ATOM     12  O   UNN dAMED       0.680   1.890  -0.037  0.00  0.00    -0.301 OA
BRANCH  12  13
ATOM     13  C   UNN dAMED       1.651   2.011  -1.035  0.00  0.00     0.125 C 
ATOM     14  C   UNN dAMED       3.060   1.456  -0.800  0.00  0.00     0.033 C 
BRANCH  13  15
ATOM     15  C   UNN dAMED       1.254   2.509  -2.428  0.00  0.00     0.030 C 
BRANCH  15  16
ATOM     16  C   UNN dAMED       1.215   1.534  -3.608  0.00  0.00     0.003 C 
BRANCH  16  17
ATOM     17  C   UNN dAMED       0.192   0.393  -3.627  0.00  0.00     0.000 C 
BRANCH  17  18
ATOM     18  C   UNN dAMED       0.303  -0.753  -2.616  0.00  0.00     0.000 C 
BRANCH  18  19
ATOM     19  C   UNN dAMED      -0.680  -1.926  -2.677  0.00  0.00     0.000 C 
ATOM     20  C   UNN dAMED      -0.329  -3.179  -3.487  0.00  0.00     0.000 C 
ENDBRANCH  18  19
ENDBRANCH  17  18
ENDBRANCH  16  17
ENDBRANCH  15  16
ENDBRANCH  13  15
ENDBRANCH  12  13
ENDBRANCH   1  12
TORSDOF 9
