REMARK  5 active torsions:
REMARK  status: ('A' for Active; 'I' for Inactive)
REMARK    1  A    between atoms: C_6  and  O_12 
REMARK    2  A    between atoms: C_7  and  C_16 
REMARK    3  A    between atoms: C_9  and  O_14 
REMARK    4  A    between atoms: C_16  and  O_18 
REMARK    5  A    between atoms: O_18  and  C_19 
ROOT
ATOM      1  O   UNN dAMED       0.206  -2.876  -0.812  0.00  0.00    -0.291 OA
ATOM      2  C   UNN dAMED       0.419  -1.735  -0.428  0.00  0.00     0.177 C 
ATOM      3  C   UNN dAMED       1.789  -1.405   0.070  0.00  0.00     0.097 C 
ATOM      4  C   UNN dAMED      -0.685  -0.799  -0.173  0.00  0.00     0.034 A 
ATOM      5  C   UNN dAMED      -1.987  -1.249  -0.397  0.00  0.00     0.029 A 
ATOM      6  C   UNN dAMED      -3.058  -0.413  -0.122  0.00  0.00     0.116 A 
ATOM      7  C   UNN dAMED       2.133   0.065   0.187  0.00  0.00     0.031 C 
ATOM      8  C   UNN dAMED      -0.439   0.492   0.304  0.00  0.00    -0.013 A 
ATOM      9  C   UNN dAMED      -2.831   0.867   0.364  0.00  0.00     0.116 A 
ATOM     10  C   UNN dAMED       0.968   0.968   0.599  0.00  0.00     0.054 C 
ATOM     11  C   UNN dAMED      -1.528   1.325   0.575  0.00  0.00     0.022 A 
ENDROOT
BRANCH   7  12
ATOM     12  C   UNN dAMED       3.575   0.437   0.417  0.00  0.00     0.288 C 
ATOM     13  O   UNN dAMED       3.930   0.716   1.555  0.00  0.00    -0.260 OA
BRANCH  12  14
ATOM     14  O   UNN dAMED       4.464   0.109  -0.562  0.00  0.00    -0.299 OA
BRANCH  14  15
ATOM     15  C   UNN dAMED       5.611  -0.323   0.110  0.00  0.00     0.152 C 
ATOM     16  C   UNN dAMED       5.490  -1.161   1.387  0.00  0.00     0.035 C 
ENDBRANCH  14  15
ENDBRANCH  12  14
ENDBRANCH   7  12
BRANCH   9  17
ATOM     17  O   UNN dAMED      -3.877   1.688   0.661  0.00  0.00    -0.326 OA
ATOM     18  C   UNN dAMED      -4.032   2.508  -0.460  0.00  0.00     0.181 C 
ENDBRANCH   9  17
BRANCH   6  19
ATOM     19  O   UNN dAMED      -4.315  -0.899  -0.319  0.00  0.00    -0.326 OA
ATOM     20  C   UNN dAMED      -5.178   0.180  -0.121  0.00  0.00     0.181 C 
ENDBRANCH   6  19
TORSDOF 5
