REMARK  12 active torsions:
REMARK  status: ('A' for Active; 'I' for Inactive)
REMARK    1  A    between atoms: C_6  and  C_8 
REMARK    2  A    between atoms: C_6  and  C_9 
REMARK    3  A    between atoms: C_7  and  C_8 
REMARK    4  A    between atoms: C_7  and  C_12 
REMARK    5  A    between atoms: C_8  and  C_20 
REMARK    6  A    between atoms: C_12  and  C_13 
REMARK    7  A    between atoms: C_13  and  C_14 
REMARK    8  A    between atoms: C_14  and  C_15 
REMARK    9  A    between atoms: C_15  and  C_16 
REMARK   10  A    between atoms: C_16  and  C_17 
REMARK   11  A    between atoms: C_17  and  C_18 
REMARK   12  A    between atoms: C_18  and  C_19 
ROOT
ATOM      1  C   UNN dAMED      -2.556  -0.272   0.233  0.00  0.00     0.123 C 
ENDROOT
BRANCH   1   2
ATOM      2  C   UNN dAMED      -3.330  -1.163   1.386  0.00  0.00     0.188 A 
ATOM      3  O   UNN dAMED      -4.056  -0.254   2.251  0.00  0.00    -0.296 OA
ATOM      4  C   UNN dAMED      -3.874   1.034   1.802  0.00  0.00     0.272 A 
ATOM      5  O   UNN dAMED      -4.368   2.023   2.321  0.00  0.00    -0.264 OA
ATOM      6  C   UNN dAMED      -2.990   1.168   0.601  0.00  0.00     0.099 A 
ATOM      7  C   UNN dAMED      -2.584  -0.241   0.267  0.00  0.00     0.049 A 
BRANCH   2   8
ATOM      8  C   UNN dAMED      -2.286  -1.881   2.222  0.00  0.00     0.212 C 
ATOM      9  O   UNN dAMED      -1.577  -1.150   2.966  0.00  0.00    -0.646 OA
ATOM     10  O   UNN dAMED      -2.244  -3.129   2.029  0.00  0.00    -0.646 OA
ENDBRANCH   2   8
ENDBRANCH   1   2
BRANCH   1  11
ATOM     11  C   UNN dAMED      -1.075   0.060   0.436  0.00  0.00     0.014 C 
BRANCH  11  12
ATOM     12  C   UNN dAMED      -0.003  -0.925  -0.043  0.00  0.00     0.001 C 
BRANCH  12  13
ATOM     13  C   UNN dAMED       0.158  -1.219  -1.539  0.00  0.00     0.000 C 
BRANCH  13  14
ATOM     14  C   UNN dAMED      -0.170  -2.612  -2.088  0.00  0.00     0.000 C 
BRANCH  14  15
ATOM     15  C   UNN dAMED      -0.547  -2.785  -3.563  0.00  0.00     0.000 C 
BRANCH  15  16
ATOM     16  C   UNN dAMED      -0.947  -4.165  -4.098  0.00  0.00     0.000 C 
BRANCH  16  17
ATOM     17  C   UNN dAMED      -1.234  -5.313  -3.125  0.00  0.00     0.000 C 
BRANCH  17  18
ATOM     18  C   UNN dAMED      -2.657  -5.537  -2.603  0.00  0.00     0.000 C 
BRANCH  18  19
ATOM     19  C   UNN dAMED      -3.027  -6.864  -1.931  0.00  0.00     0.000 C 
ATOM     20  C   UNN dAMED      -3.164  -8.137  -2.771  0.00  0.00     0.000 C 
ENDBRANCH  18  19
ENDBRANCH  17  18
ENDBRANCH  16  17
ENDBRANCH  15  16
ENDBRANCH  14  15
ENDBRANCH  13  14
ENDBRANCH  12  13
ENDBRANCH  11  12
ENDBRANCH   1  11
BRANCH   1  21
ATOM     21  C   UNN dAMED      -3.117  -0.228  -1.167  0.00  0.00     0.188 C 
ATOM     22  O   UNN dAMED      -3.415   0.918  -1.621  0.00  0.00    -0.647 OA
ATOM     23  O   UNN dAMED      -3.211  -1.336  -1.775  0.00  0.00    -0.647 OA
ENDBRANCH   1  21
TORSDOF 12
