REMARK  2 active torsions:
REMARK  status: ('A' for Active; 'I' for Inactive)
REMARK       I    between atoms: N_2  and  C_14 
REMARK    1  A    between atoms: C_6  and  N_16 
REMARK    2  A    between atoms: C_10  and  S_17 
REMARK       I    between atoms: C_14  and  N_16 
ROOT
ATOM      1  N   UNN dAMED      -3.864   1.954  -2.548  0.00  0.00     0.142 N 
ATOM      2  N   UNN dAMED      -1.845   1.180   0.159  0.00  0.00    -0.200 NA
ATOM      3  C   UNN dAMED      -2.842   0.314  -0.550  0.00  0.00     0.117 C 
ATOM      4  C   UNN dAMED      -4.050   0.889  -1.254  0.00  0.00     0.268 C 
ATOM      5  C   UNN dAMED      -2.982   0.413  -0.407  0.00  0.00     0.117 C 
ATOM      6  C   UNN dAMED      -4.122   1.126  -1.134  0.00  0.00     0.268 C 
ATOM      7  C   UNN dAMED      -4.051   0.886  -1.252  0.00  0.00     0.285 C 
ATOM      8  C   UNN dAMED      -1.324   0.386   1.188  0.00  0.00     0.325 C 
ATOM      9  O   UNN dAMED      -1.651   0.570   2.360  0.00  0.00    -0.251 OA
ATOM     10  N   UNN dAMED      -0.617  -0.637   0.681  0.00  0.00    -0.198 NA
ENDROOT
BRANCH  10  11
ATOM     11  C   UNN dAMED       0.450  -0.939   1.436  0.00  0.00     0.086 A 
ATOM     12  C   UNN dAMED       0.384  -1.966   2.400  0.00  0.00     0.019 A 
ATOM     13  C   UNN dAMED       1.461  -2.255   3.225  0.00  0.00     0.002 A 
ATOM     14  C   UNN dAMED       2.648  -1.529   3.104  0.00  0.00     0.006 A 
ATOM     15  C   UNN dAMED       2.742  -0.533   2.127  0.00  0.00     0.027 A 
ATOM     16  C   UNN dAMED       1.662  -0.253   1.316  0.00  0.00     0.025 A 
BRANCH  15  17
ATOM     17  S   UNN dAMED       4.265   0.366   1.936  0.00  0.00    -0.113 SA
ATOM     18  C   UNN dAMED       3.888   0.921   0.276  0.00  0.00     0.074 C 
ENDBRANCH  15  17
ENDBRANCH  10  11
TORSDOF 2
