REMARK  7 active torsions:
REMARK  status: ('A' for Active; 'I' for Inactive)
REMARK    1  A    between atoms: S_2  and  N_4 
REMARK    2  A    between atoms: S_2  and  C_22 
REMARK    3  A    between atoms: N_4  and  C_6 
REMARK    4  A    between atoms: S_5  and  C_6 
REMARK    5  A    between atoms: C_6  and  N_29 
REMARK    6  A    between atoms: C_9  and  C_10 
REMARK       I    between atoms: C_9  and  N_30 
REMARK    7  A    between atoms: N_29  and  N_30 
ROOT
ATOM      1  O   UNN dAMED       6.183  -0.177   2.325  0.00  0.00    -0.264 OA
ATOM      2  C   UNN dAMED       5.098   0.226   2.734  0.00  0.00     0.300 C 
ATOM      3  N   UNN dAMED       4.528   0.012   3.923  0.00  0.00    -0.103 NA
ENDROOT
BRANCH   2   4
ATOM      4  C   UNN dAMED       4.194   0.957   1.867  0.00  0.00     0.100 A 
ATOM      5  C   UNN dAMED       3.747   2.240   2.039  0.00  0.00     0.109 A 
ATOM      6  O   UNN dAMED       2.908   2.596   1.043  0.00  0.00    -0.215 OA
ATOM      7  C   UNN dAMED       4.047   3.099   3.230  0.00  0.00     0.061 C 
ATOM      8  N   UNN dAMED       2.802   1.542   0.148  0.00  0.00    -0.127 NA
ATOM      9  C   UNN dAMED       3.578   0.561   0.643  0.00  0.00     0.116 A 
ATOM     10  C   UNN dAMED       3.724  -0.708  -0.062  0.00  0.00     0.041 A 
ATOM     11  C   UNN dAMED       2.953  -1.829   0.287  0.00  0.00     0.060 A 
ATOM     12  C   UNN dAMED       4.649  -0.839  -1.112  0.00  0.00     0.060 A 
ATOM     13 CL   UNN dAMED       1.796  -1.805   1.569  0.00  0.00    -0.082 Cl
ATOM     14  C   UNN dAMED       3.086  -3.031  -0.413  0.00  0.00     0.011 A 
ATOM     15  C   UNN dAMED       3.987  -3.136  -1.466  0.00  0.00     0.002 A 
ATOM     16  C   UNN dAMED       4.776  -2.044  -1.806  0.00  0.00     0.011 A 
ATOM     17 CL   UNN dAMED       5.666   0.458  -1.628  0.00  0.00    -0.082 Cl
ENDBRANCH   2   4
BRANCH   3  18
ATOM     18  N   UNN dAMED       5.476   0.211   5.041  0.00  0.00    -0.118 NA
BRANCH  18  19
ATOM     19  C   UNN dAMED       5.439   1.458   5.501  0.00  0.00     0.222 C 
BRANCH  19  20
ATOM     20  N   UNN dAMED       6.180   2.363   4.946  0.00  0.00    -0.131 NA
BRANCH  20  21
ATOM     21  S   UNN dAMED       6.311   3.914   5.402  0.00  0.00     0.287 S 
ATOM     22  O   UNN dAMED       5.034   4.440   5.852  0.00  0.00    -0.198 OA
ATOM     23  O   UNN dAMED       7.061   4.635   4.388  0.00  0.00    -0.198 OA
BRANCH  21  24
ATOM     24  C   UNN dAMED       7.379   3.888   6.803  0.00  0.00     0.105 A 
ATOM     25  C   UNN dAMED       7.183   4.837   7.801  0.00  0.00     0.013 A 
ATOM     26  C   UNN dAMED       8.087   4.905   8.854  0.00  0.00     0.001 A 
ATOM     27  C   UNN dAMED       9.182   4.042   8.889  0.00  0.00     0.000 A 
ATOM     28  C   UNN dAMED       9.384   3.117   7.864  0.00  0.00     0.001 A 
ATOM     29  C   UNN dAMED       8.485   3.043   6.805  0.00  0.00     0.013 A 
ENDBRANCH  21  24
ENDBRANCH  20  21
ENDBRANCH  19  20
BRANCH  19  30
ATOM     30  S   UNN dAMED       4.425   1.621   6.919  0.00  0.00    -0.072 SA
ATOM     31  C   UNN dAMED       3.131   2.536   6.082  0.00  0.00     0.077 C 
ENDBRANCH  19  30
ENDBRANCH  18  19
ENDBRANCH   3  18
TORSDOF 7
