REMARK  1 active torsions:
REMARK  status: ('A' for Active; 'I' for Inactive)
REMARK    1  A    between atoms: C_13  and  N_16 
ROOT
ATOM      1  N   UNN dAMED      -1.154   3.835  -3.653  0.00  0.00    -0.205 NA
ATOM      2  N   UNN dAMED      -1.709   3.017  -1.424  0.00  0.00    -0.211 NA
ATOM      3  N   UNN dAMED      -0.604   0.916  -0.948  0.00  0.00    -0.113 NA
ATOM      4  N   UNN dAMED       0.070  -0.056  -1.582  0.00  0.00    -0.186 NA
ATOM      5  O   UNN dAMED      -1.719  -0.312   0.843  0.00  0.00    -0.339 OA
ATOM      6  C   UNN dAMED      -4.143  -0.952   0.708  0.00  0.00     0.032 C 
ATOM      7  C   UNN dAMED      -4.317  -0.172  -0.587  0.00  0.00     0.007 C 
ATOM      8  C   UNN dAMED      -2.920  -0.532   1.524  0.00  0.00     0.144 C 
ATOM      9  C   UNN dAMED      -2.996   0.112  -1.294  0.00  0.00     0.049 C 
ATOM     10  C   UNN dAMED      -1.791   0.375  -0.378  0.00  0.00     0.201 C 
ATOM     11  C   UNN dAMED      -0.932   1.971  -1.743  0.00  0.00     0.147 A 
ATOM     12  C   UNN dAMED      -0.262   1.758  -2.937  0.00  0.00     0.086 A 
ATOM     13  C   UNN dAMED      -0.387   2.747  -3.912  0.00  0.00     0.164 A 
ATOM     14  C   UNN dAMED       0.359   0.501  -2.764  0.00  0.00     0.120 C 
ATOM     15  C   UNN dAMED      -1.764   3.899  -2.445  0.00  0.00     0.201 A 
ENDROOT
BRANCH  13  16
ATOM     16  N   UNN dAMED       0.219   2.643  -5.098  0.00  0.00    -0.251 NA
ATOM     17  C   UNN dAMED       1.111   1.526  -5.362  0.00  0.00     0.154 C 
ENDBRANCH  13  16
TORSDOF 1
