REMARK  4 active torsions:
REMARK  status: ('A' for Active; 'I' for Inactive)
REMARK    1  A    between atoms: O_1  and  C_4 
REMARK    2  A    between atoms: O_1  and  C_15 
REMARK    3  A    between atoms: C_5  and  N_17 
REMARK    4  A    between atoms: C_9  and  C_15 
ROOT
ATOM      1  O   UNN dAMED      -0.292   0.040  -0.216  0.00  0.00    -0.273 OA
ENDROOT
BRANCH   1   2
ATOM      2  C   UNN dAMED       1.111   0.024  -0.238  0.00  0.00     0.103 A 
ATOM      3  C   UNN dAMED       1.763   0.052   0.999  0.00  0.00     0.026 A 
ATOM      4  C   UNN dAMED       3.152   0.130   1.042  0.00  0.00     0.026 A 
ATOM      5  C   UNN dAMED       3.845   0.210  -0.163  0.00  0.00     0.127 A 
ATOM      6  C   UNN dAMED       3.204   0.217  -1.403  0.00  0.00     0.026 A 
ATOM      7  C   UNN dAMED       1.815   0.134  -1.439  0.00  0.00     0.026 A 
BRANCH   5   8
ATOM      8  N   UNN dAMED       5.284   0.280  -0.134  0.00  0.00    -0.114 N 
ATOM      9  O   UNN dAMED       5.903  -0.540  -0.824  0.00  0.00    -0.532 OA
ATOM     10  O   UNN dAMED       5.794   1.161   0.571  0.00  0.00    -0.532 OA
ENDBRANCH   5   8
ENDBRANCH   1   2
BRANCH   1  11
ATOM     11  C   UNN dAMED      -0.869  -0.986  -0.936  0.00  0.00     0.300 C 
ATOM     12  O   UNN dAMED      -1.436  -0.862  -2.009  0.00  0.00    -0.259 OA
BRANCH  11  13
ATOM     13  C   UNN dAMED      -0.884  -2.232  -0.164  0.00  0.00     0.064 A 
ATOM     14  C   UNN dAMED      -0.212  -3.335  -0.683  0.00  0.00     0.006 A 
ATOM     15  C   UNN dAMED      -0.194  -4.521   0.044  0.00  0.00     0.014 A 
ATOM     16  C   UNN dAMED      -0.842  -4.589   1.277  0.00  0.00     0.070 A 
ATOM     17  C   UNN dAMED      -1.533  -3.485   1.776  0.00  0.00     0.014 A 
ATOM     18  N   UNN dAMED      -0.800  -5.797   2.029  0.00  0.00    -0.101 NA
ATOM     19  C   UNN dAMED      -1.565  -2.298   1.050  0.00  0.00     0.006 A 
ENDBRANCH  11  13
ENDBRANCH   1  11
TORSDOF 4
