REMARK  4 active torsions:
REMARK  status: ('A' for Active; 'I' for Inactive)
REMARK    1  A    between atoms: C_12  and  C_25 
REMARK    2  A    between atoms: C_17  and  N_26 
REMARK    3  A    between atoms: C_22  and  O_23 
REMARK    4  A    between atoms: C_25  and  N_26 
ROOT
ATOM      1 CL   UNN dAMED      -4.933   3.566   1.912  0.00  0.00    -0.079 Cl
ATOM      2  C   UNN dAMED      -5.267   1.175   0.571  0.00  0.00     0.217 A 
ATOM      3  C   UNN dAMED      -4.355   2.125   1.115  0.00  0.00     0.099 A 
ATOM      4  C   UNN dAMED      -2.950   2.014   1.080  0.00  0.00     0.039 A 
ATOM      5  C   UNN dAMED      -4.631   0.057  -0.034  0.00  0.00     0.099 A 
ATOM      6 CL   UNN dAMED      -5.501  -1.237  -0.776  0.00  0.00    -0.079 Cl
ATOM      7  C   UNN dAMED      -2.441   0.879   0.465  0.00  0.00     0.102 A 
ATOM      8  C   UNN dAMED      -3.235  -0.111  -0.095  0.00  0.00     0.035 A 
ATOM      9  O   UNN dAMED      -1.116   0.575   0.341  0.00  0.00    -0.307 OA
ATOM     10  C   UNN dAMED      -1.020  -0.640  -0.297  0.00  0.00     0.100 A 
ATOM     11  C   UNN dAMED      -2.308  -1.041  -0.581  0.00  0.00     0.004 A 
ATOM     12  C   UNN dAMED       0.186  -1.328  -0.585  0.00  0.00     0.076 C 
ATOM     13  C   UNN dAMED      -2.543  -2.399  -1.147  0.00  0.00     0.037 C 
ATOM     14  C   UNN dAMED      -1.302  -3.043  -1.777  0.00  0.00     0.074 C 
ATOM     15  C   UNN dAMED       0.060  -2.665  -1.235  0.00  0.00     0.177 C 
ATOM     16  O   UNN dAMED       1.016  -3.371  -1.515  0.00  0.00    -0.291 OA
ATOM     17  O   UNN dAMED      -6.539   1.311   0.619  0.00  0.00    -0.285 OA
ENDROOT
BRANCH  12  18
ATOM     18  C   UNN dAMED       1.344  -0.724  -0.280  0.00  0.00     0.104 C 
BRANCH  18  19
ATOM     19  N   UNN dAMED       2.685  -1.199  -0.622  0.00  0.00    -0.244 NA
BRANCH  19  20
ATOM     20  C   UNN dAMED       3.261  -0.832  -1.779  0.00  0.00     0.082 A 
ATOM     21  C   UNN dAMED       4.450  -1.429  -2.210  0.00  0.00     0.021 A 
ATOM     22  C   UNN dAMED       5.034  -1.082  -3.427  0.00  0.00     0.026 A 
ATOM     23  C   UNN dAMED       4.416  -0.128  -4.223  0.00  0.00     0.094 A 
ATOM     24  C   UNN dAMED       3.239   0.488  -3.825  0.00  0.00     0.026 A 
ATOM     25  C   UNN dAMED       2.670   0.132  -2.604  0.00  0.00     0.021 A 
BRANCH  23  26
ATOM     26  O   UNN dAMED       4.976   0.209  -5.418  0.00  0.00    -0.328 OA
ATOM     27  C   UNN dAMED       4.003   0.963  -6.078  0.00  0.00     0.181 C 
ENDBRANCH  23  26
ENDBRANCH  19  20
ENDBRANCH  18  19
ENDBRANCH  12  18
TORSDOF 4
