REMARK  3 active torsions:
REMARK  status: ('A' for Active; 'I' for Inactive)
REMARK    1  A    between atoms: C_11  and  S_12 
REMARK    2  A    between atoms: S_12  and  C_13 
REMARK    3  A    between atoms: C_13  and  C_14 
ROOT
ATOM      1  C   UNN dAMED      -4.545   0.676  -0.499  0.00  0.00     0.008 A 
ATOM      2  C   UNN dAMED      -4.609   0.049   0.714  0.00  0.00     0.035 A 
ATOM      3  S   UNN dAMED      -3.104  -0.512   1.255  0.00  0.00    -0.083 SA
ATOM      4  C   UNN dAMED      -2.315   0.104  -0.144  0.00  0.00     0.065 A 
ATOM      5  C   UNN dAMED      -3.219   0.706  -0.991  0.00  0.00     0.010 A 
ATOM      6  C   UNN dAMED      -0.907  -0.038  -0.327  0.00  0.00     0.170 A 
ATOM      7  N   UNN dAMED      -0.019  -0.239   0.628  0.00  0.00    -0.128 NA
ATOM      8  N   UNN dAMED      -0.263  -0.005  -1.538  0.00  0.00    -0.316 N 
ATOM      9  H   UNN dAMED      -0.673   0.151  -2.451  0.00  0.00     0.169 HD
ATOM     10  N   UNN dAMED       1.218  -0.384   0.037  0.00  0.00    -0.122 NA
ATOM     11  C   UNN dAMED       1.046  -0.252  -1.255  0.00  0.00     0.190 A 
ENDROOT
BRANCH  11  12
ATOM     12  S   UNN dAMED       2.236  -0.376  -2.487  0.00  0.00    -0.071 SA
BRANCH  12  13
ATOM     13  C   UNN dAMED       3.616  -0.401  -1.346  0.00  0.00     0.091 C 
BRANCH  13  14
ATOM     14  C   UNN dAMED       3.568  -1.302  -0.107  0.00  0.00    -0.014 C 
ATOM     15  C   UNN dAMED       3.606  -2.626  -0.246  0.00  0.00    -0.004 C 
ENDBRANCH  13  14
ENDBRANCH  12  13
ENDBRANCH  11  12
TORSDOF 3
