REMARK  4 active torsions:
REMARK  status: ('A' for Active; 'I' for Inactive)
REMARK    1  A    between atoms: C_8  and  O_9 
REMARK    2  A    between atoms: O_9  and  C_10 
REMARK    3  A    between atoms: C_10  and  C_12 
REMARK    4  A    between atoms: C_17  and  O_18 
ROOT
ATOM      1  C   UNN dAMED      -0.258  -0.120   1.425  0.00  0.00     0.300 C 
ATOM      2  O   UNN dAMED      -0.909  -0.722   2.266  0.00  0.00    -0.259 OA
ENDROOT
BRANCH   1   3
ATOM      3  O   UNN dAMED      -0.672   0.347   0.213  0.00  0.00    -0.269 OA
BRANCH   3   4
ATOM      4  C   UNN dAMED      -2.017   0.044   0.024  0.00  0.00     0.153 C 
ATOM      5  C   UNN dAMED      -3.021   1.067   0.376  0.00  0.00     0.260 C 
ATOM      6  N   UNN dAMED      -4.294   0.573   0.515  0.00  0.00    -0.221 NA
ATOM      7  O   UNN dAMED      -2.691   2.221   0.631  0.00  0.00    -0.271 OA
ATOM      8  C   UNN dAMED      -4.641  -0.317  -0.543  0.00  0.00     0.050 C 
ATOM      9  H   UNN dAMED      -5.080   1.185   0.703  0.00  0.00     0.137 HD
ATOM     10  C   UNN dAMED      -3.793  -1.257  -0.945  0.00  0.00     0.015 C 
ATOM     11  C   UNN dAMED      -2.386  -1.163  -0.392  0.00  0.00     0.030 C 
ENDBRANCH   3   4
ENDBRANCH   1   3
BRANCH   1  12
ATOM     12  C   UNN dAMED       1.153   0.249   1.633  0.00  0.00     0.064 A 
ATOM     13  C   UNN dAMED       1.675   0.134   2.923  0.00  0.00     0.007 A 
ATOM     14  C   UNN dAMED       3.008   0.451   3.165  0.00  0.00     0.024 A 
ATOM     15  C   UNN dAMED       3.801   0.886   2.110  0.00  0.00     0.094 A 
ATOM     16  C   UNN dAMED       3.296   1.004   0.821  0.00  0.00     0.024 A 
ATOM     17  C   UNN dAMED       1.965   0.676   0.580  0.00  0.00     0.007 A 
BRANCH  15  18
ATOM     18  O   UNN dAMED       5.105   1.204   2.347  0.00  0.00    -0.328 OA
ATOM     19  C   UNN dAMED       5.345   2.350   1.586  0.00  0.00     0.181 C 
ENDBRANCH  15  18
ENDBRANCH   1  12
TORSDOF 4
