REMARK  2 active torsions:
REMARK  status: ('A' for Active; 'I' for Inactive)
REMARK    1  A    between atoms: C_7  and  O_9 
REMARK    2  A    between atoms: O_9  and  C_11 
REMARK       I    between atoms: C_11  and  N_13 
ROOT
ATOM      1  C   UNN dAMED      -2.865  -0.579  -0.186  0.00  0.00     0.063 A 
ATOM      2  C   UNN dAMED      -2.822   0.722   0.103  0.00  0.00     0.076 A 
ATOM      3  C   UNN dAMED      -1.588  -1.359  -0.358  0.00  0.00     0.221 A 
ATOM      4  O   UNN dAMED      -1.654  -2.535  -0.688  0.00  0.00    -0.284 OA
ATOM      5  N   UNN dAMED      -1.541   1.354   0.347  0.00  0.00    -0.354 N 
ATOM      6  H   UNN dAMED      -1.413   2.351   0.489  0.00  0.00     0.166 HD
ATOM      7  C   UNN dAMED      -0.307  -0.658  -0.119  0.00  0.00     0.155 A 
ATOM      8  C   UNN dAMED      -0.375   0.647   0.175  0.00  0.00     0.060 A 
ATOM      9  C   UNN dAMED       0.921   1.394   0.333  0.00  0.00     0.052 C 
ENDROOT
BRANCH   7  10
ATOM     10  O   UNN dAMED       0.905  -1.304  -0.390  0.00  0.00    -0.254 OA
BRANCH  10  11
ATOM     11  C   UNN dAMED       1.267  -2.279   0.511  0.00  0.00     0.388 C 
ATOM     12  O   UNN dAMED       0.534  -2.741   1.378  0.00  0.00    -0.236 OA
ATOM     13  N   UNN dAMED       2.508  -2.674   0.255  0.00  0.00    -0.210 NA
ATOM     14  C   UNN dAMED       3.146  -2.282  -0.991  0.00  0.00     0.158 C 
ENDBRANCH  10  11
ENDBRANCH   7  10
TORSDOF 2
