REMARK  5 active torsions:
REMARK  status: ('A' for Active; 'I' for Inactive)
REMARK    1  A    between atoms: C_13  and  C_23 
REMARK    2  A    between atoms: C_14  and  N_24 
REMARK    3  A    between atoms: C_17  and  C_21 
REMARK    4  A    between atoms: C_21  and  C_22 
REMARK    5  A    between atoms: C_22  and  C_23 
ROOT
ATOM      1  O   UNN dAMED      -6.591  -0.341   1.842  0.00  0.00    -0.246 OA
ATOM      2  N   UNN dAMED      -5.625   0.522  -0.094  0.00  0.00    -0.246 N 
ATOM      3  O   UNN dAMED      -4.864   0.951  -2.250  0.00  0.00    -0.265 OA
ATOM      4  N   UNN dAMED      -4.293  -0.442   1.557  0.00  0.00    -0.263 N 
ATOM      5  N   UNN dAMED      -2.185  -0.071  -1.191  0.00  0.00    -0.336 N 
ATOM      6  H   UNN dAMED      -1.929   0.191  -2.134  0.00  0.00     0.167 HD
ATOM      7  N   UNN dAMED      -1.976  -0.892   0.890  0.00  0.00    -0.214 NA
ATOM      8  C   UNN dAMED      -4.656   0.581  -1.101  0.00  0.00     0.283 C 
ATOM      9  C   UNN dAMED      -3.406   0.074  -0.599  0.00  0.00     0.149 A 
ATOM     10  C   UNN dAMED      -3.240  -0.430   0.675  0.00  0.00     0.169 A 
ATOM     11  C   UNN dAMED      -1.372  -0.650  -0.254  0.00  0.00     0.119 A 
ATOM     12  C   UNN dAMED      -5.588  -0.099   1.173  0.00  0.00     0.335 C 
ATOM     13  C   UNN dAMED      -6.945   0.653  -0.597  0.00  0.00     0.139 C 
ATOM     14  C   UNN dAMED      -4.240  -1.494   2.507  0.00  0.00     0.137 C 
ENDROOT
BRANCH  11  15
ATOM     15  C   UNN dAMED       0.074  -0.965  -0.498  0.00  0.00     0.064 C 
BRANCH  15  16
ATOM     16  C   UNN dAMED       0.714  -0.643  -1.853  0.00  0.00     0.013 C 
BRANCH  16  17
ATOM     17  C   UNN dAMED       0.340   0.644  -2.594  0.00  0.00     0.027 C 
BRANCH  17  18
ATOM     18  C   UNN dAMED       1.000   0.974  -3.903  0.00  0.00    -0.022 A 
ATOM     19  C   UNN dAMED       0.454   0.493  -5.095  0.00  0.00    -0.003 A 
ATOM     20  C   UNN dAMED       1.065   0.783  -6.311  0.00  0.00     0.023 A 
ATOM     21  C   UNN dAMED       2.220   1.557  -6.292  0.00  0.00     0.127 A 
ATOM     22  C   UNN dAMED       2.787   2.050  -5.123  0.00  0.00     0.023 A 
ATOM     23  C   UNN dAMED       2.163   1.749  -3.916  0.00  0.00    -0.003 A 
BRANCH  21  24
ATOM     24  N   UNN dAMED       2.858   1.859  -7.539  0.00  0.00    -0.114 N 
ATOM     25  O   UNN dAMED       2.474   2.874  -8.133  0.00  0.00    -0.532 OA
ATOM     26  O   UNN dAMED       3.741   1.081  -7.919  0.00  0.00    -0.532 OA
ENDBRANCH  21  24
ENDBRANCH  17  18
ENDBRANCH  16  17
ENDBRANCH  15  16
ENDBRANCH  11  15
TORSDOF 5
