REMARK  2 active torsions:
REMARK  status: ('A' for Active; 'I' for Inactive)
REMARK       I    between atoms: C_10  and  N_19 
REMARK       I    between atoms: C_10  and  N_20 
REMARK    1  A    between atoms: C_12  and  N_20 
REMARK    2  A    between atoms: C_18  and  N_21 
ROOT
ATOM      1  C   UNN dAMED      -6.479   0.132   1.521  0.00  0.00     0.002 A 
ATOM      2  C   UNN dAMED      -6.982   0.656   0.338  0.00  0.00     0.001 A 
ATOM      3  C   UNN dAMED      -5.144  -0.268   1.609  0.00  0.00     0.020 A 
ATOM      4  C   UNN dAMED      -6.169   0.805  -0.787  0.00  0.00     0.008 A 
ATOM      5  C   UNN dAMED      -4.303  -0.141   0.485  0.00  0.00     0.090 A 
ATOM      6  C   UNN dAMED      -4.831   0.397  -0.688  0.00  0.00     0.050 A 
ATOM      7  S   UNN dAMED      -3.599   0.458  -1.887  0.00  0.00    -0.047 SA
ATOM      8  N   UNN dAMED      -2.965  -0.507   0.412  0.00  0.00    -0.221 NA
ATOM      9  C   UNN dAMED      -2.489  -0.271  -0.792  0.00  0.00     0.199 A 
ATOM     10  C   UNN dAMED      -0.948  -1.693  -1.712  0.00  0.00     0.370 C 
ATOM     11  O   UNN dAMED      -1.710  -2.659  -1.705  0.00  0.00    -0.242 OA
ATOM     12  N   UNN dAMED      -1.204  -0.470  -1.176  0.00  0.00    -0.166 NA
ATOM     13  N   UNN dAMED       0.325  -1.674  -2.188  0.00  0.00    -0.190 NA
ENDROOT
BRANCH  13  14
ATOM     14  C   UNN dAMED       0.721  -2.744  -2.922  0.00  0.00     0.097 A 
ATOM     15  C   UNN dAMED       0.976  -3.976  -2.287  0.00  0.00     0.022 A 
ATOM     16  C   UNN dAMED       1.522  -5.070  -2.959  0.00  0.00     0.025 A 
ATOM     17  C   UNN dAMED       1.826  -4.924  -4.303  0.00  0.00     0.128 A 
ATOM     18  C   UNN dAMED       1.606  -3.737  -4.988  0.00  0.00     0.036 A 
ATOM     19  C   UNN dAMED       1.065  -2.652  -4.290  0.00  0.00     0.077 A 
ATOM     20 CL   UNN dAMED       0.915  -1.174  -5.176  0.00  0.00    -0.081 Cl
BRANCH  17  21
ATOM     21  N   UNN dAMED       2.416  -6.033  -5.005  0.00  0.00    -0.114 N 
ATOM     22  O   UNN dAMED       1.777  -7.093  -5.022  0.00  0.00    -0.532 OA
ATOM     23  O   UNN dAMED       3.519  -5.845  -5.535  0.00  0.00    -0.532 OA
ENDBRANCH  17  21
ENDBRANCH  13  14
TORSDOF 2
