REMARK  3 active torsions:
REMARK  status: ('A' for Active; 'I' for Inactive)
REMARK    1  A    between atoms: C_8  and  C_17 
REMARK    2  A    between atoms: C_14  and  S_18 
REMARK    3  A    between atoms: C_17  and  S_18 
ROOT
ATOM      1  C   UNN dAMED      -0.539  -0.244   0.014  0.00  0.00     0.091 C 
ENDROOT
BRANCH   1   2
ATOM      2  C   UNN dAMED      -2.045  -0.296   0.059  0.00  0.00    -0.000 A 
ATOM      3  C   UNN dAMED      -2.686  -1.122   0.982  0.00  0.00    -0.002 A 
ATOM      4  C   UNN dAMED      -4.078  -1.137   1.056  0.00  0.00     0.011 A 
ATOM      5  C   UNN dAMED      -4.823  -0.329   0.202  0.00  0.00     0.059 A 
ATOM      6 CL   UNN dAMED      -6.535  -0.327   0.313  0.00  0.00    -0.082 Cl
ATOM      7  C   UNN dAMED      -4.194   0.486  -0.733  0.00  0.00     0.022 A 
ATOM      8  C   UNN dAMED      -2.804   0.493  -0.802  0.00  0.00     0.056 A 
ATOM      9 CL   UNN dAMED      -2.026   1.495  -1.957  0.00  0.00    -0.083 Cl
ENDBRANCH   1   2
BRANCH   1  10
ATOM     10  S   UNN dAMED       0.370   0.953   0.998  0.00  0.00    -0.090 SA
BRANCH  10  11
ATOM     11  C   UNN dAMED       1.786  -0.047   1.211  0.00  0.00     0.112 C 
ATOM     12  N   UNN dAMED       2.858   0.467   1.712  0.00  0.00    -0.191 NA
ATOM     13  C   UNN dAMED       3.949  -0.357   1.905  0.00  0.00     0.325 C 
ATOM     14  N   UNN dAMED       4.076  -1.488   1.114  0.00  0.00    -0.206 NA
ATOM     15  O   UNN dAMED       4.851  -0.058   2.690  0.00  0.00    -0.251 OA
ATOM     16  C   UNN dAMED       2.845  -2.200   1.079  0.00  0.00     0.053 C 
ATOM     17  H   UNN dAMED       4.837  -2.145   1.245  0.00  0.00     0.138 HD
ATOM     18  C   UNN dAMED       1.702  -1.526   1.034  0.00  0.00     0.038 C 
ENDBRANCH  10  11
ENDBRANCH   1  10
TORSDOF 3
