REMARK  4 active torsions:
REMARK  status: ('A' for Active; 'I' for Inactive)
REMARK    1  A    between atoms: C_7  and  O_20 
REMARK    2  A    between atoms: C_8  and  C_26 
REMARK    3  A    between atoms: C_10  and  C_25 
REMARK    4  A    between atoms: C_14  and  O_19 
ROOT
ATOM      1  C   UNN dAMED      -0.261  -0.296   0.235  0.00  0.00     0.000 C 
ATOM      2  C   UNN dAMED      -0.007   0.991   0.465  0.00  0.00     0.000 C 
ENDROOT
BRANCH   1   3
ATOM      3  C   UNN dAMED      -1.634  -0.856   0.481  0.00  0.00     0.003 A 
ATOM      4  C   UNN dAMED      -2.757  -0.145   0.088  0.00  0.00     0.021 A 
ATOM      5  C   UNN dAMED      -3.990  -0.713   0.350  0.00  0.00     0.099 A 
ATOM      6  N   UNN dAMED      -4.169  -1.906   0.964  0.00  0.00    -0.244 NA
ATOM      7  C   UNN dAMED      -3.073  -2.589   1.339  0.00  0.00     0.082 A 
ATOM      8  C   UNN dAMED      -1.776  -2.091   1.107  0.00  0.00     0.020 A 
ATOM      9  C   UNN dAMED      -3.192  -3.822   1.970  0.00  0.00     0.021 A 
ATOM     10  C   UNN dAMED      -0.647  -2.817   1.485  0.00  0.00     0.026 A 
ATOM     11  C   UNN dAMED      -0.811  -4.048   2.101  0.00  0.00     0.094 A 
ATOM     12  C   UNN dAMED      -2.073  -4.560   2.354  0.00  0.00     0.026 A 
BRANCH  11  13
ATOM     13  O   UNN dAMED       0.290  -4.774   2.441  0.00  0.00    -0.328 OA
ATOM     14  C   UNN dAMED       1.290  -4.348   1.562  0.00  0.00     0.181 C 
ENDBRANCH  11  13
ENDBRANCH   1   3
BRANCH   2  15
ATOM     15  C   UNN dAMED       1.371   1.536   0.215  0.00  0.00     0.003 A 
ATOM     16  C   UNN dAMED       1.614   2.896   0.325  0.00  0.00     0.021 A 
ATOM     17  C   UNN dAMED       2.896   3.333   0.046  0.00  0.00     0.099 A 
ATOM     18  N   UNN dAMED       3.917   2.526  -0.329  0.00  0.00    -0.244 NA
ATOM     19  C   UNN dAMED       3.670   1.208  -0.430  0.00  0.00     0.082 A 
ATOM     20  C   UNN dAMED       4.675   0.328  -0.813  0.00  0.00     0.021 A 
ATOM     21  C   UNN dAMED       2.396   0.672  -0.159  0.00  0.00     0.020 A 
ATOM     22  C   UNN dAMED       4.446  -1.043  -0.926  0.00  0.00     0.026 A 
ATOM     23  C   UNN dAMED       3.183  -1.540  -0.647  0.00  0.00     0.094 A 
ATOM     24  C   UNN dAMED       2.151  -0.696  -0.264  0.00  0.00     0.026 A 
BRANCH  23  25
ATOM     25  O   UNN dAMED       2.947  -2.877  -0.751  0.00  0.00    -0.328 OA
ATOM     26  C   UNN dAMED       4.047  -3.390  -1.442  0.00  0.00     0.181 C 
ENDBRANCH  23  25
ENDBRANCH   2  15
TORSDOF 4
