REMARK  2 active torsions:
REMARK  status: ('A' for Active; 'I' for Inactive)
REMARK    1  A    between atoms: C_4  and  C_14 
REMARK    2  A    between atoms: C_5  and  C_12 
ROOT
ATOM      1  N   UNN dAMED       1.871  -1.634   0.641  0.00  0.00    -0.159 NA
ATOM      2  N   UNN dAMED       0.544  -1.694   0.591  0.00  0.00     0.010 NA
ATOM      3  N   UNN dAMED       0.087  -0.532   0.058  0.00  0.00    -0.235 N 
ATOM      4  C   UNN dAMED       1.149   0.251  -0.312  0.00  0.00     0.107 A 
ATOM      5  C   UNN dAMED       2.253  -0.439   0.110  0.00  0.00     0.125 A 
ATOM      6  C   UNN dAMED      -1.693   1.099  -0.067  0.00  0.00     0.019 A 
ATOM      7  C   UNN dAMED      -1.278  -0.229   0.001  0.00  0.00     0.079 A 
ATOM      8  C   UNN dAMED      -3.056   1.386  -0.052  0.00  0.00     0.002 A 
ATOM      9  C   UNN dAMED      -3.989   0.354   0.051  0.00  0.00     0.000 A 
ATOM     10  C   UNN dAMED      -2.207  -1.266   0.096  0.00  0.00     0.019 A 
ATOM     11  C   UNN dAMED      -3.566  -0.972   0.124  0.00  0.00     0.002 A 
ENDROOT
BRANCH   4  12
ATOM     12  C   UNN dAMED       1.086   1.734  -0.562  0.00  0.00     0.229 C 
ATOM     13  O   UNN dAMED       1.849   2.323  -1.538  0.00  0.00    -0.214 OA
ENDBRANCH   4  12
BRANCH   5  14
ATOM     14  C   UNN dAMED       3.567   0.217   0.425  0.00  0.00     0.230 C 
ATOM     15  O   UNN dAMED       4.625   0.124  -0.439  0.00  0.00    -0.214 OA
ENDBRANCH   5  14
TORSDOF 2
