REMARK  3 active torsions:
REMARK  status: ('A' for Active; 'I' for Inactive)
REMARK    1  A    between atoms: C_2  and  C_4 
REMARK    2  A    between atoms: C_4  and  C_5 
REMARK    3  A    between atoms: C_5  and  N_6 
ROOT
ATOM      1  C   UNN dAMED      -0.603  -0.371   1.878  0.00  0.00     0.225 C 
ENDROOT
BRANCH   1   2
ATOM      2  C   UNN dAMED      -1.112  -0.169   0.447  0.00  0.00     0.097 C 
BRANCH   2   3
ATOM      3  C   UNN dAMED      -2.590  -0.018   0.201  0.00  0.00     0.153 C 
ATOM      4  C   UNN dAMED      -2.978   0.292  -1.214  0.00  0.00     0.072 C 
ATOM      5  O   UNN dAMED      -3.312   0.309   1.128  0.00  0.00    -0.296 OA
ENDBRANCH   2   3
ENDBRANCH   1   2
BRANCH   1   6
ATOM      6  N   UNN dAMED      -1.186  -1.294   2.689  0.00  0.00    -0.001 N 
ATOM      7  C   UNN dAMED      -1.867  -2.371   3.635  0.00  0.00     0.250 C 
ATOM      8  C   UNN dAMED      -1.864  -2.368   3.642  0.00  0.00     0.250 C 
ATOM      9  C   UNN dAMED      -1.863  -2.366   3.644  0.00  0.00     0.250 C 
ENDBRANCH   1   6
TORSDOF 3
