REMARK  5 active torsions:
REMARK  status: ('A' for Active; 'I' for Inactive)
REMARK    1  A    between atoms: S_3  and  C_16 
REMARK    2  A    between atoms: S_3  and  C_17 
REMARK    3  A    between atoms: C_5  and  N_19 
REMARK    4  A    between atoms: C_17  and  C_18 
REMARK    5  A    between atoms: C_18  and  N_19 
ROOT
ATOM      1  S   UNN dAMED      -0.096   1.579  -1.523  0.00  0.00    -0.086 SA
ENDROOT
BRANCH   1   2
ATOM      2  C   UNN dAMED      -1.527   0.842  -0.837  0.00  0.00     0.136 A 
ATOM      3  S   UNN dAMED      -1.545   0.129   0.718  0.00  0.00    -0.060 SA
ATOM      4  C   UNN dAMED      -3.213  -0.251   0.519  0.00  0.00     0.049 A 
ATOM      5  C   UNN dAMED      -4.083  -0.892   1.413  0.00  0.00     0.008 A 
ATOM      6  C   UNN dAMED      -3.633   0.191  -0.737  0.00  0.00     0.088 A 
ATOM      7  C   UNN dAMED      -5.407  -1.080   1.011  0.00  0.00     0.001 A 
ATOM      8  C   UNN dAMED      -5.849  -0.653  -0.234  0.00  0.00     0.002 A 
ATOM      9  C   UNN dAMED      -4.974  -0.019  -1.116  0.00  0.00     0.020 A 
ATOM     10  N   UNN dAMED      -2.659   0.813  -1.499  0.00  0.00    -0.232 NA
ENDBRANCH   1   2
BRANCH   1  11
ATOM     11  C   UNN dAMED      -0.782   1.757  -3.168  0.00  0.00     0.090 C 
BRANCH  11  12
ATOM     12  C   UNN dAMED      -2.295   1.663  -3.389  0.00  0.00     0.138 C 
BRANCH  12  13
ATOM     13  N   UNN dAMED      -2.831   1.621  -4.740  0.00  0.00    -0.270 NA
BRANCH  13  14
ATOM     14  C   UNN dAMED      -3.457   0.516  -5.171  0.00  0.00     0.076 A 
ATOM     15  C   UNN dAMED      -2.999  -0.756  -4.819  0.00  0.00     0.019 A 
ATOM     16  C   UNN dAMED      -3.648  -1.906  -5.269  0.00  0.00     0.002 A 
ATOM     17  C   UNN dAMED      -4.771  -1.793  -6.083  0.00  0.00     0.000 A 
ATOM     18  C   UNN dAMED      -5.243  -0.535  -6.443  0.00  0.00     0.002 A 
ATOM     19  C   UNN dAMED      -4.588   0.608  -5.987  0.00  0.00     0.019 A 
ENDBRANCH  13  14
ENDBRANCH  12  13
ENDBRANCH  11  12
ENDBRANCH   1  11
TORSDOF 5
