REMARK  0 active torsions:
REMARK  status: ('A' for Active; 'I' for Inactive)
ROOT
ATOM      1  C   UNN dAMED      -1.310  -0.073   0.114  0.00  0.00     0.205 A 
ATOM      2  C   UNN dAMED       1.301   0.073  -0.112  0.00  0.00     0.205 A 
ATOM      3  N   UNN dAMED      -0.750   1.142  -0.018  0.00  0.00    -0.125 NA
ATOM      4  N   UNN dAMED       0.591   1.216  -0.130  0.00  0.00    -0.125 NA
ATOM      5  N   UNN dAMED       0.735  -1.141   0.016  0.00  0.00    -0.125 NA
ATOM      6  N   UNN dAMED      -0.604  -1.217   0.137  0.00  0.00    -0.125 NA
ATOM      7  C   UNN dAMED      -2.760  -0.155   0.239  0.00  0.00     0.039 A 
ATOM      8  C   UNN dAMED      -3.500  -1.072  -0.516  0.00  0.00     0.003 A 
ATOM      9  C   UNN dAMED      -4.888  -1.159  -0.392  0.00  0.00     0.000 A 
ATOM     10  C   UNN dAMED      -5.563  -0.312   0.482  0.00  0.00     0.000 A 
ATOM     11  C   UNN dAMED      -4.847   0.612   1.235  0.00  0.00     0.000 A 
ATOM     12  C   UNN dAMED      -3.458   0.682   1.119  0.00  0.00     0.003 A 
ATOM     13  C   UNN dAMED       2.759   0.155  -0.239  0.00  0.00     0.039 A 
ATOM     14  C   UNN dAMED       3.535  -0.983  -0.494  0.00  0.00     0.003 A 
ATOM     15  C   UNN dAMED       4.925  -0.912  -0.611  0.00  0.00     0.000 A 
ATOM     16  C   UNN dAMED       5.572   0.312  -0.483  0.00  0.00     0.000 A 
ATOM     17  C   UNN dAMED       4.825   1.458  -0.234  0.00  0.00     0.000 A 
ATOM     18  C   UNN dAMED       3.437   1.374  -0.110  0.00  0.00     0.003 A 
ENDROOT
TORSDOF 0
