REMARK  6 active torsions:
REMARK  status: ('A' for Active; 'I' for Inactive)
REMARK    1  A    between atoms: C_6  and  C_23 
REMARK    2  A    between atoms: C_8  and  C_23 
REMARK    3  A    between atoms: C_14  and  C_23 
REMARK    4  A    between atoms: C_16  and  C_25 
REMARK    5  A    between atoms: C_17  and  C_19 
REMARK    6  A    between atoms: C_25  and  N_26 
ROOT
ATOM      1  C   UNN dAMED      -1.577  -0.283  -1.867  0.00  0.00    -0.002 A 
ATOM      2  C   UNN dAMED      -0.936  -0.264  -0.620  0.00  0.00     0.011 A 
ATOM      3  C   UNN dAMED      -1.879  -1.484  -2.508  0.00  0.00     0.004 A 
ATOM      4  C   UNN dAMED      -0.515  -1.493  -0.070  0.00  0.00     0.010 A 
ATOM      5  C   UNN dAMED      -1.535  -2.691  -1.903  0.00  0.00     0.071 A 
ATOM      6  C   UNN dAMED      -0.812  -2.690  -0.709  0.00  0.00     0.001 A 
ENDROOT
BRANCH   2   7
ATOM      7  C   UNN dAMED      -1.002   0.950   0.349  0.00  0.00     0.183 C 
ATOM      8  O   UNN dAMED       0.200   1.027   0.912  0.00  0.00    -0.212 OA
BRANCH   7   9
ATOM      9  C   UNN dAMED      -2.078   0.606   1.412  0.00  0.00     0.013 A 
ATOM     10  C   UNN dAMED      -3.407   0.407   0.994  0.00  0.00    -0.001 A 
ATOM     11  C   UNN dAMED      -4.369  -0.123   1.850  0.00  0.00    -0.000 A 
ATOM     12  C   UNN dAMED      -4.021  -0.460   3.152  0.00  0.00    -0.000 A 
ATOM     13  C   UNN dAMED      -2.718  -0.265   3.597  0.00  0.00    -0.000 A 
ATOM     14  C   UNN dAMED      -1.757   0.250   2.730  0.00  0.00    -0.001 A 
ENDBRANCH   7   9
BRANCH   7  15
ATOM     15  C   UNN dAMED      -1.308   2.343  -0.250  0.00  0.00     0.013 A 
ATOM     16  C   UNN dAMED      -0.760   3.511   0.323  0.00  0.00    -0.001 A 
ATOM     17  C   UNN dAMED      -1.144   4.790  -0.074  0.00  0.00    -0.000 A 
ATOM     18  C   UNN dAMED      -2.107   4.933  -1.065  0.00  0.00    -0.000 A 
ATOM     19  C   UNN dAMED      -2.701   3.804  -1.622  0.00  0.00    -0.000 A 
ATOM     20  C   UNN dAMED      -2.314   2.529  -1.206  0.00  0.00    -0.001 A 
ENDBRANCH   7  15
ENDBRANCH   2   7
BRANCH   4  21
ATOM     21  C   UNN dAMED      -0.078  -1.458   1.384  0.00  0.00     0.277 C 
BRANCH  21  22
ATOM     22  N   UNN dAMED       0.961  -2.631   2.005  0.00  0.00     0.146 N 
ATOM     23  C   UNN dAMED      -0.097  -1.437   1.374  0.00  0.00     0.286 C 
ATOM     24  C   UNN dAMED      -0.086  -1.447   1.381  0.00  0.00     0.286 C 
ENDBRANCH  21  22
ENDBRANCH   4  21
BRANCH   5  25
ATOM     25  C   UNN dAMED      -1.978  -3.998  -2.467  0.00  0.00     0.419 C 
ATOM     26  F   UNN dAMED      -1.627  -5.045  -1.669  0.00  0.00    -0.166 F 
ATOM     27  F   UNN dAMED      -1.437  -4.255  -3.686  0.00  0.00    -0.166 F 
ATOM     28  F   UNN dAMED      -3.328  -4.085  -2.618  0.00  0.00    -0.166 F 
ENDBRANCH   5  25
TORSDOF 6
