REMARK  2 active torsions:
REMARK  status: ('A' for Active; 'I' for Inactive)
REMARK    1  A    between atoms: N_1  and  N_9 
REMARK    2  A    between atoms: C_3  and  C_7 
ROOT
ATOM      1  N   UNN dAMED       1.050  -0.573   0.145  0.00  0.00    -0.235 N 
ATOM      2  C   UNN dAMED      -0.282  -1.023   0.524  0.00  0.00     0.129 C 
ATOM      3  C   UNN dAMED      -1.504  -0.323  -0.077  0.00  0.00     0.025 C 
ATOM      4  C   UNN dAMED      -1.349   1.182  -0.256  0.00  0.00     0.008 C 
ATOM      5  C   UNN dAMED       0.051   1.640  -0.652  0.00  0.00     0.041 C 
ATOM      6  C   UNN dAMED       1.221   0.859  -0.047  0.00  0.00     0.036 C 
ATOM      7  C   UNN dAMED       2.640   1.397  -0.258  0.00  0.00     0.047 C 
ENDROOT
BRANCH   1   8
ATOM      8  N   UNN dAMED       2.080  -1.291   0.490  0.00  0.00    -0.011 NA
ATOM      9  O   UNN dAMED       1.714  -2.437   0.765  0.00  0.00    -0.041 OA
ENDBRANCH   1   8
BRANCH   3  10
ATOM     10  C   UNN dAMED      -2.895  -0.888   0.223  0.00  0.00     0.002 C 
ATOM     11  C   UNN dAMED      -3.580  -0.558   1.554  0.00  0.00     0.000 C 
ENDBRANCH   3  10
TORSDOF 2
