REMARK  2 active torsions:
REMARK  status: ('A' for Active; 'I' for Inactive)
REMARK    1  A    between atoms: C_5  and  S_11 
REMARK    2  A    between atoms: C_6  and  S_11 
ROOT
ATOM      1  C   UNN dAMED      -2.544   1.198   0.211  0.00  0.00     0.161 A 
ATOM      2  C   UNN dAMED      -1.286   0.640   0.141  0.00  0.00     0.042 A 
ATOM      3  C   UNN dAMED      -1.190  -0.735  -0.023  0.00  0.00     0.062 A 
ATOM      4  C   UNN dAMED      -2.382  -1.438  -0.119  0.00  0.00     0.166 A 
ATOM      5 CL   UNN dAMED      -2.463  -3.142  -0.340  0.00  0.00    -0.059 Cl
ATOM      6  N   UNN dAMED      -3.601  -0.855  -0.046  0.00  0.00    -0.135 NA
ATOM      7 CL   UNN dAMED      -2.739   2.885   0.422  0.00  0.00    -0.059 Cl
ATOM      8  N   UNN dAMED      -3.685   0.487   0.124  0.00  0.00    -0.136 NA
ENDROOT
BRANCH   3   9
ATOM      9  S   UNN dAMED       0.432  -1.445  -0.140  0.00  0.00    -0.083 SA
BRANCH   9  10
ATOM     10  C   UNN dAMED       0.775  -1.965   1.528  0.00  0.00     0.043 A 
ATOM     11  C   UNN dAMED      -0.031  -1.627   2.615  0.00  0.00     0.007 A 
ATOM     12  C   UNN dAMED       0.296  -2.054   3.901  0.00  0.00     0.001 A 
ATOM     13  C   UNN dAMED       1.440  -2.819   4.110  0.00  0.00     0.001 A 
ATOM     14  C   UNN dAMED       2.256  -3.155   3.033  0.00  0.00     0.015 A 
ATOM     15  C   UNN dAMED       1.923  -2.729   1.749  0.00  0.00     0.076 A 
ATOM     16  N   UNN dAMED       2.769  -3.062   0.653  0.00  0.00    -0.100 NA
ENDBRANCH   9  10
ENDBRANCH   3   9
TORSDOF 2
