REMARK  0 active torsions:
REMARK  status: ('A' for Active; 'I' for Inactive)
ROOT
ATOM      1  O   UNN dAMED      -4.091   0.678  -1.086  0.00  0.00    -0.296 OA
ATOM      2  O   UNN dAMED      -2.974   2.567  -0.384  0.00  0.00    -0.299 OA
ATOM      3  O   UNN dAMED      -1.062  -3.366   0.389  0.00  0.00    -0.265 OA
ATOM      4  C   UNN dAMED       2.127   1.629  -0.470  0.00  0.00     0.179 C 
ATOM      5  C   UNN dAMED       1.757   1.370   0.994  0.00  0.00     0.135 C 
ATOM      6  C   UNN dAMED       2.631   0.412  -1.246  0.00  0.00     0.180 C 
ATOM      7  C   UNN dAMED       0.950   0.076   1.265  0.00  0.00     0.115 C 
ATOM      8  C   UNN dAMED       1.911  -0.905  -0.874  0.00  0.00     0.150 C 
ATOM      9  C   UNN dAMED       1.653  -1.141   0.661  0.00  0.00     0.190 C 
ATOM     10  C   UNN dAMED      -0.399   0.176   0.610  0.00  0.00    -0.011 A 
ATOM     11  C   UNN dAMED      -0.960   1.458   0.464  0.00  0.00     0.022 A 
ATOM     12  C   UNN dAMED      -2.210   1.464  -0.129  0.00  0.00     0.122 A 
ATOM     13  C   UNN dAMED      -1.076  -1.016   0.204  0.00  0.00     0.095 A 
ATOM     14  C   UNN dAMED      -2.881   0.313  -0.551  0.00  0.00     0.158 A 
ATOM     15  C   UNN dAMED      -0.398  -2.339   0.495  0.00  0.00     0.278 C 
ATOM     16  C   UNN dAMED      -2.372  -0.989  -0.420  0.00  0.00     0.224 A 
ATOM     17  C   UNN dAMED      -4.087   2.031  -0.953  0.00  0.00     0.304 A 
ATOM     18  O   UNN dAMED      -3.107  -1.931  -0.856  0.00  0.00    -0.284 OA
ATOM     19  O   UNN dAMED       2.563   1.892   1.980  0.00  0.00    -0.193 OA
ATOM     20  N   UNN dAMED       0.868  -2.342   0.927  0.00  0.00    -0.238 NA
ATOM     21  O   UNN dAMED       1.825   2.814  -1.098  0.00  0.00    -0.186 OA
ATOM     22  O   UNN dAMED       1.937  -1.946  -1.782  0.00  0.00    -0.191 OA
ATOM     23  O   UNN dAMED       3.958   0.381  -1.610  0.00  0.00    -0.186 OA
ENDROOT
TORSDOF 0
