REMARK  2 active torsions:
REMARK  status: ('A' for Active; 'I' for Inactive)
REMARK    1  A    between atoms: C_10  and  S_15 
REMARK    2  A    between atoms: C4*_14  and  C5*_18 
ROOT
ATOM      1  N   UNN dAMED      -3.520  -0.508  -0.829  0.00  0.00    -0.218 NA
ATOM      2  N   UNN dAMED      -1.801  -0.116   0.846  0.00  0.00    -0.207 NA
ATOM      3  N   UNN dAMED      -0.901   1.815  -2.020  0.00  0.00    -0.227 NA
ATOM      4  O4* UNN dAMED       1.516  -0.346  -0.215  0.00  0.00    -0.292 OA
ATOM      5  N   UNN dAMED      -0.168   1.489   0.038  0.00  0.00    -0.154 NA
ATOM      6  C   UNN dAMED      -2.923   0.322  -1.725  0.00  0.00     0.123 A 
ATOM      7  C   UNN dAMED      -1.742   0.958  -1.348  0.00  0.00     0.131 A 
ATOM      8  C   UNN dAMED      -1.266   0.698  -0.074  0.00  0.00     0.152 A 
ATOM      9  C   UNN dAMED       0.089   2.052  -1.180  0.00  0.00     0.160 C 
ATOM     10  C   UNN dAMED      -2.938  -0.688   0.386  0.00  0.00     0.191 A 
ATOM     11  C1* UNN dAMED       0.967   0.752   0.515  0.00  0.00     0.176 A 
ATOM     12  C2* UNN dAMED       1.938   1.405   1.501  0.00  0.00     0.192 A 
ATOM     13  C3* UNN dAMED       3.227   0.659   1.277  0.00  0.00     0.180 A 
ATOM     14  C4* UNN dAMED       2.878  -0.353   0.191  0.00  0.00     0.140 A 
ATOM     15  O3* UNN dAMED       4.431   1.313   1.246  0.00  0.00    -0.186 OA
ATOM     16  O2* UNN dAMED       1.532   1.730   2.772  0.00  0.00    -0.185 OA
ENDROOT
BRANCH  10  17
ATOM     17  S   UNN dAMED      -3.775  -1.797   1.503  0.00  0.00    -0.075 SA
ATOM     18  C   UNN dAMED      -5.270  -1.899   0.523  0.00  0.00     0.077 C 
ENDBRANCH  10  17
BRANCH  14  19
ATOM     19  C5* UNN dAMED       3.743  -1.609   0.008  0.00  0.00     0.235 C 
ATOM     20  O5* UNN dAMED       3.963  -2.134  -1.236  0.00  0.00    -0.213 OA
ENDBRANCH  14  19
TORSDOF 2
