REMARK  4 active torsions:
REMARK  status: ('A' for Active; 'I' for Inactive)
REMARK    1  A    between atoms: C_2  and  C_18 
REMARK    2  A    between atoms: C_9  and  O_17 
REMARK    3  A    between atoms: C_11  and  C_13 
REMARK    4  A    between atoms: O_17  and  C_18 
ROOT
ATOM      1  C   UNN dAMED       0.987  -2.280   1.986  0.00  0.00     0.025 A 
ATOM      2  C   UNN dAMED       1.226  -2.814   3.247  0.00  0.00    -0.002 A 
ATOM      3  C   UNN dAMED       1.956  -2.436   0.998  0.00  0.00     0.103 A 
ATOM      4  C   UNN dAMED       3.126  -3.158   1.230  0.00  0.00     0.025 A 
ATOM      5  C   UNN dAMED       2.409  -3.507   3.502  0.00  0.00    -0.023 A 
ATOM      6  C   UNN dAMED       3.355  -3.685   2.493  0.00  0.00    -0.002 A 
ENDROOT
BRANCH   3   7
ATOM      7  O   UNN dAMED       1.770  -1.882  -0.266  0.00  0.00    -0.273 OA
BRANCH   7   8
ATOM      8  C   UNN dAMED       2.012  -0.529  -0.204  0.00  0.00     0.300 C 
ATOM      9  O   UNN dAMED       1.165   0.349  -0.172  0.00  0.00    -0.259 OA
BRANCH   8  10
ATOM     10  C   UNN dAMED       3.440  -0.240  -0.334  0.00  0.00     0.064 A 
ATOM     11  C   UNN dAMED       4.048  -0.315  -1.581  0.00  0.00     0.005 A 
ATOM     12  C   UNN dAMED       5.377   0.075  -1.702  0.00  0.00     0.000 A 
ATOM     13  C   UNN dAMED       6.074   0.543  -0.586  0.00  0.00     0.000 A 
ATOM     14  C   UNN dAMED       5.452   0.609   0.659  0.00  0.00     0.000 A 
ATOM     15  C   UNN dAMED       4.124   0.223   0.789  0.00  0.00     0.005 A 
ENDBRANCH   8  10
ENDBRANCH   7   8
ENDBRANCH   3   7
BRANCH   5  16
ATOM     16  C   UNN dAMED       2.645  -4.120   4.842  0.00  0.00     0.019 C 
ATOM     17  C   UNN dAMED       3.699  -5.613   4.585  0.00  0.00     0.004 C 
ATOM     18  C   UNN dAMED       3.699  -5.614   4.585  0.00  0.00     0.004 C 
ATOM     19  C   UNN dAMED       3.700  -5.615   4.585  0.00  0.00     0.004 C 
ENDBRANCH   5  16
TORSDOF 4
