REMARK  0 active torsions:
REMARK  status: ('A' for Active; 'I' for Inactive)
ROOT
ATOM      1  N   UNN dAMED      -1.588  -1.076  -0.000  0.00  0.00    -0.211 NA
ATOM      2  N   UNN dAMED       0.689  -1.379  -0.000  0.00  0.00    -0.229 NA
ATOM      3  N   UNN dAMED       1.095   1.401  -0.000  0.00  0.00    -0.246 NA
ATOM      4  C   UNN dAMED      -1.259   1.663  -0.000  0.00  0.00     0.025 A 
ATOM      5  C   UNN dAMED      -2.539   1.129   0.000  0.00  0.00     0.035 A 
ATOM      6  C   UNN dAMED      -0.140   0.849  -0.000  0.00  0.00     0.117 A 
ATOM      7  C   UNN dAMED      -0.358  -0.548  -0.000  0.00  0.00     0.181 A 
ATOM      8  C   UNN dAMED      -2.655  -0.246  -0.000  0.00  0.00     0.153 A 
ATOM      9  C   UNN dAMED       2.129   0.535  -0.000  0.00  0.00     0.073 A 
ATOM     10  C   UNN dAMED       1.927  -0.833   0.000  0.00  0.00     0.075 A 
ATOM     11  N   UNN dAMED      -3.960  -0.818  -0.000  0.00  0.00    -0.080 NA
ATOM     12  C   UNN dAMED       3.122  -1.745   0.000  0.00  0.00     0.053 C 
ATOM     13  C   UNN dAMED       3.535   1.068   0.000  0.00  0.00     0.053 C 
ENDROOT
TORSDOF 0
