REMARK  0 active torsions:
REMARK  status: ('A' for Active; 'I' for Inactive)
ROOT
ATOM      1  C   UNN dAMED       3.544  -0.507   0.337  0.00  0.00     0.065 A 
ATOM      2  C   UNN dAMED       3.166   0.556   1.153  0.00  0.00    -0.005 A 
ATOM      3  C   UNN dAMED       1.824   0.947   1.218  0.00  0.00    -0.003 A 
ATOM      4  C   UNN dAMED       0.827   0.294   0.478  0.00  0.00    -0.000 A 
ATOM      5  C   UNN dAMED       1.234  -0.794  -0.308  0.00  0.00     0.002 A 
ATOM      6  C   UNN dAMED       2.573  -1.192  -0.388  0.00  0.00     0.017 A 
ATOM      7  C   UNN dAMED      -0.583   0.718   0.534  0.00  0.00    -0.000 A 
ATOM      8  C   UNN dAMED      -1.585   0.020  -0.155  0.00  0.00    -0.003 A 
ATOM      9  C   UNN dAMED      -2.936   0.360  -0.028  0.00  0.00    -0.005 A 
ATOM     10  C   UNN dAMED      -3.323   1.431   0.774  0.00  0.00     0.065 A 
ATOM     11  C   UNN dAMED      -2.334   2.177   1.415  0.00  0.00     0.017 A 
ATOM     12  C   UNN dAMED      -0.989   1.815   1.306  0.00  0.00     0.002 A 
ATOM     13  N   UNN dAMED       4.898  -0.862   0.215  0.00  0.00    -0.249 N 
ATOM     14  C   UNN dAMED       5.507  -1.827   0.978  0.00  0.00     0.244 A 
ATOM     15  C   UNN dAMED       6.932  -1.934   0.564  0.00  0.00     0.097 A 
ATOM     16  C   UNN dAMED       5.763  -0.269  -0.701  0.00  0.00     0.243 A 
ATOM     17  C   UNN dAMED       7.122  -0.964  -0.596  0.00  0.00     0.081 A 
ATOM     18  C   UNN dAMED       7.973  -0.243   0.551  0.00  0.00     0.009 C 
ATOM     19  C   UNN dAMED       8.824   0.914   0.046  0.00  0.00     0.001 C 
ATOM     20  C   UNN dAMED       8.876   0.737  -1.448  0.00  0.00     0.001 C 
ATOM     21  C   UNN dAMED       8.016  -0.487  -1.752  0.00  0.00     0.009 C 
ATOM     22  N   UNN dAMED      -4.689   1.743   0.956  0.00  0.00    -0.249 N 
ATOM     23  C   UNN dAMED      -5.224   2.214   2.157  0.00  0.00     0.243 A 
ATOM     24  C   UNN dAMED      -6.969   1.984   0.542  0.00  0.00     0.097 A 
ATOM     25  C   UNN dAMED      -5.654   1.570  -0.010  0.00  0.00     0.244 A 
ATOM     26  C   UNN dAMED      -6.722   2.457   1.954  0.00  0.00     0.081 A 
ATOM     27  C   UNN dAMED      -7.091   3.818   2.602  0.00  0.00     0.009 C 
ATOM     28  C   UNN dAMED      -7.385   3.728   4.096  0.00  0.00     0.001 C 
ATOM     29  C   UNN dAMED      -7.663   2.271   4.353  0.00  0.00     0.001 C 
ATOM     30  C   UNN dAMED      -7.516   1.598   2.994  0.00  0.00     0.009 C 
ATOM     31  O   UNN dAMED       5.056  -2.554   1.847  0.00  0.00    -0.272 OA
ATOM     32  O   UNN dAMED       5.536   0.655  -1.472  0.00  0.00    -0.272 OA
ATOM     33  O   UNN dAMED      -5.584   1.120  -1.142  0.00  0.00    -0.272 OA
ATOM     34  O   UNN dAMED      -4.653   2.417   3.221  0.00  0.00    -0.272 OA
ATOM     35  C   UNN dAMED      -3.982  -0.456  -0.735  0.00  0.00     0.033 C 
ATOM     36  C   UNN dAMED       4.196   1.279   1.973  0.00  0.00     0.033 C 
ENDROOT
TORSDOF 0
