REMARK  2 active torsions:
REMARK  status: ('A' for Active; 'I' for Inactive)
REMARK    1  A    between atoms: C_13  and  C_22 
REMARK    2  A    between atoms: C_19  and  C_22 
ROOT
ATOM      1  O   UNN dAMED      -2.134   3.397   1.133  0.00  0.00    -0.247 OA
ATOM      2  H   UNN dAMED      -0.949   3.204  -1.265  0.00  0.00     0.173 HD
ATOM      3  N   UNN dAMED      -0.969   2.420  -0.624  0.00  0.00    -0.277 N 
ATOM      4  N   UNN dAMED      -1.387   1.186   1.175  0.00  0.00    -0.317 N 
ATOM      5  H   UNN dAMED      -1.706   0.942   2.107  0.00  0.00     0.166 HD
ATOM      6  O   UNN dAMED       0.217   0.883  -1.887  0.00  0.00    -0.269 OA
ATOM      7  N   UNN dAMED      -2.875  -2.259  -1.378  0.00  0.00    -0.243 NA
ATOM      8  C   UNN dAMED      -2.849  -3.235  -0.445  0.00  0.00     0.099 A 
ATOM      9  C   UNN dAMED      -2.139  -3.156   0.741  0.00  0.00     0.021 A 
ATOM     10  C   UNN dAMED      -1.409  -1.997   0.978  0.00  0.00     0.001 A 
ATOM     11  C   UNN dAMED      -1.395  -0.965   0.044  0.00  0.00     0.027 A 
ATOM     12  C   UNN dAMED      -2.152  -1.150  -1.106  0.00  0.00     0.097 A 
ATOM     13  C   UNN dAMED      -0.624   0.288   0.329  0.00  0.00     0.176 A 
ATOM     14  C   UNN dAMED      -0.398   1.197  -0.875  0.00  0.00     0.264 A 
ATOM     15  C   UNN dAMED      -1.561   2.449   0.616  0.00  0.00     0.324 A 
ENDROOT
BRANCH  13  16
ATOM     16  C   UNN dAMED       0.715  -0.019   1.042  0.00  0.00     0.007 C 
BRANCH  16  17
ATOM     17  C   UNN dAMED       1.872  -0.784   0.436  0.00  0.00    -0.002 A 
ATOM     18  C   UNN dAMED       2.029  -2.140   0.716  0.00  0.00    -0.000 A 
ATOM     19  C   UNN dAMED       3.149  -2.828   0.254  0.00  0.00    -0.000 A 
ATOM     20  C   UNN dAMED       4.125  -2.155  -0.477  0.00  0.00    -0.000 A 
ATOM     21  C   UNN dAMED       3.981  -0.796  -0.742  0.00  0.00    -0.000 A 
ATOM     22  C   UNN dAMED       2.861  -0.110  -0.277  0.00  0.00    -0.000 A 
ENDBRANCH  16  17
ENDBRANCH  13  16
TORSDOF 2
