REMARK  5 active torsions:
REMARK  status: ('A' for Active; 'I' for Inactive)
REMARK    1  A    between atoms: C_1  and  N_9 
REMARK    2  A    between atoms: N_3  and  C_12 
REMARK    3  A    between atoms: O_6  and  C_8 
REMARK    4  A    between atoms: O_6  and  C_13 
REMARK    5  A    between atoms: C_12  and  C_13 
ROOT
ATOM      1  C   UNN dAMED      -2.119  -0.370   0.288  0.00  0.00     0.190 A 
ATOM      2  C   UNN dAMED      -2.245   0.967   0.003  0.00  0.00     0.135 A 
ATOM      3  N   UNN dAMED      -1.185  -0.842  -0.575  0.00  0.00    -0.198 NA
ATOM      4  C   UNN dAMED      -0.668   0.230  -1.242  0.00  0.00     0.102 A 
ATOM      5  N   UNN dAMED      -1.312   1.340  -0.943  0.00  0.00    -0.234 NA
ATOM      6  C   UNN dAMED       0.784   0.271  -1.626  0.00  0.00     0.066 C 
ENDROOT
BRANCH   3   7
ATOM      7  C   UNN dAMED      -0.160  -1.489   0.173  0.00  0.00     0.117 C 
BRANCH   7   8
ATOM      8  C   UNN dAMED       1.236  -1.728  -0.420  0.00  0.00     0.171 C 
BRANCH   8   9
ATOM      9  O   UNN dAMED       2.107  -0.657  -0.654  0.00  0.00    -0.286 OA
BRANCH   9  10
ATOM     10  C   UNN dAMED       2.527  -0.820  -1.937  0.00  0.00     0.373 C 
ATOM     11  O   UNN dAMED       2.460  -1.889  -2.529  0.00  0.00    -0.242 OA
ATOM     12  N   UNN dAMED       2.968   0.325  -2.658  0.00  0.00    -0.032 NA
ENDBRANCH   9  10
ENDBRANCH   8   9
ENDBRANCH   7   8
ENDBRANCH   3   7
BRANCH   1  13
ATOM     13  N   UNN dAMED      -2.773  -1.190   1.238  0.00  0.00    -0.101 N 
ATOM     14  O   UNN dAMED      -3.821  -0.746   1.720  0.00  0.00    -0.531 OA
ATOM     15  O   UNN dAMED      -2.250  -2.275   1.517  0.00  0.00    -0.531 OA
ENDBRANCH   1  13
TORSDOF 5
