REMARK  4 active torsions:
REMARK  status: ('A' for Active; 'I' for Inactive)
REMARK    1  A    between atoms: O_1  and  C_8 
REMARK    2  A    between atoms: O_1  and  C_21 
REMARK    3  A    between atoms: N_2  and  C_11 
REMARK    4  A    between atoms: N_2  and  C_16 
REMARK       I    between atoms: N_2  and  C_21 
ROOT
ATOM      1  N   UNN dAMED      -0.698   0.773   1.174  0.00  0.00    -0.255 N 
ATOM      2  C   UNN dAMED       0.553   0.179   0.973  0.00  0.00     0.377 C 
ATOM      3  O   UNN dAMED       0.938  -0.835   1.546  0.00  0.00    -0.237 OA
ENDROOT
BRANCH   1   4
ATOM      4  C   UNN dAMED      -1.001   1.454   2.383  0.00  0.00     0.069 A 
ATOM      5  C   UNN dAMED      -0.851   0.830   3.621  0.00  0.00     0.018 A 
ATOM      6  C   UNN dAMED      -1.151   1.527   4.796  0.00  0.00     0.002 A 
ATOM      7  C   UNN dAMED      -1.631   2.835   4.734  0.00  0.00     0.000 A 
ATOM      8  C   UNN dAMED      -1.785   3.462   3.503  0.00  0.00     0.002 A 
ATOM      9  C   UNN dAMED      -1.442   2.780   2.337  0.00  0.00     0.018 A 
ENDBRANCH   1   4
BRANCH   1  10
ATOM     10  C   UNN dAMED      -1.785   0.508   0.288  0.00  0.00     0.069 A 
ATOM     11  C   UNN dAMED      -2.620   1.549  -0.132  0.00  0.00     0.018 A 
ATOM     12  C   UNN dAMED      -3.654   1.328  -1.039  0.00  0.00     0.002 A 
ATOM     13  C   UNN dAMED      -3.832   0.059  -1.579  0.00  0.00     0.000 A 
ATOM     14  C   UNN dAMED      -2.989  -0.981  -1.192  0.00  0.00     0.002 A 
ATOM     15  C   UNN dAMED      -1.976  -0.763  -0.256  0.00  0.00     0.018 A 
ENDBRANCH   1  10
BRANCH   2  16
ATOM     16  O   UNN dAMED       1.238   0.774  -0.090  0.00  0.00    -0.259 OA
BRANCH  16  17
ATOM     17  C   UNN dAMED       2.619   0.910   0.116  0.00  0.00     0.105 A 
ATOM     18  C   UNN dAMED       3.471  -0.147  -0.203  0.00  0.00     0.025 A 
ATOM     19  C   UNN dAMED       4.850   0.044  -0.152  0.00  0.00     0.002 A 
ATOM     20  C   UNN dAMED       5.372   1.292   0.174  0.00  0.00     0.000 A 
ATOM     21  C   UNN dAMED       4.513   2.359   0.443  0.00  0.00     0.002 A 
ATOM     22  C   UNN dAMED       3.128   2.175   0.403  0.00  0.00     0.025 A 
ENDBRANCH  16  17
ENDBRANCH   2  16
TORSDOF 4
