REMARK  7 active torsions:
REMARK  status: ('A' for Active; 'I' for Inactive)
REMARK    1  A    between atoms: C_4  and  N_11 
REMARK    2  A    between atoms: C_6  and  C_9 
REMARK    3  A    between atoms: N_11  and  C_13 
REMARK    4  A    between atoms: C_13  and  C_14 
REMARK    5  A    between atoms: C_14  and  N_15 
REMARK    6  A    between atoms: N_15  and  C_16 
REMARK    7  A    between atoms: N_15  and  C_18 
ROOT
ATOM      1 CL   UNN dAMED      -3.097   2.035   0.522  0.00  0.00    -0.083 Cl
ATOM      2  C   UNN dAMED      -0.783  -1.608  -0.686  0.00  0.00    -0.005 A 
ATOM      3  C   UNN dAMED      -2.175  -1.575  -0.870  0.00  0.00     0.000 A 
ATOM      4  C   UNN dAMED      -0.108  -0.530  -0.102  0.00  0.00     0.069 A 
ATOM      5  C   UNN dAMED      -0.859   0.575   0.283  0.00  0.00     0.006 A 
ATOM      6  C   UNN dAMED      -2.917  -0.464  -0.466  0.00  0.00     0.037 A 
ATOM      7  C   UNN dAMED      -2.239   0.613   0.096  0.00  0.00     0.057 A 
ATOM      8  C   UNN dAMED      -0.001  -2.814  -1.131  0.00  0.00     0.033 C 
ATOM      9  C   UNN dAMED      -0.154   1.750   0.894  0.00  0.00     0.034 C 
ENDROOT
BRANCH   4  10
ATOM     10  N   UNN dAMED       1.224  -0.523   0.065  0.00  0.00    -0.269 NA
BRANCH  10  11
ATOM     11  C   UNN dAMED       1.999  -1.653  -0.392  0.00  0.00     0.161 C 
BRANCH  11  12
ATOM     12  C   UNN dAMED       1.627  -3.025   0.168  0.00  0.00     0.276 C 
BRANCH  12  13
ATOM     13  N   UNN dAMED       2.615  -3.668   1.299  0.00  0.00     0.139 N 
BRANCH  13  14
ATOM     14  C   UNN dAMED       1.353  -3.149   0.291  0.00  0.00     0.250 C 
ATOM     15  C   UNN dAMED      -0.019  -3.846   0.392  0.00  0.00     0.037 C 
ENDBRANCH  13  14
BRANCH  13  16
ATOM     16  C   UNN dAMED       1.351  -3.148   0.290  0.00  0.00     0.250 C 
ATOM     17  C   UNN dAMED       1.638  -2.571  -1.101  0.00  0.00     0.037 C 
ENDBRANCH  13  16
ENDBRANCH  12  13
ENDBRANCH  11  12
ENDBRANCH  10  11
ENDBRANCH   4  10
BRANCH   6  18
ATOM     18  C   UNN dAMED      -4.376  -0.307  -0.857  0.00  0.00     0.157 C 
ATOM     19  O   UNN dAMED      -5.411  -0.742  -0.067  0.00  0.00    -0.188 OA
ENDBRANCH   6  18
TORSDOF 7
