REMARK  6 active torsions:
REMARK  status: ('A' for Active; 'I' for Inactive)
REMARK    1  A    between atoms: C_9  and  C_10 
REMARK    2  A    between atoms: C_10  and  C_20 
REMARK    3  A    between atoms: C_11  and  C_24 
REMARK    4  A    between atoms: C_12  and  C_24 
REMARK    5  A    between atoms: C_20  and  O_21 
REMARK    6  A    between atoms: O_21  and  C_22 
ROOT
ATOM      1  C   UNN dAMED       0.799   2.357   0.224  0.00  0.00     0.040 A 
ATOM      2  C   UNN dAMED      -0.318   1.639  -0.217  0.00  0.00     0.015 A 
ATOM      3  C   UNN dAMED      -1.291   2.311  -0.980  0.00  0.00     0.001 A 
ATOM      4  C   UNN dAMED      -1.112   3.667  -1.266  0.00  0.00     0.000 A 
ATOM      5  C   UNN dAMED       0.016   4.347  -0.819  0.00  0.00     0.001 A 
ATOM      6  C   UNN dAMED       1.003   3.709  -0.064  0.00  0.00     0.011 A 
ATOM      7  N   UNN dAMED       1.547   1.484   0.960  0.00  0.00    -0.230 NA
ATOM      8  C   UNN dAMED       2.890   1.481   0.494  0.00  0.00     0.100 C 
ATOM      9  C   UNN dAMED       1.038   0.231   0.901  0.00  0.00     0.044 A 
ATOM     10  C   UNN dAMED      -0.146   0.280   0.203  0.00  0.00     0.050 A 
ENDROOT
BRANCH  10  11
ATOM     11  C   UNN dAMED      -0.996  -0.852  -0.081  0.00  0.00     0.198 C 
ATOM     12  O   UNN dAMED      -2.036  -1.082   0.523  0.00  0.00    -0.286 OA
BRANCH  11  13
ATOM     13  C   UNN dAMED      -0.577  -1.736  -1.167  0.00  0.00     0.058 A 
ATOM     14  C   UNN dAMED      -0.052  -2.983  -0.881  0.00  0.00     0.102 A 
ATOM     15  N   UNN dAMED       0.323  -3.860  -1.836  0.00  0.00    -0.248 NA
ATOM     16  C   UNN dAMED       0.159  -3.469  -3.123  0.00  0.00     0.059 A 
ATOM     17  C   UNN dAMED      -0.371  -2.239  -3.492  0.00  0.00     0.015 A 
ATOM     18  C   UNN dAMED       0.588  -4.413  -4.211  0.00  0.00     0.052 C 
ATOM     19  C   UNN dAMED      -0.754  -1.358  -2.490  0.00  0.00     0.006 A 
ENDBRANCH  11  13
ENDBRANCH  10  11
BRANCH   9  20
ATOM     20  C   UNN dAMED       1.883  -1.008   0.995  0.00  0.00     0.052 C 
ATOM     21  C   UNN dAMED       2.770  -1.412  -0.188  0.00  0.00     0.038 C 
BRANCH  20  22
ATOM     22  C   UNN dAMED       1.846  -1.875   2.226  0.00  0.00     0.293 C 
ATOM     23  O   UNN dAMED       2.456  -1.508   3.222  0.00  0.00    -0.259 OA
BRANCH  22  24
ATOM     24  O   UNN dAMED       1.240  -3.088   2.139  0.00  0.00    -0.299 OA
BRANCH  24  25
ATOM     25  C   UNN dAMED       1.502  -3.715   3.359  0.00  0.00     0.152 C 
ATOM     26  C   UNN dAMED       2.443  -3.056   4.372  0.00  0.00     0.035 C 
ENDBRANCH  24  25
ENDBRANCH  22  24
ENDBRANCH  20  22
ENDBRANCH   9  20
TORSDOF 6
