REMARK  2 active torsions:
REMARK  status: ('A' for Active; 'I' for Inactive)
REMARK    1  A    between atoms: C_3  and  C_6 
REMARK    2  A    between atoms: C_3  and  C_9 
ROOT
ATOM      1  C   UNN dAMED      -0.126   0.725   0.109  0.00  0.00    -0.003 C 
ATOM      2  C   UNN dAMED       0.880   0.094  -0.514  0.00  0.00    -0.043 C 
ATOM      3  C   UNN dAMED       0.617  -1.206  -1.217  0.00  0.00     0.026 C 
ATOM      4  C   UNN dAMED       2.252   0.703  -0.526  0.00  0.00     0.026 C 
ENDROOT
BRANCH   1   5
ATOM      5  C   UNN dAMED      -1.461   0.108   0.096  0.00  0.00     0.061 A 
ATOM      6  C   UNN dAMED      -2.557   0.726   0.678  0.00  0.00     0.155 A 
ATOM      7  N   UNN dAMED      -3.794   0.186   0.699  0.00  0.00    -0.210 NA
ATOM      8  N   UNN dAMED      -2.364   1.992   1.302  0.00  0.00    -0.080 NA
ATOM      9  C   UNN dAMED      -3.912  -1.018   0.109  0.00  0.00     0.201 A 
ATOM     10  N   UNN dAMED      -2.930  -1.716  -0.488  0.00  0.00    -0.210 NA
ATOM     11  C   UNN dAMED      -1.714  -1.130  -0.479  0.00  0.00     0.155 A 
ATOM     12  N   UNN dAMED      -0.628  -1.818  -1.094  0.00  0.00    -0.080 NA
ENDBRANCH   1   5
BRANCH   1  13
ATOM     13  C   UNN dAMED       0.248   1.984   0.768  0.00  0.00    -0.000 A 
ATOM     14  C   UNN dAMED       0.498   3.133   0.011  0.00  0.00     0.001 A 
ATOM     15  C   UNN dAMED       0.857   4.324   0.638  0.00  0.00     0.011 A 
ATOM     16  C   UNN dAMED       0.950   4.366   2.026  0.00  0.00     0.058 A 
ATOM     17 CL   UNN dAMED       1.388   5.832   2.801  0.00  0.00    -0.082 Cl
ATOM     18  C   UNN dAMED       0.693   3.234   2.792  0.00  0.00     0.011 A 
ATOM     19  C   UNN dAMED       0.346   2.042   2.161  0.00  0.00     0.001 A 
ENDBRANCH   1  13
TORSDOF 2
