REMARK  0 active torsions:
REMARK  status: ('A' for Active; 'I' for Inactive)
ROOT
ATOM      1  N   UNN dAMED      -1.530   0.117   0.064  0.00  0.00    -0.305 N 
ATOM      2  N   UNN dAMED       2.865  -0.068  -1.025  0.00  0.00    -0.198 NA
ATOM      3  N   UNN dAMED       2.498   0.912   1.134  0.00  0.00    -0.198 NA
ATOM      4 CL   UNN dAMED       5.203  -0.082  -2.172  0.00  0.00    -0.041 Cl
ATOM      5  N   UNN dAMED       4.694   0.967   0.149  0.00  0.00    -0.187 NA
ATOM      6 CL   UNN dAMED       4.396   2.072   2.482  0.00  0.00    -0.041 Cl
ATOM      7  C   UNN dAMED      -5.221   1.967   0.689  0.00  0.00     0.000 A 
ATOM      8  C   UNN dAMED      -4.437   2.328  -0.407  0.00  0.00     0.002 A 
ATOM      9  C   UNN dAMED      -4.774   0.987   1.576  0.00  0.00     0.002 A 
ATOM     10  C   UNN dAMED      -3.543   0.365   1.373  0.00  0.00     0.018 A 
ATOM     11  C   UNN dAMED      -3.211   1.702  -0.629  0.00  0.00     0.018 A 
ATOM     12  C   UNN dAMED      -2.781   0.721   0.263  0.00  0.00     0.064 A 
ATOM     13  C   UNN dAMED      -2.177  -2.252  -0.568  0.00  0.00     0.018 A 
ATOM     14  C   UNN dAMED      -1.291  -1.198  -0.302  0.00  0.00     0.064 A 
ATOM     15  C   UNN dAMED      -1.630  -3.490  -0.914  0.00  0.00     0.002 A 
ATOM     16  C   UNN dAMED       0.099  -1.363  -0.371  0.00  0.00     0.021 A 
ATOM     17  C   UNN dAMED      -0.256  -3.677  -0.997  0.00  0.00     0.000 A 
ATOM     18  C   UNN dAMED       0.695  -0.111  -0.044  0.00  0.00     0.055 A 
ATOM     19  C   UNN dAMED      -0.332   0.770   0.215  0.00  0.00     0.083 A 
ATOM     20  C   UNN dAMED       2.089   0.266   0.025  0.00  0.00     0.169 A 
ATOM     21  C   UNN dAMED       0.618  -2.624  -0.727  0.00  0.00     0.002 A 
ATOM     22  C   UNN dAMED       3.803   1.231   1.116  0.00  0.00     0.227 A 
ATOM     23  C   UNN dAMED       4.147   0.311  -0.885  0.00  0.00     0.227 A 
ENDROOT
TORSDOF 0
