REMARK  3 active torsions:
REMARK  status: ('A' for Active; 'I' for Inactive)
REMARK    1  A    between atoms: C_1  and  N_5 
REMARK    2  A    between atoms: N_5  and  C_6 
REMARK    3  A    between atoms: N_8  and  C_9 
ROOT
ATOM      1  C   UNN dAMED       0.040  -0.838  -0.834  0.00  0.00     0.212 C 
ATOM      2  S   UNN dAMED      -0.233  -1.286  -2.447  0.00  0.00    -0.037 SA
ATOM      3  N   UNN dAMED       1.285  -0.853  -0.328  0.00  0.00    -0.248 NA
ENDROOT
BRANCH   1   4
ATOM      4  N   UNN dAMED      -0.839  -0.332   0.054  0.00  0.00    -0.248 NA
BRANCH   4   5
ATOM      5  C   UNN dAMED      -2.203  -0.202  -0.406  0.00  0.00     0.087 C 
ATOM      6  C   UNN dAMED      -2.981  -1.486  -0.037  0.00  0.00     0.025 C 
ATOM      7  C   UNN dAMED      -3.118   0.130   0.800  0.00  0.00     0.025 C 
ATOM      8  C   UNN dAMED      -2.231   0.596  -1.686  0.00  0.00     0.025 C 
ENDBRANCH   4   5
ENDBRANCH   1   4
BRANCH   3   9
ATOM      9  C   UNN dAMED       1.575  -2.145   0.287  0.00  0.00     0.087 C 
ATOM     10  C   UNN dAMED       1.464  -1.931   2.126  0.00  0.00     0.025 C 
ATOM     11  C   UNN dAMED       1.465  -1.934   2.106  0.00  0.00     0.025 C 
ATOM     12  C   UNN dAMED       1.464  -1.932   2.123  0.00  0.00     0.025 C 
ENDBRANCH   3   9
TORSDOF 3
