REMARK  5 active torsions:
REMARK  status: ('A' for Active; 'I' for Inactive)
REMARK    1  A    between atoms: O_3  and  C_9 
REMARK    2  A    between atoms: O_3  and  C_15 
REMARK    3  A    between atoms: C_5  and  C_14 
REMARK    4  A    between atoms: C_14  and  C_16 
REMARK    5  A    between atoms: C_15  and  C_17 
ROOT
ATOM      1  O   UNN dAMED      -2.053   2.252   1.059  0.00  0.00    -0.286 OA
ATOM      2  O   UNN dAMED       0.065  -2.487  -0.183  0.00  0.00    -0.284 OA
ATOM      3  C   UNN dAMED      -1.599   1.141   0.826  0.00  0.00     0.198 A 
ATOM      4  C   UNN dAMED      -0.192   0.816   1.138  0.00  0.00     0.064 A 
ATOM      5  C   UNN dAMED      -2.432   0.070   0.263  0.00  0.00     0.042 A 
ATOM      6  C   UNN dAMED      -3.786   0.317   0.034  0.00  0.00     0.003 A 
ATOM      7  C   UNN dAMED      -4.584  -0.672  -0.535  0.00  0.00     0.000 A 
ATOM      8  C   UNN dAMED       0.339  -0.379   0.876  0.00  0.00     0.137 A 
ATOM      9  C   UNN dAMED      -1.877  -1.165  -0.064  0.00  0.00     0.044 A 
ATOM     10  C   UNN dAMED      -4.029  -1.903  -0.879  0.00  0.00     0.000 A 
ATOM     11  C   UNN dAMED      -0.445  -1.436   0.184  0.00  0.00     0.218 A 
ATOM     12  C   UNN dAMED      -2.678  -2.153  -0.640  0.00  0.00     0.003 A 
ENDROOT
BRANCH   4  13
ATOM     13  C   UNN dAMED       0.672   1.842   1.818  0.00  0.00     0.005 C 
BRANCH  13  14
ATOM     14  C   UNN dAMED       0.669   2.032   3.343  0.00  0.00    -0.008 C 
ATOM     15  C   UNN dAMED      -0.101   1.292   4.144  0.00  0.00    -0.044 C 
ATOM     16  C   UNN dAMED      -0.950   0.472   5.006  0.00  0.00     0.026 C 
ATOM     17  C   UNN dAMED       0.616   2.565   4.618  0.00  0.00     0.026 C 
ENDBRANCH  13  14
ENDBRANCH   4  13
BRANCH   8  18
ATOM     18  O   UNN dAMED       1.648  -0.650   1.237  0.00  0.00    -0.316 OA
BRANCH  18  19
ATOM     19  C   UNN dAMED       2.193   0.590   1.615  0.00  0.00     0.246 C 
BRANCH  19  20
ATOM     20  C   UNN dAMED       3.214   1.329   0.772  0.00  0.00     0.217 C 
ATOM     21  O   UNN dAMED       4.049   0.622   0.130  0.00  0.00    -0.645 OA
ATOM     22  O   UNN dAMED       3.193   2.594   0.847  0.00  0.00    -0.645 OA
ENDBRANCH  19  20
ENDBRANCH  18  19
ENDBRANCH   8  18
TORSDOF 5
