REMARK  0 active torsions:
REMARK  status: ('A' for Active; 'I' for Inactive)
ROOT
ATOM      1  N   UNN dAMED       0.611  -0.827   0.216  0.00  0.00    -0.245 NA
ATOM      2 CL   UNN dAMED      -6.086  -0.806   0.565  0.00  0.00    -0.082 Cl
ATOM      3  C   UNN dAMED      -2.165  -0.622   1.268  0.00  0.00     0.002 A 
ATOM      4  C   UNN dAMED      -1.650  -0.046   0.099  0.00  0.00     0.018 A 
ATOM      5  C   UNN dAMED      -3.532  -0.862   1.415  0.00  0.00     0.011 A 
ATOM      6  C   UNN dAMED      -4.403  -0.519   0.388  0.00  0.00     0.058 A 
ATOM      7  C   UNN dAMED      -2.551   0.286  -0.921  0.00  0.00     0.002 A 
ATOM      8  C   UNN dAMED      -0.218   0.204  -0.050  0.00  0.00     0.085 A 
ATOM      9  C   UNN dAMED       0.265   1.447  -0.448  0.00  0.00     0.061 A 
ATOM     10  C   UNN dAMED      -3.920   0.057  -0.781  0.00  0.00     0.011 A 
ATOM     11  C   UNN dAMED       1.633   1.717  -0.605  0.00  0.00     0.199 A 
ATOM     12  C   UNN dAMED       2.483   0.615  -0.315  0.00  0.00     0.057 A 
ATOM     13  C   UNN dAMED       2.787  -1.681   0.366  0.00  0.00     0.019 A 
ATOM     14  C   UNN dAMED       4.170  -1.559   0.256  0.00  0.00     0.002 A 
ATOM     15  C   UNN dAMED       1.930  -0.626   0.090  0.00  0.00     0.084 A 
ATOM     16  C   UNN dAMED       4.724  -0.353  -0.139  0.00  0.00     0.000 A 
ATOM     17  C   UNN dAMED       3.884   0.718  -0.420  0.00  0.00     0.005 A 
ATOM     18  O   UNN dAMED       2.036   2.872  -0.976  0.00  0.00    -0.286 OA
ENDROOT
TORSDOF 0
