REMARK  0 active torsions:
REMARK  status: ('A' for Active; 'I' for Inactive)
ROOT
ATOM      1  C   UNN dAMED      -3.454  -0.660  -0.137  0.00  0.00     0.002 A 
ATOM      2  C   UNN dAMED      -2.700  -1.819   0.034  0.00  0.00     0.002 A 
ATOM      3  C   UNN dAMED      -2.839   0.590  -0.245  0.00  0.00     0.021 A 
ATOM      4  C   UNN dAMED      -1.305  -1.782   0.105  0.00  0.00     0.019 A 
ATOM      5  C   UNN dAMED      -1.438   0.651  -0.183  0.00  0.00     0.099 A 
ATOM      6  C   UNN dAMED      -0.705  -0.524  -0.011  0.00  0.00     0.086 A 
ATOM      7  N   UNN dAMED       0.608  -0.109   0.027  0.00  0.00    -0.260 N 
ATOM      8  N   UNN dAMED      -0.605   1.744  -0.254  0.00  0.00    -0.230 NA
ATOM      9  O   UNN dAMED       1.719  -2.006   0.544  0.00  0.00    -0.266 OA
ATOM     10  C   UNN dAMED       1.779  -0.823   0.235  0.00  0.00     0.272 C 
ATOM     11  C   UNN dAMED       0.604   1.242  -0.185  0.00  0.00     0.138 A 
ATOM     12  C   UNN dAMED       1.833   2.080   0.045  0.00  0.00     0.126 C 
ATOM     13  C   UNN dAMED       3.053  -0.045   0.467  0.00  0.00     0.092 C 
ATOM     14  S   UNN dAMED       3.449   1.462  -0.443  0.00  0.00    -0.100 SA
ENDROOT
TORSDOF 0
