REMARK  3 active torsions:
REMARK  status: ('A' for Active; 'I' for Inactive)
REMARK    1  A    between atoms: C_6  and  C_15 
REMARK    2  A    between atoms: C_9  and  C_13 
REMARK    3  A    between atoms: C_13  and  C_15 
ROOT
ATOM      1  C   UNN dAMED      -0.516  -0.217  -0.071  0.00  0.00     0.236 C 
ATOM      2  O   UNN dAMED       0.127  -0.103   0.960  0.00  0.00    -0.283 OA
ENDROOT
BRANCH   1   3
ATOM      3  C   UNN dAMED      -1.965  -0.073  -0.069  0.00  0.00     0.061 A 
ATOM      4  C   UNN dAMED      -2.765  -1.202  -0.036  0.00  0.00     0.102 A 
ATOM      5  N   UNN dAMED      -4.110  -1.144   0.039  0.00  0.00    -0.242 NA
ATOM      6  C   UNN dAMED      -4.655   0.092   0.105  0.00  0.00     0.099 A 
ATOM      7  C   UNN dAMED      -3.928   1.274   0.085  0.00  0.00     0.021 A 
ATOM      8  C   UNN dAMED      -2.545   1.184  -0.002  0.00  0.00     0.006 A 
ENDBRANCH   1   3
BRANCH   1   9
ATOM      9  C   UNN dAMED       0.175  -0.578  -1.362  0.00  0.00     0.236 C 
ATOM     10  O   UNN dAMED      -0.392  -1.277  -2.187  0.00  0.00    -0.283 OA
BRANCH   9  11
ATOM     11  C   UNN dAMED       1.545  -0.132  -1.573  0.00  0.00     0.061 A 
ATOM     12  C   UNN dAMED       2.587  -0.792  -0.936  0.00  0.00     0.006 A 
ATOM     13  C   UNN dAMED       3.891  -0.404  -1.205  0.00  0.00     0.021 A 
ATOM     14  C   UNN dAMED       4.082   0.617  -2.125  0.00  0.00     0.099 A 
ATOM     15  N   UNN dAMED       3.083   1.266  -2.768  0.00  0.00    -0.242 NA
ATOM     16  C   UNN dAMED       1.824   0.874  -2.479  0.00  0.00     0.102 A 
ENDBRANCH   9  11
ENDBRANCH   1   9
TORSDOF 3
