REMARK  0 active torsions:
REMARK  status: ('A' for Active; 'I' for Inactive)
ROOT
ATOM      1  C   UNN dAMED       1.611  -0.880   1.288  0.00  0.00     0.080 A 
ATOM      2  C   UNN dAMED       1.908  -0.085   0.247  0.00  0.00     0.063 A 
ATOM      3  C   UNN dAMED       0.166  -1.200   1.603  0.00  0.00     0.283 A 
ATOM      4  N   UNN dAMED       0.880   0.443  -0.512  0.00  0.00    -0.338 N 
ATOM      5  O   UNN dAMED      -0.165  -1.921   2.532  0.00  0.00    -0.265 OA
ATOM      6  H   UNN dAMED       1.149   1.043  -1.285  0.00  0.00     0.167 HD
ATOM      7  C   UNN dAMED      -0.425   0.183  -0.268  0.00  0.00     0.147 A 
ATOM      8  N   UNN dAMED      -0.780  -0.629   0.774  0.00  0.00    -0.178 N 
ATOM      9  C   UNN dAMED      -1.600   0.570  -0.862  0.00  0.00     0.060 A 
ATOM     10  N   UNN dAMED      -2.107  -0.809   0.904  0.00  0.00    -0.159 NA
ATOM     11  C   UNN dAMED      -2.610  -0.076  -0.101  0.00  0.00     0.127 A 
ATOM     12  C   UNN dAMED      -4.068   0.031  -0.358  0.00  0.00     0.119 A 
ATOM     13  C   UNN dAMED      -4.645   0.320  -1.579  0.00  0.00     0.028 A 
ATOM     14  O   UNN dAMED      -5.045  -0.134   0.581  0.00  0.00    -0.304 OA
ATOM     15  C   UNN dAMED      -6.043   0.333  -1.376  0.00  0.00     0.029 A 
ATOM     16  C   UNN dAMED      -6.243   0.048  -0.044  0.00  0.00     0.123 A 
ATOM     17  C   UNN dAMED       3.306   0.224  -0.034  0.00  0.00     0.016 A 
ATOM     18  C   UNN dAMED       3.728   0.891  -1.185  0.00  0.00     0.001 A 
ATOM     19  C   UNN dAMED       5.082   1.142  -1.399  0.00  0.00     0.000 A 
ATOM     20  C   UNN dAMED       6.024   0.720  -0.465  0.00  0.00     0.000 A 
ATOM     21  C   UNN dAMED       5.613   0.047   0.682  0.00  0.00     0.000 A 
ATOM     22  C   UNN dAMED       4.258  -0.199   0.895  0.00  0.00     0.001 A 
ENDROOT
TORSDOF 0
