REMARK  4 active torsions:
REMARK  status: ('A' for Active; 'I' for Inactive)
REMARK    1  A    between atoms: C_5  and  C_6 
REMARK    2  A    between atoms: C_5  and  N_20 
REMARK    3  A    between atoms: C_6  and  S_22 
REMARK    4  A    between atoms: C_12  and  S_22 
ROOT
ATOM      1  C   UNN dAMED       0.872   0.754   0.488  0.00  0.00     0.120 C 
ENDROOT
BRANCH   1   2
ATOM      2  C   UNN dAMED       0.554   1.159   1.931  0.00  0.00     0.088 C 
BRANCH   2   3
ATOM      3  S   UNN dAMED      -0.943   2.069   2.302  0.00  0.00    -0.091 SA
BRANCH   3   4
ATOM      4  C   UNN dAMED      -1.769   1.622   0.828  0.00  0.00     0.129 C 
ATOM      5  C   UNN dAMED      -2.836   0.558   0.801  0.00  0.00     0.142 C 
ATOM      6  C   UNN dAMED      -3.390   0.218  -0.527  0.00  0.00     0.185 C 
ATOM      7  N   UNN dAMED      -3.870   0.461   1.809  0.00  0.00    -0.219 NA
ATOM      8  N   UNN dAMED      -2.946   0.881  -1.633  0.00  0.00    -0.203 NA
ATOM      9  N   UNN dAMED      -4.631  -0.059  -0.315  0.00  0.00    -0.203 NA
ATOM     10  C   UNN dAMED      -1.953   1.655  -1.551  0.00  0.00     0.201 C 
ATOM     11  N   UNN dAMED      -1.380   2.112  -0.306  0.00  0.00    -0.216 NA
ATOM     12  C   UNN dAMED      -4.829   0.012   1.105  0.00  0.00     0.201 C 
ENDBRANCH   3   4
ENDBRANCH   2   3
ENDBRANCH   1   2
BRANCH   1  13
ATOM     13  N   UNN dAMED       2.021  -0.021   0.209  0.00  0.00    -0.300 N 
ATOM     14  C   UNN dAMED       2.302  -1.316  -0.390  0.00  0.00     0.181 C 
ATOM     15  N   UNN dAMED       3.431  -1.868  -0.524  0.00  0.00    -0.207 NA
ATOM     16  C   UNN dAMED       4.484  -1.076  -0.292  0.00  0.00     0.164 A 
ATOM     17  C   UNN dAMED       4.406   0.223   0.121  0.00  0.00     0.143 A 
ATOM     18  N   UNN dAMED       5.803  -1.362  -0.425  0.00  0.00    -0.320 N 
ATOM     19  C   UNN dAMED       3.119   0.811   0.361  0.00  0.00     0.138 C 
ATOM     20  N   UNN dAMED       5.660   0.764   0.247  0.00  0.00    -0.220 NA
ATOM     21  S   UNN dAMED       3.023   2.399   0.839  0.00  0.00    -0.058 SA
ATOM     22  C   UNN dAMED       6.482  -0.214  -0.088  0.00  0.00     0.176 A 
ATOM     23  H   UNN dAMED       6.214  -2.238  -0.719  0.00  0.00     0.169 HD
ENDBRANCH   1  13
TORSDOF 4
