REMARK  2 active torsions:
REMARK  status: ('A' for Active; 'I' for Inactive)
REMARK    1  A    between atoms: C_10  and  O_19 
REMARK    2  A    between atoms: C_13  and  N_15 
REMARK       I    between atoms: N_15  and  C_16 
ROOT
ATOM      1  C   UNN dAMED      -3.909   0.453  -0.178  0.00  0.00     0.000 A 
ATOM      2  C   UNN dAMED      -3.009  -0.609  -0.118  0.00  0.00     0.000 A 
ATOM      3  C   UNN dAMED      -3.438   1.757  -0.126  0.00  0.00     0.000 A 
ATOM      4  C   UNN dAMED      -2.070   1.985  -0.018  0.00  0.00     0.002 A 
ATOM      5  C   UNN dAMED      -1.620  -0.402  -0.008  0.00  0.00     0.002 A 
ATOM      6  C   UNN dAMED      -1.150   0.925   0.042  0.00  0.00     0.024 A 
ATOM      7  C   UNN dAMED      -0.697  -1.474   0.065  0.00  0.00     0.002 A 
ATOM      8  C   UNN dAMED      -1.131  -2.812   0.042  0.00  0.00     0.000 A 
ATOM      9  C   UNN dAMED      -0.243  -3.879   0.140  0.00  0.00     0.000 A 
ATOM     10  C   UNN dAMED       0.228   1.158   0.160  0.00  0.00     0.112 A 
ATOM     11  C   UNN dAMED       0.694  -1.214   0.177  0.00  0.00     0.020 A 
ATOM     12  C   UNN dAMED       1.115  -3.631   0.248  0.00  0.00     0.000 A 
ATOM     13  C   UNN dAMED       1.179   0.121   0.228  0.00  0.00     0.106 A 
ATOM     14  C   UNN dAMED       1.569  -2.316   0.257  0.00  0.00     0.002 A 
ENDROOT
BRANCH  13  15
ATOM     15  N   UNN dAMED       2.504   0.409   0.293  0.00  0.00    -0.210 NA
ATOM     16  C   UNN dAMED       2.952   0.276   1.539  0.00  0.00     0.256 C 
ATOM     17  O   UNN dAMED       3.991   0.742   1.991  0.00  0.00    -0.270 OA
ATOM     18  C   UNN dAMED       2.168  -0.646   2.433  0.00  0.00     0.100 C 
ENDBRANCH  13  15
BRANCH  10  19
ATOM     19  O   UNN dAMED       0.664   2.461   0.236  0.00  0.00    -0.327 OA
ATOM     20  C   UNN dAMED       1.011   2.806  -1.072  0.00  0.00     0.181 C 
ENDBRANCH  10  19
TORSDOF 2
