REMARK  3 active torsions:
REMARK  status: ('A' for Active; 'I' for Inactive)
REMARK    1  A    between atoms: N_4  and  C_7 
REMARK    2  A    between atoms: N_5  and  C_12 
REMARK    3  A    between atoms: C_14  and  S_18 
ROOT
ATOM      1  N   UNN dAMED      -1.134   1.073  -0.033  0.00  0.00    -0.143 NA
ATOM      2  N   UNN dAMED      -0.460   0.536  -0.935  0.00  0.00    -0.148 NA
ENDROOT
BRANCH   2   3
ATOM      3  C   UNN dAMED       0.873   0.990  -0.985  0.00  0.00     0.103 A 
ATOM      4  C   UNN dAMED       1.550   1.524   0.121  0.00  0.00     0.022 A 
ATOM      5  C   UNN dAMED       2.921   1.777   0.075  0.00  0.00     0.015 A 
ATOM      6  C   UNN dAMED       3.616   1.486  -1.091  0.00  0.00     0.107 A 
ATOM      7  C   UNN dAMED       2.978   0.950  -2.203  0.00  0.00     0.015 A 
ATOM      8  C   UNN dAMED       1.606   0.717  -2.145  0.00  0.00     0.022 A 
BRANCH   6   9
ATOM      9  S   UNN dAMED       5.377   1.572  -1.123  0.00  0.00     0.302 S 
ATOM     10  O   UNN dAMED       5.787   2.156   0.142  0.00  0.00    -0.197 OA
ATOM     11  O   UNN dAMED       5.708   2.247  -2.365  0.00  0.00    -0.197 OA
ATOM     12  N   UNN dAMED       5.981  -0.023  -1.198  0.00  0.00    -0.043 N 
ENDBRANCH   6   9
ENDBRANCH   2   3
BRANCH   1  13
ATOM     13  C   UNN dAMED      -2.410   0.593   0.135  0.00  0.00     0.159 A 
ATOM     14  C   UNN dAMED      -3.268   0.184  -1.020  0.00  0.00     0.279 A 
ATOM     15  N   UNN dAMED      -4.598  -0.049  -0.729  0.00  0.00    -0.288 N 
ATOM     16  O   UNN dAMED      -2.815   0.066  -2.156  0.00  0.00    -0.265 OA
ATOM     17  H   UNN dAMED      -5.208  -0.318  -1.496  0.00  0.00     0.172 HD
ATOM     18  C   UNN dAMED      -5.176   0.059   0.501  0.00  0.00     0.260 A 
ATOM     19  C   UNN dAMED      -4.443   0.380   1.561  0.00  0.00     0.062 A 
ATOM     20  O   UNN dAMED      -6.401  -0.166   0.588  0.00  0.00    -0.267 OA
ATOM     21  C   UNN dAMED      -2.961   0.697   1.347  0.00  0.00     0.031 A 
ENDBRANCH   1  13
TORSDOF 3
