REMARK  2 active torsions:
REMARK  status: ('A' for Active; 'I' for Inactive)
REMARK    1  A    between atoms: C_7  and  C_8 
REMARK       I    between atoms: C_8  and  N_24 
REMARK    2  A    between atoms: C_10  and  N_24 
ROOT
ATOM      1  C   UNN dAMED       0.101   0.296   0.095  0.00  0.00     0.077 A 
ATOM      2  C   UNN dAMED       0.887   1.443  -0.009  0.00  0.00    -0.009 A 
ATOM      3  C   UNN dAMED       0.750  -0.924  -0.162  0.00  0.00     0.006 A 
ATOM      4  C   UNN dAMED       0.439   2.865   0.176  0.00  0.00     0.020 A 
ATOM      5  C   UNN dAMED       2.262   1.373  -0.292  0.00  0.00    -0.024 A 
ATOM      6  C   UNN dAMED       1.814   3.649  -0.021  0.00  0.00     0.008 A 
ATOM      7  C   UNN dAMED       2.122  -1.004  -0.450  0.00  0.00     0.034 A 
ATOM      8  C   UNN dAMED       2.938   2.712  -0.295  0.00  0.00     0.019 A 
ATOM      9  C   UNN dAMED       2.890   0.158  -0.508  0.00  0.00     0.006 A 
ATOM     10  C   UNN dAMED       4.184  -2.416  -0.791  0.00  0.00     0.077 C 
ATOM     11  N   UNN dAMED       2.718  -2.263  -0.630  0.00  0.00    -0.253 NA
ATOM     12  C   UNN dAMED       4.586  -3.739  -1.436  0.00  0.00     0.019 C 
ATOM     13  C   UNN dAMED       2.276  -3.184  -1.705  0.00  0.00     0.077 C 
ATOM     14  C   UNN dAMED       3.310  -4.251  -2.050  0.00  0.00     0.019 C 
ATOM     15  C   UNN dAMED      -0.049  -2.196  -0.091  0.00  0.00     0.034 C 
ATOM     16  C   UNN dAMED      -1.027   2.905   0.404  0.00  0.00     0.004 C 
ATOM     17  C   UNN dAMED       1.711   3.811   0.010  0.00  0.00     0.004 C 
ATOM     18  C   UNN dAMED       4.508   2.501  -0.478  0.00  0.00     0.004 C 
ATOM     19  C   UNN dAMED       4.508   2.501  -0.478  0.00  0.00     0.004 C 
ENDROOT
BRANCH   1  20
ATOM     20  N   UNN dAMED      -1.213   0.326   0.416  0.00  0.00    -0.209 NA
ATOM     21  C   UNN dAMED      -1.405   0.165   1.731  0.00  0.00     0.280 C 
ATOM     22  O   UNN dAMED      -1.147   0.955   2.635  0.00  0.00    -0.265 OA
BRANCH  21  23
ATOM     23  C   UNN dAMED      -2.076  -1.095   2.102  0.00  0.00     0.069 A 
ATOM     24  C   UNN dAMED      -3.454  -1.168   2.316  0.00  0.00     0.062 A 
ATOM     25  C   UNN dAMED      -4.025  -2.381   2.697  0.00  0.00     0.012 A 
ATOM     26 CL   UNN dAMED      -4.492   0.194   2.149  0.00  0.00    -0.082 Cl
ATOM     27  C   UNN dAMED      -3.226  -3.510   2.868  0.00  0.00     0.001 A 
ATOM     28  C   UNN dAMED      -1.849  -3.430   2.669  0.00  0.00     0.000 A 
ATOM     29  C   UNN dAMED      -1.271  -2.220   2.294  0.00  0.00     0.006 A 
ENDBRANCH  21  23
ENDBRANCH   1  20
TORSDOF 2
