REMARK  2 active torsions:
REMARK  status: ('A' for Active; 'I' for Inactive)
REMARK    1  A    between atoms: C_7  and  N_17 
REMARK    2  A    between atoms: C_18  and  C_20 
ROOT
ATOM      1  C   UNN dAMED      -0.839  -4.357  -0.234  0.00  0.00     0.000 A 
ATOM      2  C   UNN dAMED      -1.833  -3.390  -0.119  0.00  0.00     0.000 A 
ATOM      3  C   UNN dAMED      -1.494  -2.045   0.030  0.00  0.00     0.004 A 
ATOM      4  C   UNN dAMED      -2.499  -1.093   0.112  0.00  0.00     0.021 A 
ATOM      5  C   UNN dAMED      -2.143   0.239   0.260  0.00  0.00     0.101 A 
ATOM      6  N   UNN dAMED      -0.855   0.655   0.350  0.00  0.00    -0.225 NA
ATOM      7  C   UNN dAMED       0.135  -0.278   0.282  0.00  0.00     0.164 A 
ATOM      8  C   UNN dAMED      -0.143  -1.649   0.091  0.00  0.00     0.036 A 
ATOM      9  C   UNN dAMED       0.843  -2.644  -0.039  0.00  0.00     0.003 A 
ATOM     10  C   UNN dAMED       0.500  -3.983  -0.208  0.00  0.00     0.000 A 
ATOM     11  C   UNN dAMED      -3.162   1.274   0.308  0.00  0.00     0.099 A 
ATOM     12  C   UNN dAMED      -3.464   2.032  -0.818  0.00  0.00     0.021 A 
ATOM     13  C   UNN dAMED      -4.467   2.991  -0.722  0.00  0.00     0.003 A 
ATOM     14  C   UNN dAMED      -5.140   3.170   0.478  0.00  0.00     0.021 A 
ATOM     15  C   UNN dAMED      -4.775   2.365   1.544  0.00  0.00     0.099 A 
ATOM     16  N   UNN dAMED      -3.807   1.422   1.490  0.00  0.00    -0.242 NA
ENDROOT
BRANCH   7  17
ATOM     17  N   UNN dAMED       1.396   0.216   0.360  0.00  0.00    -0.205 NA
ATOM     18  C   UNN dAMED       1.760   0.525   1.594  0.00  0.00     0.203 C 
ATOM     19  N   UNN dAMED       1.913   1.800   1.894  0.00  0.00    -0.125 N 
BRANCH  18  20
ATOM     20  C   UNN dAMED       2.271  -0.484   2.514  0.00  0.00     0.119 A 
ATOM     21  C   UNN dAMED       1.563  -0.767   3.673  0.00  0.00     0.022 A 
ATOM     22  C   UNN dAMED       2.091  -1.741   4.510  0.00  0.00     0.003 A 
ATOM     23  C   UNN dAMED       3.276  -2.387   4.172  0.00  0.00     0.021 A 
ATOM     24  C   UNN dAMED       3.895  -2.030   2.984  0.00  0.00     0.099 A 
ATOM     25  N   UNN dAMED       3.423  -1.086   2.141  0.00  0.00    -0.241 NA
ENDBRANCH  18  20
ENDBRANCH   7  17
TORSDOF 2
