REMARK  0 active torsions:
REMARK  status: ('A' for Active; 'I' for Inactive)
ROOT
ATOM      1 CL   UNN dAMED       3.787   0.412   1.305  0.00  0.00    -0.041 Cl
ATOM      2  N   UNN dAMED       2.086  -1.149   0.112  0.00  0.00    -0.204 NA
ATOM      3  N   UNN dAMED       1.307   1.025   0.839  0.00  0.00    -0.198 NA
ATOM      4 CL   UNN dAMED       0.668  -2.946  -1.100  0.00  0.00    -0.060 Cl
ATOM      5  N   UNN dAMED      -1.498  -0.513  -0.670  0.00  0.00    -0.303 N 
ATOM      6  H   UNN dAMED      -2.006  -1.246  -1.144  0.00  0.00     0.171 HD
ATOM      7  N   UNN dAMED      -1.028   1.442   0.330  0.00  0.00    -0.291 N 
ATOM      8  H   UNN dAMED      -1.121   2.369   0.711  0.00  0.00     0.172 HD
ATOM      9  O   UNN dAMED      -3.198   1.081  -0.472  0.00  0.00    -0.247 OA
ATOM     10  C   UNN dAMED       0.857  -1.412  -0.368  0.00  0.00     0.160 A 
ATOM     11  C   UNN dAMED      -0.163  -0.518  -0.277  0.00  0.00     0.123 A 
ATOM     12  C   UNN dAMED       0.130   0.677   0.337  0.00  0.00     0.165 A 
ATOM     13  C   UNN dAMED      -2.051   0.718  -0.292  0.00  0.00     0.326 A 
ATOM     14  C   UNN dAMED       2.233   0.061   0.689  0.00  0.00     0.226 A 
ENDROOT
TORSDOF 0
