REMARK  3 active torsions:
REMARK  status: ('A' for Active; 'I' for Inactive)
REMARK    1  A    between atoms: C_1  and  C_15 
REMARK    2  A    between atoms: C_2  and  N_3 
REMARK    3  A    between atoms: C_2  and  C_15 
ROOT
ATOM      1  N   UNN dAMED      -0.021  -0.628  -0.080  0.00  0.00     0.166 N 
ATOM      2  C   UNN dAMED      -1.301  -1.035  -0.695  0.00  0.00     0.331 C 
ATOM      3  C   UNN dAMED      -0.733   0.678  -0.033  0.00  0.00     0.331 C 
ATOM      4  H   UNN dAMED      -2.051   1.968   0.812  0.00  0.00     0.132 HD
ATOM      5  N   UNN dAMED      -2.501  -1.140   0.062  0.00  0.00    -0.231 NA
ATOM      6  N   UNN dAMED      -1.903   0.965   0.744  0.00  0.00    -0.231 NA
ATOM      7  H   UNN dAMED      -3.131  -1.804  -0.371  0.00  0.00     0.132 HD
ATOM      8  C   UNN dAMED      -2.916   0.113   0.413  0.00  0.00     0.129 C 
ATOM      9  S   UNN dAMED      -4.527   0.553   0.424  0.00  0.00    -0.053 SA
ENDROOT
BRANCH   1  10
ATOM     10  C   UNN dAMED       1.208  -0.713  -0.864  0.00  0.00     0.196 C 
ATOM     11  C   UNN dAMED       1.032  -1.688  -2.072  0.00  0.00     0.033 C 
ATOM     12  C   UNN dAMED       2.448  -0.940   0.080  0.00  0.00     0.033 C 
BRANCH  10  13
ATOM     13  C   UNN dAMED       1.922  -2.121  -0.500  0.00  0.00     0.031 C 
BRANCH  13  14
ATOM     14  C   UNN dAMED       1.331  -3.729  -1.437  0.00  0.00     0.002 C 
ATOM     15  C   UNN dAMED       1.922  -2.118  -0.496  0.00  0.00     0.000 C 
ATOM     16  C   UNN dAMED       1.928  -2.121  -0.494  0.00  0.00     0.000 C 
ATOM     17  C   UNN dAMED       1.924  -2.117  -0.497  0.00  0.00     0.000 C 
ENDBRANCH  13  14
ENDBRANCH  10  13
ENDBRANCH   1  10
TORSDOF 3
