REMARK  2 active torsions:
REMARK  status: ('A' for Active; 'I' for Inactive)
REMARK    1  A    between atoms: C_4  and  S_8 
REMARK    2  A    between atoms: C_5  and  N_12 
ROOT
ATOM      1 CL   UNN dAMED       4.006  -1.404   0.054  0.00  0.00    -0.082 Cl
ATOM      2  C   UNN dAMED       0.070  -1.809  -0.449  0.00  0.00     0.015 A 
ATOM      3  C   UNN dAMED       1.436  -2.075  -0.378  0.00  0.00     0.012 A 
ATOM      4  C   UNN dAMED      -0.390  -0.528  -0.165  0.00  0.00     0.129 A 
ATOM      5  C   UNN dAMED       0.510   0.478   0.171  0.00  0.00     0.140 A 
ATOM      6  C   UNN dAMED       2.328  -1.058  -0.036  0.00  0.00     0.059 A 
ATOM      7  C   UNN dAMED       1.878   0.231   0.237  0.00  0.00     0.036 A 
ENDROOT
BRANCH   4   8
ATOM      8  S   UNN dAMED      -2.119  -0.226  -0.286  0.00  0.00     0.304 S 
ATOM      9  O   UNN dAMED      -2.755  -1.274   0.490  0.00  0.00    -0.197 OA
ATOM     10  O   UNN dAMED      -2.382  -0.111  -1.709  0.00  0.00    -0.197 OA
ATOM     11  N   UNN dAMED      -2.461   1.276   0.451  0.00  0.00    -0.043 N 
ENDBRANCH   4   8
BRANCH   5  12
ATOM     12  N   UNN dAMED       0.071   1.813   0.474  0.00  0.00    -0.113 N 
ATOM     13  O   UNN dAMED       0.110   2.158   1.662  0.00  0.00    -0.532 OA
ATOM     14  O   UNN dAMED      -0.297   2.514  -0.477  0.00  0.00    -0.532 OA
ENDBRANCH   5  12
TORSDOF 2
