REMARK  0 active torsions:
REMARK  status: ('A' for Active; 'I' for Inactive)
ROOT
ATOM      1 CL   UNN dAMED      -3.325  -2.198  -1.124  0.00  0.00    -0.081 Cl
ATOM      2  O   UNN dAMED       0.453   2.374   1.113  0.00  0.00    -0.286 OA
ATOM      3  O   UNN dAMED      -0.454  -2.386  -1.086  0.00  0.00    -0.286 OA
ATOM      4 CL   UNN dAMED       3.325   2.201   1.117  0.00  0.00    -0.081 Cl
ATOM      5  C   UNN dAMED       2.756   0.728   0.429  0.00  0.00     0.074 A 
ATOM      6  C   UNN dAMED       1.406   0.392   0.232  0.00  0.00     0.054 A 
ATOM      7  C   UNN dAMED       3.766  -0.164   0.055  0.00  0.00     0.081 A 
ATOM      8  C   UNN dAMED       0.278   1.278   0.600  0.00  0.00     0.197 A 
ATOM      9  C   UNN dAMED      -1.108   0.844   0.347  0.00  0.00     0.043 A 
ATOM     10  C   UNN dAMED      -2.128   1.731   0.709  0.00  0.00     0.004 A 
ATOM     11  C   UNN dAMED      -3.458   1.396   0.504  0.00  0.00     0.015 A 
ATOM     12  C   UNN dAMED       3.458  -1.392  -0.514  0.00  0.00     0.015 A 
ATOM     13  C   UNN dAMED       1.107  -0.846  -0.341  0.00  0.00     0.043 A 
ATOM     14  C   UNN dAMED      -1.406  -0.394  -0.227  0.00  0.00     0.054 A 
ATOM     15  C   UNN dAMED      -3.766   0.169  -0.066  0.00  0.00     0.081 A 
ATOM     16  C   UNN dAMED       2.128  -1.730  -0.710  0.00  0.00     0.004 A 
ATOM     17  C   UNN dAMED      -0.279  -1.284  -0.586  0.00  0.00     0.197 A 
ATOM     18  C   UNN dAMED      -2.756  -0.726  -0.432  0.00  0.00     0.074 A 
ATOM     19  N   UNN dAMED      -5.127  -0.189  -0.284  0.00  0.00    -0.100 NA
ATOM     20  N   UNN dAMED       5.127   0.199   0.263  0.00  0.00    -0.100 NA
ENDROOT
TORSDOF 0
