REMARK  1 active torsions:
REMARK  status: ('A' for Active; 'I' for Inactive)
REMARK    1  A    between atoms: C_5  and  C_20 
ROOT
ATOM      1  N   UNN dAMED      -0.142   0.300  -0.211  0.00  0.00    -0.306 N 
ATOM      2  C   UNN dAMED       3.719   1.890  -0.396  0.00  0.00     0.000 A 
ATOM      3  C   UNN dAMED       3.279   1.226   0.748  0.00  0.00     0.002 A 
ATOM      4  C   UNN dAMED       2.874   2.027  -1.497  0.00  0.00     0.007 A 
ATOM      5  C   UNN dAMED       1.580   1.501  -1.471  0.00  0.00     0.081 A 
ATOM      6  C   UNN dAMED       1.992   0.700   0.796  0.00  0.00     0.018 A 
ATOM      7  C   UNN dAMED       1.155   0.837  -0.313  0.00  0.00     0.070 A 
ATOM      8  C   UNN dAMED       0.356  -2.147  -0.628  0.00  0.00     0.018 A 
ATOM      9  C   UNN dAMED      -0.460  -1.040  -0.350  0.00  0.00     0.064 A 
ATOM     10  C   UNN dAMED      -0.252  -3.403  -0.685  0.00  0.00     0.002 A 
ATOM     11  C   UNN dAMED      -1.618  -3.552  -0.478  0.00  0.00     0.000 A 
ATOM     12  C   UNN dAMED      -1.835  -1.165  -0.140  0.00  0.00     0.018 A 
ATOM     13  C   UNN dAMED      -2.421  -2.443  -0.209  0.00  0.00     0.002 A 
ATOM     14  C   UNN dAMED      -2.351   0.138   0.121  0.00  0.00     0.018 A 
ATOM     15  C   UNN dAMED      -1.440   2.402   0.335  0.00  0.00     0.018 A 
ATOM     16  C   UNN dAMED      -1.278   1.030   0.092  0.00  0.00     0.064 A 
ATOM     17  C   UNN dAMED      -2.729   2.867   0.596  0.00  0.00     0.002 A 
ATOM     18  C   UNN dAMED      -3.814   2.000   0.624  0.00  0.00     0.000 A 
ATOM     19  C   UNN dAMED      -3.640   0.635   0.395  0.00  0.00     0.002 A 
ENDROOT
BRANCH   5  20
ATOM     20  C   UNN dAMED       0.718   1.682  -2.670  0.00  0.00     0.212 C 
ATOM     21  O   UNN dAMED      -0.014   2.717  -2.688  0.00  0.00    -0.644 OA
ATOM     22  O   UNN dAMED       0.808   0.791  -3.568  0.00  0.00    -0.644 OA
ENDBRANCH   5  20
TORSDOF 1
