REMARK  0 active torsions:
REMARK  status: ('A' for Active; 'I' for Inactive)
ROOT
ATOM      1  N   UNN dAMED       1.396  -1.680  -0.182  0.00  0.00    -0.128 NA
ATOM      2  N   UNN dAMED       1.414   0.434  -0.139  0.00  0.00    -0.264 N 
ATOM      3  N   UNN dAMED       2.729  -1.216  -0.313  0.00  0.00    -0.116 NA
ATOM      4 CL   UNN dAMED       3.913   1.241  -0.386  0.00  0.00    -0.041 Cl
ATOM      5  C   UNN dAMED       2.686   0.097  -0.281  0.00  0.00     0.230 A 
ATOM      6  C   UNN dAMED       0.599  -0.626  -0.076  0.00  0.00     0.171 A 
ATOM      7  C   UNN dAMED      -0.830  -0.507   0.077  0.00  0.00     0.036 A 
ATOM      8  C   UNN dAMED      -1.668  -1.616   0.142  0.00  0.00     0.003 A 
ATOM      9  C   UNN dAMED      -3.042  -1.432   0.290  0.00  0.00     0.000 A 
ATOM     10  C   UNN dAMED      -1.371   0.782   0.161  0.00  0.00     0.004 A 
ATOM     11  C   UNN dAMED      -3.575  -0.145   0.373  0.00  0.00     0.000 A 
ATOM     12  C   UNN dAMED      -2.740   0.968   0.309  0.00  0.00     0.000 A 
ATOM     13  C   UNN dAMED      -0.414   1.950   0.084  0.00  0.00     0.019 A 
ATOM     14  C   UNN dAMED       0.902   1.750  -0.059  0.00  0.00     0.084 A 
ENDROOT
TORSDOF 0
