REMARK  6 active torsions:
REMARK  status: ('A' for Active; 'I' for Inactive)
REMARK    1  A    between atoms: C_4  and  N_31 
REMARK    2  A    between atoms: C_5  and  C_7 
REMARK       I    between atoms: C_7  and  N_29 
REMARK       I    between atoms: C_9  and  N_29 
REMARK       I    between atoms: C_9  and  N_30 
REMARK    3  A    between atoms: C_11  and  N_30 
REMARK    4  A    between atoms: C_14  and  O_17 
REMARK    5  A    between atoms: O_17  and  C_18 
REMARK    6  A    between atoms: C_25  and  C_27 
REMARK       I    between atoms: C_25  and  N_31 
ROOT
ATOM      1  C   UNN dAMED       3.043  -0.139  -0.246  0.00  0.00     0.284 C 
ATOM      2  O   UNN dAMED       2.605  -1.286  -0.276  0.00  0.00    -0.265 OA
ATOM      3  C   UNN dAMED       2.367   0.921  -2.109  0.00  0.00     0.371 C 
ATOM      4  O   UNN dAMED       2.800   0.046  -2.858  0.00  0.00    -0.242 OA
ATOM      5  N   UNN dAMED       2.498   0.967  -0.758  0.00  0.00    -0.152 NA
ATOM      6  N   UNN dAMED       1.615   1.978  -2.497  0.00  0.00    -0.191 NA
ENDROOT
BRANCH   6   7
ATOM      7  C   UNN dAMED       2.033   2.626  -3.609  0.00  0.00     0.086 A 
ATOM      8  C   UNN dAMED       3.371   2.962  -3.864  0.00  0.00     0.017 A 
ATOM      9  C   UNN dAMED       3.732   3.738  -4.966  0.00  0.00     0.003 A 
ATOM     10  C   UNN dAMED       2.753   4.242  -5.819  0.00  0.00     0.099 A 
ATOM     11  C   UNN dAMED       5.184   3.932  -5.302  0.00  0.00     0.033 C 
ATOM     12  C   UNN dAMED       1.423   3.894  -5.614  0.00  0.00     0.026 A 
ATOM     13  C   UNN dAMED       1.076   3.108  -4.513  0.00  0.00     0.021 A 
BRANCH  10  14
ATOM     14  O   UNN dAMED       3.202   5.008  -6.868  0.00  0.00    -0.275 OA
BRANCH  14  15
ATOM     15  C   UNN dAMED       2.315   5.919  -7.428  0.00  0.00     0.275 A 
ATOM     16  N   UNN dAMED       1.645   6.764  -6.611  0.00  0.00    -0.203 NA
ATOM     17  C   UNN dAMED       0.859   7.668  -7.232  0.00  0.00     0.111 A 
ATOM     18  C   UNN dAMED       0.768   7.769  -8.602  0.00  0.00     0.073 A 
ATOM     19  C   UNN dAMED       1.525   6.888  -9.339  0.00  0.00     0.111 A 
ATOM     20 BR   UNN dAMED      -0.328   9.042  -9.428  0.00  0.00    -0.046 Br
ATOM     21  N   UNN dAMED       2.311   5.948  -8.778  0.00  0.00    -0.203 NA
ENDBRANCH  14  15
ENDBRANCH  10  14
ENDBRANCH   6   7
BRANCH   1  22
ATOM     22  C   UNN dAMED       4.255   0.112   0.563  0.00  0.00     0.076 A 
ATOM     23  C   UNN dAMED       5.526   0.265  -0.026  0.00  0.00     0.089 A 
ATOM     24  C   UNN dAMED       6.593   0.534   0.846  0.00  0.00     0.019 A 
ATOM     25  C   UNN dAMED       6.419   0.606   2.229  0.00  0.00     0.002 A 
ATOM     26  C   UNN dAMED       5.156   0.425   2.780  0.00  0.00     0.000 A 
ATOM     27  C   UNN dAMED       4.069   0.181   1.949  0.00  0.00     0.006 A 
BRANCH  23  28
ATOM     28  N   UNN dAMED       5.720   0.246  -1.363  0.00  0.00    -0.207 NA
ATOM     29  C   UNN dAMED       6.358  -0.851  -1.767  0.00  0.00     0.288 C 
ATOM     30  O   UNN dAMED       5.899  -1.985  -1.857  0.00  0.00    -0.264 OA
BRANCH  29  31
ATOM     31  C   UNN dAMED       7.711  -0.618  -2.384  0.00  0.00     0.106 C 
ATOM     32  N   UNN dAMED       8.197   0.742  -2.550  0.00  0.00    -0.100 NA
ATOM     33  C   UNN dAMED       8.474  -1.782  -3.023  0.00  0.00     0.052 C 
ENDBRANCH  29  31
ENDBRANCH  23  28
ENDBRANCH   1  22
TORSDOF 6
