REMARK  2 active torsions:
REMARK  status: ('A' for Active; 'I' for Inactive)
REMARK    1  A    between atoms: N_3  and  C_20 
REMARK    2  A    between atoms: C_20  and  C_21 
ROOT
ATOM      1  O   UNN dAMED       2.468   2.018  -2.280  0.00  0.00    -0.269 OA
ATOM      2  N   UNN dAMED      -0.865   1.267  -1.604  0.00  0.00    -0.259 NA
ATOM      3  N   UNN dAMED       1.947   0.275  -0.887  0.00  0.00    -0.270 N 
ATOM      4  N   UNN dAMED      -3.480  -0.124  -0.704  0.00  0.00    -0.243 NA
ATOM      5 CL   UNN dAMED      -0.978  -3.872   2.098  0.00  0.00    -0.082 Cl
ATOM      6  C   UNN dAMED      -5.003   0.756   0.954  0.00  0.00     0.021 A 
ATOM      7  C   UNN dAMED      -4.712  -0.012  -0.164  0.00  0.00     0.099 A 
ATOM      8  C   UNN dAMED      -3.961   1.455   1.555  0.00  0.00     0.003 A 
ATOM      9  C   UNN dAMED      -2.674   1.368   1.041  0.00  0.00     0.021 A 
ATOM     10  C   UNN dAMED      -2.501   0.564  -0.075  0.00  0.00     0.099 A 
ATOM     11  C   UNN dAMED      -1.156   0.431  -0.662  0.00  0.00     0.096 C 
ATOM     12  C   UNN dAMED      -0.248  -0.630  -0.141  0.00  0.00     0.036 A 
ATOM     13  C   UNN dAMED      -0.880  -1.652   0.584  0.00  0.00     0.014 A 
ATOM     14  C   UNN dAMED      -0.154  -2.645   1.230  0.00  0.00     0.058 A 
ATOM     15  C   UNN dAMED       1.229  -2.634   1.190  0.00  0.00     0.013 A 
ATOM     16  C   UNN dAMED       1.153  -0.638  -0.211  0.00  0.00     0.068 A 
ATOM     17  C   UNN dAMED       1.871  -1.628   0.475  0.00  0.00     0.018 A 
ATOM     18  C   UNN dAMED       0.296   1.182  -2.410  0.00  0.00     0.213 C 
ATOM     19  C   UNN dAMED       1.653   1.243  -1.792  0.00  0.00     0.266 C 
ENDROOT
BRANCH   3  20
ATOM     20  C   UNN dAMED       3.332   0.189  -0.552  0.00  0.00     0.154 C 
BRANCH  20  21
ATOM     21  C   UNN dAMED       4.380  -0.428  -1.464  0.00  0.00     0.230 C 
ATOM     22  O   UNN dAMED       3.972  -1.157  -2.418  0.00  0.00    -0.643 OA
ATOM     23  O   UNN dAMED       5.587  -0.182  -1.164  0.00  0.00    -0.643 OA
ENDBRANCH  20  21
ENDBRANCH   3  20
TORSDOF 2
