REMARK  3 active torsions:
REMARK  status: ('A' for Active; 'I' for Inactive)
REMARK    1  A    between atoms: C_6  and  N_23 
REMARK    2  A    between atoms: C_7  and  C_9 
REMARK       I    between atoms: C_7  and  N_23 
REMARK       I    between atoms: C_9  and  N_24 
REMARK    3  A    between atoms: C_12  and  N_24 
ROOT
ATOM      1  C   UNN dAMED      -0.538  -1.916   0.450  0.00  0.00     0.337 C 
ATOM      2  O   UNN dAMED      -0.070  -1.520   1.510  0.00  0.00    -0.260 OA
ATOM      3  N   UNN dAMED      -1.657  -1.568  -0.190  0.00  0.00    -0.204 NA
ENDROOT
BRANCH   1   4
ATOM      4  C   UNN dAMED       0.242  -2.950  -0.330  0.00  0.00     0.337 C 
ATOM      5  O   UNN dAMED      -0.224  -4.082  -0.381  0.00  0.00    -0.260 OA
ATOM      6  N   UNN dAMED       1.435  -2.529  -0.753  0.00  0.00    -0.204 NA
BRANCH   6   7
ATOM      7  C   UNN dAMED       1.372  -1.693  -1.818  0.00  0.00     0.085 A 
ATOM      8  C   UNN dAMED       1.541  -0.316  -1.587  0.00  0.00     0.019 A 
ATOM      9  C   UNN dAMED       1.519   0.623  -2.615  0.00  0.00     0.002 A 
ATOM     10  C   UNN dAMED       1.340   0.198  -3.922  0.00  0.00     0.000 A 
ATOM     11  C   UNN dAMED       1.199  -1.159  -4.187  0.00  0.00     0.002 A 
ATOM     12  C   UNN dAMED       1.219  -2.120  -3.160  0.00  0.00     0.018 A 
ATOM     13  C   UNN dAMED       1.087  -3.524  -3.550  0.00  0.00     0.002 A 
ATOM     14  C   UNN dAMED      -0.176  -4.096  -3.741  0.00  0.00     0.000 A 
ATOM     15  C   UNN dAMED       2.222  -4.307  -3.788  0.00  0.00     0.000 A 
ATOM     16  C   UNN dAMED      -0.303  -5.422  -4.150  0.00  0.00     0.000 A 
ATOM     17  C   UNN dAMED       0.835  -6.189  -4.381  0.00  0.00     0.000 A 
ATOM     18  C   UNN dAMED       2.098  -5.633  -4.200  0.00  0.00     0.000 A 
ENDBRANCH   6   7
ENDBRANCH   1   4
BRANCH   3  19
ATOM     19  C   UNN dAMED      -2.729  -1.467   0.633  0.00  0.00     0.085 A 
ATOM     20  C   UNN dAMED      -3.362  -0.229   0.902  0.00  0.00     0.018 A 
ATOM     21  C   UNN dAMED      -4.473  -0.195   1.762  0.00  0.00     0.002 A 
ATOM     22  C   UNN dAMED      -2.930   1.030   0.291  0.00  0.00     0.002 A 
ATOM     23  C   UNN dAMED      -4.979  -1.354   2.342  0.00  0.00     0.000 A 
ATOM     24  C   UNN dAMED      -4.390  -2.576   2.054  0.00  0.00     0.002 A 
ATOM     25  C   UNN dAMED      -3.286  -2.625   1.206  0.00  0.00     0.019 A 
ATOM     26  C   UNN dAMED      -1.959   1.830   0.901  0.00  0.00     0.000 A 
ATOM     27  C   UNN dAMED      -3.492   1.458  -0.917  0.00  0.00     0.000 A 
ATOM     28  C   UNN dAMED      -1.555   3.027   0.314  0.00  0.00     0.000 A 
ATOM     29  C   UNN dAMED      -2.121   3.440  -0.889  0.00  0.00     0.000 A 
ATOM     30  C   UNN dAMED      -3.091   2.655  -1.506  0.00  0.00     0.000 A 
ENDBRANCH   3  19
TORSDOF 3
