REMARK  2 active torsions:
REMARK  status: ('A' for Active; 'I' for Inactive)
REMARK    1  A    between atoms: C_3  and  O_17 
REMARK       I    between atoms: N_14  and  C_15 
REMARK    2  A    between atoms: C_15  and  O_17 
ROOT
ATOM      1  C   UNN dAMED      -1.702  -1.779   3.456  0.00  0.00     0.023 A 
ATOM      2  C   UNN dAMED      -1.948  -1.542   2.103  0.00  0.00     0.087 A 
ATOM      3  C   UNN dAMED      -2.372  -2.800   4.144  0.00  0.00     0.044 A 
ATOM      4  C   UNN dAMED      -2.908  -2.348   1.489  0.00  0.00     0.023 A 
ATOM      5  C   UNN dAMED      -3.330  -3.636   3.549  0.00  0.00     0.196 A 
ATOM      6  C   UNN dAMED      -3.563  -3.363   2.194  0.00  0.00     0.044 A 
ATOM      7  O   UNN dAMED      -3.939  -4.557   4.183  0.00  0.00    -0.287 OA
ATOM      8  N   UNN dAMED      -1.377  -0.515   1.441  0.00  0.00    -0.186 NA
ATOM      9  C   UNN dAMED      -0.218  -0.819   0.847  0.00  0.00     0.392 C 
ATOM     10  O   UNN dAMED       0.150  -1.907   0.410  0.00  0.00    -0.236 OA
ENDROOT
BRANCH   9  11
ATOM     11  O   UNN dAMED       0.528   0.357   0.703  0.00  0.00    -0.258 OA
BRANCH  11  12
ATOM     12  C   UNN dAMED       1.808   0.179   0.165  0.00  0.00     0.105 A 
ATOM     13  C   UNN dAMED       1.994   0.376  -1.201  0.00  0.00     0.026 A 
ATOM     14  C   UNN dAMED       3.283   0.308  -1.722  0.00  0.00     0.016 A 
ATOM     15  C   UNN dAMED       4.366   0.069  -0.877  0.00  0.00     0.070 A 
ATOM     16  C   UNN dAMED       4.167  -0.099   0.494  0.00  0.00     0.016 A 
ATOM     17  N   UNN dAMED       5.677  -0.035  -1.423  0.00  0.00    -0.101 NA
ATOM     18  C   UNN dAMED       2.882  -0.031   1.026  0.00  0.00     0.026 A 
ENDBRANCH  11  12
ENDBRANCH   9  11
TORSDOF 2
