REMARK  2 active torsions:
REMARK  status: ('A' for Active; 'I' for Inactive)
REMARK    1  A    between atoms: C_4  and  N_21 
REMARK    2  A    between atoms: C_12  and  N_21 
ROOT
ATOM      1  O   UNN dAMED      -3.020  -2.571   0.383  0.00  0.00    -0.267 OA
ATOM      2  C   UNN dAMED      -0.842  -1.603   0.405  0.00  0.00     0.147 C 
ATOM      3  C   UNN dAMED      -2.325  -1.584   0.141  0.00  0.00     0.266 C 
ATOM      4  C   UNN dAMED       0.054  -0.751  -0.162  0.00  0.00     0.122 C 
ATOM      5  N   UNN dAMED      -2.854  -0.417  -0.354  0.00  0.00    -0.336 N 
ATOM      6  H   UNN dAMED      -3.860  -0.361  -0.479  0.00  0.00     0.164 HD
ATOM      7  S   UNN dAMED      -0.514   0.555  -1.209  0.00  0.00    -0.075 SA
ATOM      8  C   UNN dAMED      -2.101   0.797  -0.446  0.00  0.00     0.108 C 
ATOM      9  C   UNN dAMED      -2.947   1.917  -1.119  0.00  0.00     0.031 C 
ATOM     10  C   UNN dAMED      -2.001   1.478   0.953  0.00  0.00     0.031 C 
ATOM     11  C   UNN dAMED      -3.815   2.663  -0.113  0.00  0.00     0.003 C 
ATOM     12  C   UNN dAMED      -3.195   2.386   1.236  0.00  0.00     0.003 C 
ATOM     13  C   UNN dAMED      -0.380  -2.626   1.295  0.00  0.00     0.108 C 
ATOM     14  N   UNN dAMED      -0.017  -3.451   2.024  0.00  0.00    -0.191 NA
ENDROOT
BRANCH   4  15
ATOM     15  N   UNN dAMED       1.401  -0.661   0.000  0.00  0.00    -0.238 NA
BRANCH  15  16
ATOM     16  C   UNN dAMED       2.177  -1.461  -0.773  0.00  0.00     0.082 A 
ATOM     17  C   UNN dAMED       3.569  -1.370  -0.625  0.00  0.00     0.015 A 
ATOM     18  C   UNN dAMED       4.449  -2.140  -1.387  0.00  0.00    -0.020 A 
ATOM     19  C   UNN dAMED       3.952  -3.035  -2.327  0.00  0.00    -0.004 A 
ATOM     20  C   UNN dAMED       5.934  -1.999  -1.189  0.00  0.00     0.031 C 
ATOM     21  C   UNN dAMED       2.579  -3.159  -2.499  0.00  0.00     0.001 A 
ATOM     22  C   UNN dAMED       1.715  -2.378  -1.732  0.00  0.00     0.019 A 
ENDBRANCH  15  16
ENDBRANCH   4  15
TORSDOF 2
