REMARK  2 active torsions:
REMARK  status: ('A' for Active; 'I' for Inactive)
REMARK    1  A    between atoms: C_3  and  N_14 
REMARK    2  A    between atoms: C_12  and  N_14 
ROOT
ATOM      1  C   UNN dAMED      -0.492   1.002   2.065  0.00  0.00     0.022 A 
ATOM      2  C   UNN dAMED      -0.804   0.785   0.702  0.00  0.00     0.122 A 
ATOM      3  C   UNN dAMED      -1.425   0.847   3.083  0.00  0.00     0.002 A 
ATOM      4  C   UNN dAMED      -2.146   0.428   0.343  0.00  0.00     0.213 A 
ATOM      5  C   UNN dAMED      -2.720   0.495   2.757  0.00  0.00     0.003 A 
ATOM      6  C   UNN dAMED      -3.052   0.298   1.418  0.00  0.00     0.044 A 
ATOM      7  O   UNN dAMED      -2.551   0.244  -0.857  0.00  0.00    -0.285 OA
ENDROOT
BRANCH   2   8
ATOM      8  N   UNN dAMED       0.129   1.020  -0.263  0.00  0.00    -0.224 NA
BRANCH   8   9
ATOM      9  C   UNN dAMED       1.341   0.447  -0.090  0.00  0.00     0.163 A 
ATOM     10  N   UNN dAMED       1.400  -0.905   0.033  0.00  0.00    -0.225 NA
ATOM     11  C   UNN dAMED       2.628  -1.470   0.125  0.00  0.00     0.101 A 
ATOM     12  C   UNN dAMED       3.818  -0.765   0.066  0.00  0.00     0.021 A 
ATOM     13  C   UNN dAMED       3.738   0.610  -0.088  0.00  0.00     0.005 A 
ATOM     14  C   UNN dAMED       2.493   1.226  -0.167  0.00  0.00     0.039 A 
ENDBRANCH   8   9
ENDBRANCH   2   8
TORSDOF 2
