REMARK  0 active torsions:
REMARK  status: ('A' for Active; 'I' for Inactive)
ROOT
ATOM      1  O   UNN dAMED       9.536   9.868   3.612  0.00  0.00    -0.287 OA
ATOM      2  O   UNN dAMED       3.539   2.378  -0.529  0.00  0.00    -0.327 OA
ATOM      3  O   UNN dAMED       3.470   0.323   0.668  0.00  0.00    -0.302 OA
ATOM      4  O   UNN dAMED       5.729  -0.327   0.297  0.00  0.00    -0.302 OA
ATOM      5  O   UNN dAMED       5.298  -1.247  -1.937  0.00  0.00    -0.322 OA
ATOM      6  C   UNN dAMED       2.819   1.508   0.300  0.00  0.00     0.296 C 
ATOM      7  C   UNN dAMED       4.596   0.347  -0.199  0.00  0.00     0.243 C 
ATOM      8  C   UNN dAMED       4.846   1.808  -0.463  0.00  0.00     0.148 C 
ATOM      9  C   UNN dAMED       4.279  -0.388  -1.487  0.00  0.00     0.204 C 
ATOM     10  C   UNN dAMED       5.619   2.056  -1.780  0.00  0.00     0.034 C 
ATOM     11  C   UNN dAMED       5.635   2.542   0.639  0.00  0.00     0.049 C 
ATOM     12  C   UNN dAMED       4.791   3.805   1.166  0.00  0.00     0.060 C 
ATOM     13  C   UNN dAMED       5.415   4.862   2.101  0.00  0.00     0.105 C 
ATOM     14  C   UNN dAMED       6.476   3.317  -1.697  0.00  0.00     0.025 C 
ATOM     15  C   UNN dAMED       6.381   3.763  -0.252  0.00  0.00    -0.042 C 
ATOM     16  C   UNN dAMED       6.670   5.540   1.548  0.00  0.00     0.002 C 
ATOM     17  C   UNN dAMED       7.290   4.805   0.395  0.00  0.00    -0.010 C 
ATOM     18  C   UNN dAMED       7.622   6.361   2.389  0.00  0.00     0.043 C 
ATOM     19  C   UNN dAMED       6.905   7.330   3.370  0.00  0.00     0.040 C 
ATOM     20  C   UNN dAMED       7.721   8.388   4.059  0.00  0.00     0.045 C 
ATOM     21  C   UNN dAMED       8.325   5.593  -0.392  0.00  0.00    -0.005 C 
ATOM     22  C   UNN dAMED       8.558   7.125   1.501  0.00  0.00    -0.019 C 
ATOM     23  C   UNN dAMED       8.879   8.891   3.287  0.00  0.00     0.193 C 
ATOM     24  C   UNN dAMED       8.928   6.624   0.206  0.00  0.00    -0.025 C 
ATOM     25  C   UNN dAMED       9.135   8.258   1.930  0.00  0.00     0.037 C 
ATOM     26  C   UNN dAMED       5.890  -1.356  -0.648  0.00  0.00     0.296 C 
ATOM     27  O   UNN dAMED       7.781   9.848   5.970  0.00  0.00    -0.188 OA
ATOM     28  C   UNN dAMED       7.178   8.915   5.165  0.00  0.00     0.155 C 
ATOM     29  C   UNN dAMED       8.387   5.920   3.648  0.00  0.00     0.009 C 
ATOM     30  O   UNN dAMED       4.580   5.569   2.925  0.00  0.00    -0.195 OA
ATOM     31  C   UNN dAMED       9.923   7.378  -0.634  0.00  0.00     0.031 C 
ATOM     32  C   UNN dAMED       6.261   3.965  -0.034  0.00  0.00     0.007 C 
ATOM     33  C   UNN dAMED       5.127   1.509  -3.124  0.00  0.00     0.003 C 
ENDROOT
TORSDOF 0
