REMARK  0 active torsions:
REMARK  status: ('A' for Active; 'I' for Inactive)
ROOT
ATOM      1  C   UNN dAMED      -0.394   0.950   5.729  0.00  0.00     0.001 C 
ATOM      2  C   UNN dAMED      -1.710   0.553   5.048  0.00  0.00     0.013 C 
ATOM      3  C   UNN dAMED      -2.029   1.162   3.686  0.00  0.00     0.095 C 
ATOM      4  C   UNN dAMED      -0.569   1.568   3.284  0.00  0.00    -0.011 C 
ATOM      5  C   UNN dAMED       0.505   0.470   3.404  0.00  0.00     0.068 C 
ATOM      6  C   UNN dAMED       0.844   0.823   4.848  0.00  0.00     0.009 C 
ATOM      7  C   UNN dAMED      -0.071   3.012   3.392  0.00  0.00     0.101 C 
ATOM      8  C   UNN dAMED       1.420   3.184   3.129  0.00  0.00     0.056 C 
ATOM      9  C   UNN dAMED       2.113   2.080   2.326  0.00  0.00     0.032 C 
ATOM     10  C   UNN dAMED       1.632   0.621   2.437  0.00  0.00     0.099 C 
ATOM     11  O   UNN dAMED       1.209   0.171   1.138  0.00  0.00    -0.354 OA
ATOM     12  C   UNN dAMED       3.321  -0.855   1.580  0.00  0.00     0.040 C 
ATOM     13  C   UNN dAMED       2.800  -0.258   2.852  0.00  0.00     0.031 C 
ATOM     14  C   UNN dAMED       2.282  -0.568   0.514  0.00  0.00     0.172 A 
ATOM     15  C   UNN dAMED       2.647   0.070  -0.793  0.00  0.00     0.070 A 
ATOM     16  C   UNN dAMED       2.298  -0.963  -1.821  0.00  0.00     0.155 A 
ATOM     17  O   UNN dAMED       1.691  -2.093  -1.259  0.00  0.00    -0.300 OA
ATOM     18  C   UNN dAMED       1.637  -1.882   0.098  0.00  0.00     0.296 A 
ATOM     19  C   UNN dAMED      -0.471  -0.679   3.115  0.00  0.00     0.158 C 
ATOM     20  O   UNN dAMED      -1.503  -0.586   2.171  0.00  0.00    -0.301 OA
ATOM     21  C   UNN dAMED      -2.516   0.129   2.724  0.00  0.00     0.274 C 
ATOM     22  O   UNN dAMED      -3.678   0.057   2.347  0.00  0.00    -0.264 OA
ATOM     23  C   UNN dAMED      -2.174   2.555   3.057  0.00  0.00     0.014 C 
ATOM     24  O   UNN dAMED      -0.727   3.936   4.162  0.00  0.00    -0.196 OA
ATOM     25  C   UNN dAMED       3.424   2.386   1.596  0.00  0.00     0.003 C 
ATOM     26  O   UNN dAMED       1.146  -2.683   0.884  0.00  0.00    -0.262 OA
ENDROOT
TORSDOF 0
