REMARK  3 active torsions:
REMARK  status: ('A' for Active; 'I' for Inactive)
REMARK    1  A    between atoms: C_4  and  N_10 
REMARK    2  A    between atoms: C_6  and  O_7 
REMARK       I    between atoms: N_10  and  C_11 
REMARK    3  A    between atoms: C_11  and  C_13 
ROOT
ATOM      1  O   UNN dAMED       1.580  -0.547  -0.695  0.00  0.00    -0.258 OA
ATOM      2  C   UNN dAMED       0.708   0.553   1.835  0.00  0.00     0.109 C 
ATOM      3  C   UNN dAMED       1.491   1.440   0.866  0.00  0.00     0.161 C 
ATOM      4  C   UNN dAMED      -0.107  -0.559   1.172  0.00  0.00     0.118 C 
ATOM      5  C   UNN dAMED       0.622  -1.262   0.018  0.00  0.00     0.248 C 
ATOM      6  C   UNN dAMED       1.862   0.806  -0.491  0.00  0.00     0.223 C 
ATOM      7  O   UNN dAMED       2.166   2.535   1.340  0.00  0.00    -0.190 OA
ATOM      8  O   UNN dAMED       0.416  -2.591  -0.246  0.00  0.00    -0.162 OA
ENDROOT
BRANCH   4   9
ATOM      9  N   UNN dAMED      -1.557  -0.391   1.090  0.00  0.00    -0.204 NA
ATOM     10  C   UNN dAMED      -2.060   0.783   0.737  0.00  0.00     0.351 C 
ATOM     11  O   UNN dAMED      -2.270   1.176  -0.406  0.00  0.00    -0.261 OA
BRANCH  10  12
ATOM     12  C   UNN dAMED      -2.299   1.649   1.940  0.00  0.00     0.474 C 
ATOM     13  F   UNN dAMED      -2.875   0.985   2.976  0.00  0.00    -0.162 F 
ATOM     14  F   UNN dAMED      -1.140   2.180   2.407  0.00  0.00    -0.162 F 
ATOM     15  F   UNN dAMED      -3.116   2.693   1.655  0.00  0.00    -0.162 F 
ENDBRANCH  10  12
ENDBRANCH   4   9
BRANCH   6  16
ATOM     16  O   UNN dAMED       2.128   1.617  -1.596  0.00  0.00    -0.307 OA
ATOM     17  C   UNN dAMED       3.326   2.324  -1.664  0.00  0.00     0.184 C 
ENDBRANCH   6  16
TORSDOF 3
