REMARK  4 active torsions:
REMARK  status: ('A' for Active; 'I' for Inactive)
REMARK    1  A    between atoms: N_2  and  C_19 
REMARK    2  A    between atoms: C_9  and  C_22 
REMARK    3  A    between atoms: C_13  and  C_19 
REMARK    4  A    between atoms: N_20  and  N_21 
ROOT
ATOM      1  N   UNN dAMED      -1.579  -1.196   2.168  0.00  0.00    -0.070 NA
ATOM      2  N   UNN dAMED      -1.951  -0.312   1.187  0.00  0.00    -0.074 NA
ATOM      3  N   UNN dAMED      -0.346  -1.448   2.046  0.00  0.00    -0.100 NA
ATOM      4  N   UNN dAMED      -0.930  -0.123   0.289  0.00  0.00    -0.162 NA
ATOM      5  H   UNN dAMED      -0.785   0.838  -0.007  0.00  0.00     0.152 HD
ATOM      6  C   UNN dAMED       0.102  -0.753   0.940  0.00  0.00     0.258 C 
ATOM      7  N   UNN dAMED       1.373  -0.753   0.700  0.00  0.00    -0.113 NA
ENDROOT
BRANCH   7   8
ATOM      8  N   UNN dAMED       1.696  -0.009  -0.428  0.00  0.00    -0.144 NA
ATOM      9  C   UNN dAMED       0.881   0.125  -1.375  0.00  0.00     0.122 C 
BRANCH   9  10
ATOM     10  C   UNN dAMED       0.693  -0.910  -2.466  0.00  0.00     0.021 A 
ATOM     11  C   UNN dAMED      -0.556  -1.019  -3.078  0.00  0.00     0.002 A 
ATOM     12  C   UNN dAMED      -0.742  -1.898  -4.141  0.00  0.00     0.000 A 
ATOM     13  C   UNN dAMED       0.322  -2.671  -4.597  0.00  0.00     0.000 A 
ATOM     14  C   UNN dAMED       1.571  -2.564  -3.990  0.00  0.00     0.000 A 
ATOM     15  C   UNN dAMED       1.758  -1.682  -2.929  0.00  0.00     0.002 A 
ENDBRANCH   9  10
ENDBRANCH   7   8
BRANCH   2  16
ATOM     16  C   UNN dAMED      -3.062  -0.881   0.493  0.00  0.00     0.089 C 
BRANCH  16  17
ATOM     17  C   UNN dAMED      -4.494  -0.513   0.810  0.00  0.00     0.015 A 
ATOM     18  C   UNN dAMED      -5.525  -1.158   0.130  0.00  0.00     0.001 A 
ATOM     19  C   UNN dAMED      -6.853  -0.853   0.423  0.00  0.00     0.000 A 
ATOM     20  C   UNN dAMED      -7.152   0.095   1.399  0.00  0.00     0.000 A 
ATOM     21  C   UNN dAMED      -6.124   0.739   2.081  0.00  0.00     0.000 A 
ATOM     22  C   UNN dAMED      -4.798   0.435   1.787  0.00  0.00     0.001 A 
ENDBRANCH  16  17
ENDBRANCH   2  16
TORSDOF 4
