REMARK  2 active torsions:
REMARK  status: ('A' for Active; 'I' for Inactive)
REMARK    1  A    between atoms: C_3  and  N_11 
REMARK    2  A    between atoms: C_5  and  N_7 
REMARK       I    between atoms: N_7  and  C_8 
REMARK       I    between atoms: N_11  and  C_12 
ROOT
ATOM      1  N   UNN dAMED      -1.401  -1.088  -0.281  0.00  0.00    -0.205 NA
ATOM      2  N   UNN dAMED       0.830  -1.912  -0.622  0.00  0.00    -0.205 NA
ATOM      3  C   UNN dAMED       1.332  -0.703  -0.260  0.00  0.00     0.170 A 
ATOM      4  C   UNN dAMED       0.491   0.330   0.127  0.00  0.00     0.078 A 
ATOM      5  C   UNN dAMED      -0.878   0.095   0.117  0.00  0.00     0.170 A 
ATOM      6  C   UNN dAMED      -0.511  -2.037  -0.621  0.00  0.00     0.202 A 
ENDROOT
BRANCH   3   7
ATOM      7  N   UNN dAMED       2.670  -0.513  -0.248  0.00  0.00    -0.193 NA
ATOM      8  C   UNN dAMED       3.325  -1.439  -0.939  0.00  0.00     0.258 C 
ATOM      9  O   UNN dAMED       4.413  -1.316  -1.484  0.00  0.00    -0.270 OA
ATOM     10  C   UNN dAMED       2.616  -2.756  -1.105  0.00  0.00     0.100 C 
ENDBRANCH   3   7
BRANCH   5  11
ATOM     11  N   UNN dAMED      -1.753   1.067   0.422  0.00  0.00    -0.193 NA
ATOM     12  C   UNN dAMED      -2.182   0.928   1.673  0.00  0.00     0.258 C 
ATOM     13  O   UNN dAMED      -3.088   1.562   2.199  0.00  0.00    -0.270 OA
ATOM     14  C   UNN dAMED      -1.459  -0.076   2.532  0.00  0.00     0.100 C 
ENDBRANCH   5  11
TORSDOF 2
