REMARK  4 active torsions:
REMARK  status: ('A' for Active; 'I' for Inactive)
REMARK    1  A    between atoms: C_14  and  C_27 
REMARK    2  A    between atoms: C_15  and  C_25 
REMARK    3  A    between atoms: O_23  and  C_25 
REMARK    4  A    between atoms: C_27  and  O_29 
ROOT
ATOM      1  N   UNN dAMED       0.087  -0.772   0.166  0.00  0.00    -0.352 N 
ATOM      2  H   UNN dAMED      -0.384  -1.651   0.323  0.00  0.00     0.166 HD
ATOM      3  N   UNN dAMED      -2.092   0.545   2.003  0.00  0.00    -0.243 NA
ATOM      4  C   UNN dAMED      -5.393   0.962  -0.542  0.00  0.00     0.000 A 
ATOM      5  C   UNN dAMED      -5.232   1.007  -1.923  0.00  0.00     0.000 A 
ATOM      6  C   UNN dAMED      -4.284   0.827   0.291  0.00  0.00     0.003 A 
ATOM      7  C   UNN dAMED      -4.474   0.774   1.664  0.00  0.00     0.021 A 
ATOM      8  C   UNN dAMED      -3.357   0.631   2.467  0.00  0.00     0.099 A 
ATOM      9  C   UNN dAMED      -3.958   0.919  -2.475  0.00  0.00     0.000 A 
ATOM     10  C   UNN dAMED      -2.982   0.736  -0.251  0.00  0.00     0.019 A 
ATOM     11  C   UNN dAMED      -2.842   0.783  -1.649  0.00  0.00     0.002 A 
ATOM     12  C   UNN dAMED      -1.919   0.596   0.659  0.00  0.00     0.097 A 
ATOM     13  C   UNN dAMED      -0.518   0.461   0.267  0.00  0.00     0.080 A 
ATOM     14  C   UNN dAMED       0.473   1.402   0.040  0.00  0.00     0.087 A 
ATOM     15  C   UNN dAMED       1.693   0.704  -0.207  0.00  0.00     0.085 A 
ATOM     16  C   UNN dAMED       1.421  -0.655  -0.172  0.00  0.00     0.062 A 
ATOM     17  C   UNN dAMED       2.260  -1.826  -0.409  0.00  0.00     0.016 A 
ATOM     18  C   UNN dAMED       1.769  -2.885  -1.180  0.00  0.00     0.001 A 
ATOM     19  C   UNN dAMED       3.551  -1.919   0.118  0.00  0.00     0.001 A 
ATOM     20  C   UNN dAMED       4.335  -3.048  -0.127  0.00  0.00     0.000 A 
ATOM     21  C   UNN dAMED       2.540  -4.023  -1.404  0.00  0.00     0.000 A 
ATOM     22  C   UNN dAMED       3.825  -4.104  -0.878  0.00  0.00     0.000 A 
ENDROOT
BRANCH  14  23
ATOM     23  C   UNN dAMED       0.314   2.834   0.086  0.00  0.00     0.297 C 
ATOM     24  O   UNN dAMED       0.104   3.468   1.111  0.00  0.00    -0.259 OA
BRANCH  23  25
ATOM     25  O   UNN dAMED       0.503   3.405  -1.131  0.00  0.00    -0.296 OA
ATOM     26  C   UNN dAMED       1.768   3.997  -1.059  0.00  0.00     0.185 C 
ENDBRANCH  23  25
ENDBRANCH  14  23
BRANCH  15  27
ATOM     27  C   UNN dAMED       2.981   1.311  -0.447  0.00  0.00     0.297 C 
ATOM     28  O   UNN dAMED       3.581   1.252  -1.511  0.00  0.00    -0.259 OA
BRANCH  27  29
ATOM     29  O   UNN dAMED       3.439   1.982   0.642  0.00  0.00    -0.296 OA
ATOM     30  C   UNN dAMED       2.293   2.377   1.338  0.00  0.00     0.185 C 
ENDBRANCH  27  29
ENDBRANCH  15  27
TORSDOF 4
