REMARK  5 active torsions:
REMARK  status: ('A' for Active; 'I' for Inactive)
REMARK    1  A    between atoms: N_1  and  C_10 
REMARK    2  A    between atoms: N_2  and  N_17 
REMARK    3  A    between atoms: C_4  and  N_17 
REMARK    4  A    between atoms: C_7  and  O_18 
REMARK    5  A    between atoms: C_12  and  O_15 
ROOT
ATOM      1  N   UNN dAMED      -1.387   1.603  -0.605  0.00  0.00    -0.127 NA
ATOM      2  N   UNN dAMED      -0.992   1.134  -1.695  0.00  0.00    -0.042 NA
ENDROOT
BRANCH   2   3
ATOM      3  N   UNN dAMED       0.064   1.749  -2.254  0.00  0.00    -0.127 NA
BRANCH   3   4
ATOM      4  C   UNN dAMED       1.242   1.205  -1.874  0.00  0.00     0.127 A 
ATOM      5  C   UNN dAMED       2.182   2.019  -1.226  0.00  0.00     0.023 A 
ATOM      6  C   UNN dAMED       3.444   1.547  -0.861  0.00  0.00     0.002 A 
ATOM      7  C   UNN dAMED       3.799   0.232  -1.141  0.00  0.00     0.002 A 
ATOM      8  C   UNN dAMED       2.894  -0.603  -1.786  0.00  0.00     0.026 A 
ATOM      9  C   UNN dAMED       1.640  -0.112  -2.150  0.00  0.00     0.114 A 
BRANCH   9  10
ATOM     10  O   UNN dAMED       0.801  -0.976  -2.799  0.00  0.00    -0.327 OA
ATOM     11  C   UNN dAMED       1.537  -2.154  -2.947  0.00  0.00     0.181 C 
ENDBRANCH   9  10
ENDBRANCH   3   4
ENDBRANCH   2   3
BRANCH   1  12
ATOM     12  C   UNN dAMED      -2.598   0.996  -0.229  0.00  0.00     0.127 A 
ATOM     13  C   UNN dAMED      -3.768   1.759  -0.274  0.00  0.00     0.023 A 
ATOM     14  C   UNN dAMED      -4.992   1.216   0.116  0.00  0.00     0.002 A 
ATOM     15  C   UNN dAMED      -5.059  -0.101   0.564  0.00  0.00     0.002 A 
ATOM     16  C   UNN dAMED      -3.902  -0.872   0.627  0.00  0.00     0.026 A 
ATOM     17  C   UNN dAMED      -2.686  -0.318   0.239  0.00  0.00     0.114 A 
BRANCH  17  18
ATOM     18  O   UNN dAMED      -1.574  -1.107   0.309  0.00  0.00    -0.327 OA
ATOM     19  C   UNN dAMED      -1.824  -2.163  -0.572  0.00  0.00     0.181 C 
ENDBRANCH  17  18
ENDBRANCH   1  12
TORSDOF 5
