REMARK  3 active torsions:
REMARK  status: ('A' for Active; 'I' for Inactive)
REMARK    1  A    between atoms: C_10  and  O_15 
REMARK    2  A    between atoms: O_15  and  C_16 
REMARK    3  A    between atoms: C_16  and  C_17 
ROOT
ATOM      1  O   UNN dAMED      -4.587   1.347  -0.282  0.00  0.00    -0.246 OA
ATOM      2  N   UNN dAMED      -3.458  -0.684  -0.436  0.00  0.00    -0.246 N 
ATOM      3  N   UNN dAMED      -2.269   1.315  -0.233  0.00  0.00    -0.263 N 
ATOM      4  O   UNN dAMED      -2.510  -2.770  -0.035  0.00  0.00    -0.266 OA
ATOM      5  N   UNN dAMED       0.052  -1.177   0.445  0.00  0.00    -0.189 NA
ATOM      6  N   UNN dAMED       0.113   1.050   0.315  0.00  0.00    -0.193 NA
ATOM      7  C   UNN dAMED      -2.403  -1.555  -0.149  0.00  0.00     0.278 C 
ATOM      8  C   UNN dAMED      -1.201  -0.799   0.078  0.00  0.00     0.135 A 
ATOM      9  C   UNN dAMED      -1.141   0.579   0.044  0.00  0.00     0.166 A 
ATOM     10  C   UNN dAMED       0.820  -0.048   0.499  0.00  0.00     0.230 A 
ATOM     11  C   UNN dAMED      -3.529   0.722  -0.331  0.00  0.00     0.335 C 
ATOM     12  C   UNN dAMED      -4.725  -1.295  -0.249  0.00  0.00     0.138 C 
ATOM     13  C   UNN dAMED      -2.300   2.569   0.429  0.00  0.00     0.137 C 
ATOM     14  C   UNN dAMED       0.583  -2.049  -0.546  0.00  0.00     0.103 C 
ENDROOT
BRANCH  10  15
ATOM     15  O   UNN dAMED       2.118  -0.087   0.749  0.00  0.00    -0.306 OA
BRANCH  15  16
ATOM     16  C   UNN dAMED       2.514   1.250   0.831  0.00  0.00     0.151 C 
BRANCH  16  17
ATOM     17  C   UNN dAMED       3.641   1.768  -0.068  0.00  0.00     0.030 C 
ATOM     18  C   UNN dAMED       3.336   2.144  -1.521  0.00  0.00     0.003 C 
ATOM     19  C   UNN dAMED       5.097   1.613   0.384  0.00  0.00     0.003 C 
ENDBRANCH  16  17
ENDBRANCH  15  16
ENDBRANCH  10  15
TORSDOF 3
