REMARK  9 active torsions:
REMARK  status: ('A' for Active; 'I' for Inactive)
REMARK    1  A    between atoms: C_4  and  C_21 
REMARK    2  A    between atoms: C_5  and  N_22 
REMARK    3  A    between atoms: C_12  and  O_17 
REMARK    4  A    between atoms: C_14  and  C_20 
REMARK    5  A    between atoms: O_17  and  C_18 
REMARK    6  A    between atoms: N_22  and  C_23 
REMARK    7  A    between atoms: N_22  and  C_26 
REMARK    8  A    between atoms: C_23  and  C_24 
REMARK    9  A    between atoms: C_26  and  C_27 
ROOT
ATOM      1  C   UNN dAMED      -0.362  -0.272  -0.009  0.00  0.00     0.019 C 
ATOM      2  C   UNN dAMED       0.087  -0.205   1.245  0.00  0.00     0.002 C 
ENDROOT
BRANCH   1   3
ATOM      3  C   UNN dAMED      -1.842  -0.193  -0.276  0.00  0.00     0.081 A 
ATOM      4  N   UNN dAMED      -2.627   0.412   0.651  0.00  0.00    -0.246 NA
ATOM      5  C   UNN dAMED      -3.956   0.434   0.446  0.00  0.00     0.082 A 
ATOM      6  C   UNN dAMED      -4.805   1.033   1.370  0.00  0.00     0.021 A 
ATOM      7  C   UNN dAMED      -4.538  -0.145  -0.698  0.00  0.00     0.020 A 
ATOM      8  C   UNN dAMED      -6.187   1.071   1.182  0.00  0.00     0.026 A 
ATOM      9  C   UNN dAMED      -6.728   0.496   0.043  0.00  0.00     0.094 A 
ATOM     10  C   UNN dAMED      -5.918  -0.115  -0.902  0.00  0.00     0.026 A 
ATOM     11  C   UNN dAMED      -3.707  -0.751  -1.634  0.00  0.00     0.003 A 
ATOM     12  C   UNN dAMED      -2.335  -0.778  -1.430  0.00  0.00     0.019 A 
BRANCH   9  13
ATOM     13  O   UNN dAMED      -8.075   0.530  -0.150  0.00  0.00    -0.331 OA
BRANCH  13  14
ATOM     14  C   UNN dAMED      -8.292  -0.165  -1.342  0.00  0.00     0.149 C 
ATOM     15  C   UNN dAMED      -7.172  -0.269  -2.382  0.00  0.00     0.035 C 
ENDBRANCH  13  14
ENDBRANCH   9  13
ENDBRANCH   1   3
BRANCH   2  16
ATOM     16  C   UNN dAMED       1.551  -0.355   1.557  0.00  0.00     0.000 A 
ATOM     17  C   UNN dAMED       2.279   0.752   1.988  0.00  0.00     0.002 A 
ATOM     18  C   UNN dAMED       3.584   0.592   2.448  0.00  0.00     0.017 A 
ATOM     19  C   UNN dAMED       4.166  -0.676   2.478  0.00  0.00     0.056 A 
ATOM     20  C   UNN dAMED       3.434  -1.781   2.044  0.00  0.00     0.017 A 
ATOM     21  C   UNN dAMED       2.129  -1.622   1.583  0.00  0.00     0.002 A 
BRANCH  19  22
ATOM     22  N   UNN dAMED       5.489  -0.839   2.929  0.00  0.00    -0.348 N 
BRANCH  22  23
ATOM     23  C   UNN dAMED       6.474   0.196   2.664  0.00  0.00     0.101 C 
BRANCH  23  24
ATOM     24  C   UNN dAMED       6.054   1.486   1.952  0.00  0.00     0.024 C 
ATOM     25  C   UNN dAMED       5.708   2.736   2.768  0.00  0.00     0.002 C 
ENDBRANCH  23  24
ENDBRANCH  22  23
BRANCH  22  26
ATOM     26  C   UNN dAMED       6.052  -2.175   3.037  0.00  0.00     0.101 C 
BRANCH  26  27
ATOM     27  C   UNN dAMED       5.139  -3.399   2.918  0.00  0.00     0.024 C 
ATOM     28  C   UNN dAMED       4.131  -3.495   1.768  0.00  0.00     0.002 C 
ENDBRANCH  26  27
ENDBRANCH  22  26
ENDBRANCH  19  22
ENDBRANCH   2  16
TORSDOF 9
