REMARK  0 active torsions:
REMARK  status: ('A' for Active; 'I' for Inactive)
ROOT
ATOM      1  N   UNN dAMED      -0.219  -0.276   0.727  0.00  0.00    -0.169 NA
ATOM      2  N   UNN dAMED      -0.273   1.295  -0.859  0.00  0.00    -0.159 NA
ATOM      3  N   UNN dAMED      -1.550   1.053  -0.404  0.00  0.00    -0.256 N 
ATOM      4  H   UNN dAMED      -2.362   1.492  -0.821  0.00  0.00     0.191 HD
ATOM      5  S   UNN dAMED      -2.840  -0.767   1.145  0.00  0.00    -0.045 SA
ATOM      6  C   UNN dAMED       1.881   0.199  -0.305  0.00  0.00     0.009 C 
ATOM      7  C   UNN dAMED       2.341  -0.940   0.201  0.00  0.00    -0.001 C 
ATOM      8  C   UNN dAMED       0.451   0.455  -0.189  0.00  0.00     0.145 C 
ATOM      9  C   UNN dAMED       1.311  -2.043   0.441  0.00  0.00     0.013 C 
ATOM     10  C   UNN dAMED       0.046  -1.659   0.592  0.00  0.00     0.059 C 
ATOM     11  C   UNN dAMED      -1.531   0.009   0.510  0.00  0.00     0.179 C 
ATOM     12  C   UNN dAMED       2.745   1.181  -1.038  0.00  0.00     0.034 C 
ENDROOT
TORSDOF 0
