REMARK  4 active torsions:
REMARK  status: ('A' for Active; 'I' for Inactive)
REMARK    1  A    between atoms: C_1  and  C_7 
REMARK    2  A    between atoms: C_3  and  C_21 
REMARK    3  A    between atoms: C_7  and  C_8 
REMARK    4  A    between atoms: C_16  and  C_25 
ROOT
ATOM      1  C   UNN dAMED       2.857  -1.526  -1.976  0.00  0.00     0.025 A 
ATOM      2  C   UNN dAMED       3.731  -0.824  -2.800  0.00  0.00     0.025 A 
ATOM      3  C   UNN dAMED       3.809  -1.179  -4.140  0.00  0.00     0.153 A 
ATOM      4  N   UNN dAMED       3.076  -2.183  -4.681  0.00  0.00    -0.242 NA
ATOM      5  C   UNN dAMED       2.229  -2.855  -3.862  0.00  0.00     0.081 A 
ATOM      6  C   UNN dAMED       2.088  -2.554  -2.513  0.00  0.00     0.021 A 
ATOM      7  C   UNN dAMED       1.462  -3.929  -4.475  0.00  0.00     0.018 A 
ATOM      8  C   UNN dAMED       0.117  -3.744  -4.806  0.00  0.00     0.001 A 
ATOM      9  C   UNN dAMED      -0.620  -4.770  -5.395  0.00  0.00     0.004 A 
ATOM     10  C   UNN dAMED      -0.020  -5.998  -5.676  0.00  0.00     0.071 A 
ATOM     11  C   UNN dAMED       1.320  -6.192  -5.341  0.00  0.00     0.004 A 
ATOM     12  C   UNN dAMED       2.054  -5.166  -4.746  0.00  0.00     0.001 A 
ENDROOT
BRANCH   3  13
ATOM     13  C   UNN dAMED       4.754  -0.461  -5.053  0.00  0.00     0.435 C 
ATOM     14  F   UNN dAMED       5.264   0.684  -4.523  0.00  0.00    -0.165 F 
ATOM     15  F   UNN dAMED       5.828  -1.227  -5.391  0.00  0.00    -0.165 F 
ATOM     16  F   UNN dAMED       4.170  -0.097  -6.228  0.00  0.00    -0.165 F 
ENDBRANCH   3  13
BRANCH   1  17
ATOM     17  C   UNN dAMED       2.784  -1.203  -0.497  0.00  0.00     0.122 C 
ATOM     18  O   UNN dAMED       3.344  -2.073   0.413  0.00  0.00    -0.194 OA
BRANCH  17  19
ATOM     19  C   UNN dAMED       1.879  -0.034  -0.022  0.00  0.00     0.175 C 
ATOM     20  C   UNN dAMED       1.422   0.699  -1.299  0.00  0.00     0.021 C 
ATOM     21  C   UNN dAMED       0.738   2.054  -1.110  0.00  0.00     0.004 C 
ATOM     22  C   UNN dAMED       1.429   2.961  -0.099  0.00  0.00     0.026 C 
ATOM     23  C   UNN dAMED       2.003   2.205   1.096  0.00  0.00     0.119 C 
ATOM     24  N   UNN dAMED       2.617   0.917   0.803  0.00  0.00    -0.300 NA
ENDBRANCH  17  19
ENDBRANCH   1  17
BRANCH  10  25
ATOM     25  C   UNN dAMED      -0.815  -7.103  -6.296  0.00  0.00     0.419 C 
ATOM     26  F   UNN dAMED      -0.074  -7.904  -7.111  0.00  0.00    -0.166 F 
ATOM     27  F   UNN dAMED      -1.848  -6.656  -7.064  0.00  0.00    -0.166 F 
ATOM     28  F   UNN dAMED      -1.371  -7.926  -5.366  0.00  0.00    -0.166 F 
ENDBRANCH  10  25
TORSDOF 4
