REMARK  3 active torsions:
REMARK  status: ('A' for Active; 'I' for Inactive)
REMARK    1  A    between atoms: C_2  and  O_9 
REMARK    2  A    between atoms: C_5  and  N_11 
REMARK       I    between atoms: N_11  and  C_12 
REMARK    3  A    between atoms: C_12  and  C_14 
ROOT
ATOM      1  O   UNN dAMED      -2.658  -2.077   1.465  0.00  0.00    -0.286 OA
ATOM      2  C   UNN dAMED      -1.595   0.751  -0.428  0.00  0.00     0.099 C 
ATOM      3  C   UNN dAMED      -2.419  -0.155   0.103  0.00  0.00     0.066 C 
ATOM      4  C   UNN dAMED      -0.105   0.642  -0.254  0.00  0.00     0.043 C 
ATOM      5  C   UNN dAMED       0.543  -0.457  -0.637  0.00  0.00     0.086 C 
ATOM      6  C   UNN dAMED      -1.910  -1.435   0.742  0.00  0.00     0.198 C 
ATOM      7  C   UNN dAMED      -0.271  -1.607  -1.163  0.00  0.00     0.023 C 
ATOM      8  C   UNN dAMED      -1.316  -2.101  -0.492  0.00  0.00     0.044 C 
ENDROOT
BRANCH   5   9
ATOM      9  N   UNN dAMED       1.863  -0.566  -0.465  0.00  0.00    -0.211 NA
ATOM     10  C   UNN dAMED       2.194   0.099   0.636  0.00  0.00     0.272 C 
ATOM     11  O   UNN dAMED       3.290   0.091   1.183  0.00  0.00    -0.269 OA
BRANCH  10  12
ATOM     12  C   UNN dAMED       1.083   0.852   1.324  0.00  0.00     0.184 C 
ATOM     13 CL   UNN dAMED       1.200   2.581   1.619  0.00  0.00    -0.103 Cl
ENDBRANCH  10  12
ENDBRANCH   5   9
BRANCH   2  14
ATOM     14  O   UNN dAMED      -2.118   1.956  -0.840  0.00  0.00    -0.328 OA
ATOM     15  C   UNN dAMED      -3.431   1.963  -0.364  0.00  0.00     0.181 C 
ENDBRANCH   2  14
TORSDOF 3
