REMARK  3 active torsions:
REMARK  status: ('A' for Active; 'I' for Inactive)
REMARK    1  A    between atoms: C_4  and  S_6 
REMARK    2  A    between atoms: C_5  and  N_14 
REMARK    3  A    between atoms: S_6  and  C_8 
ROOT
ATOM      1  C   UNN dAMED      -2.014   1.767   0.549  0.00  0.00     0.155 C 
ATOM      2  N   UNN dAMED      -2.957   1.053  -0.031  0.00  0.00    -0.207 NA
ATOM      3  N   UNN dAMED      -0.968   0.973   0.918  0.00  0.00    -0.205 NA
ATOM      4  C   UNN dAMED      -1.136  -0.257   0.356  0.00  0.00     0.115 C 
ATOM      5  C   UNN dAMED      -2.410  -0.203  -0.159  0.00  0.00     0.226 C 
ATOM      6  C   UNN dAMED       0.244   1.538   0.435  0.00  0.00     0.102 C 
ENDROOT
BRANCH   4   7
ATOM      7  S   UNN dAMED       0.129  -1.419   0.502  0.00  0.00    -0.034 SA
BRANCH   7   8
ATOM      8  C   UNN dAMED       0.327  -1.805  -1.165  0.00  0.00     0.191 A 
ATOM      9  N   UNN dAMED       0.292  -2.998  -1.710  0.00  0.00    -0.189 NA
ATOM     10  C   UNN dAMED       0.505  -2.713  -3.029  0.00  0.00     0.256 A 
ATOM     11  N   UNN dAMED       0.677  -1.423  -3.332  0.00  0.00    -0.137 NA
ATOM     12  N   UNN dAMED       0.544  -3.731  -4.021  0.00  0.00    -0.058 NA
ATOM     13  N   UNN dAMED       0.576  -0.862  -2.116  0.00  0.00    -0.252 N 
ATOM     14  H   UNN dAMED       0.658   0.144  -2.022  0.00  0.00     0.191 HD
ENDBRANCH   7   8
ENDBRANCH   4   7
BRANCH   5  15
ATOM     15  N   UNN dAMED      -3.174  -1.201  -0.828  0.00  0.00    -0.093 N 
ATOM     16  O   UNN dAMED      -2.833  -2.379  -0.675  0.00  0.00    -0.530 OA
ATOM     17  O   UNN dAMED      -4.136  -0.808  -1.500  0.00  0.00    -0.530 OA
ENDBRANCH   5  15
TORSDOF 3
