REMARK  3 active torsions:
REMARK  status: ('A' for Active; 'I' for Inactive)
REMARK    1  A    between atoms: N_3  and  C_8 
REMARK    2  A    between atoms: C_8  and  C_9 
REMARK    3  A    between atoms: C_9  and  C_10 
ROOT
ATOM      1  H   UNN dAMED      -3.198   0.670   0.001  0.00  0.00     0.168 HD
ATOM      2  N   UNN dAMED      -2.402   0.055  -0.075  0.00  0.00    -0.329 N 
ATOM      3  N   UNN dAMED      -0.283  -0.905  -0.149  0.00  0.00    -0.285 N 
ATOM      4  S   UNN dAMED      -0.391   1.737  -0.648  0.00  0.00    -0.040 SA
ATOM      5  C   UNN dAMED      -1.202  -1.906   0.218  0.00  0.00     0.100 A 
ATOM      6  C   UNN dAMED      -2.564  -1.282   0.324  0.00  0.00     0.093 A 
ATOM      7  C   UNN dAMED      -1.053   0.252  -0.288  0.00  0.00     0.184 A 
ENDROOT
BRANCH   3   8
ATOM      8  C   UNN dAMED       1.056  -0.514  -0.327  0.00  0.00     0.056 C 
BRANCH   8   9
ATOM      9  C   UNN dAMED       1.919  -0.211   0.900  0.00  0.00     0.045 C 
BRANCH   9  10
ATOM     10  C   UNN dAMED       3.227   0.568   0.741  0.00  0.00     0.006 C 
ATOM     11  C   UNN dAMED       4.244   0.144  -0.323  0.00  0.00     0.000 C 
ENDBRANCH   9  10
ENDBRANCH   8   9
ENDBRANCH   3   8
TORSDOF 3
