REMARK  3 active torsions:
REMARK  status: ('A' for Active; 'I' for Inactive)
REMARK    1  A    between atoms: N_4  and  C_7 
REMARK    2  A    between atoms: C_7  and  C_10 
REMARK    3  A    between atoms: C_10  and  C_11 
ROOT
ATOM      1  C   UNN dAMED       0.277  -0.547   0.132  0.00  0.00     0.085 C 
ATOM      2  C   UNN dAMED      -0.133  -1.983   0.316  0.00  0.00     0.024 C 
ATOM      3  C   UNN dAMED       1.608   0.278   0.042  0.00  0.00     0.024 C 
ENDROOT
BRANCH   1   4
ATOM      4  N   UNN dAMED      -0.887   0.246  -0.195  0.00  0.00    -0.235 N 
ATOM      5  N   UNN dAMED      -1.162   0.686  -1.436  0.00  0.00    -0.001 NA
ATOM      6  N   UNN dAMED      -2.445   1.049  -1.401  0.00  0.00     0.019 NA
ATOM      7  N   UNN dAMED      -3.020   0.731  -0.188  0.00  0.00    -0.127 NA
ATOM      8  C   UNN dAMED      -2.038   0.256   0.542  0.00  0.00     0.245 A 
ATOM      9  N   UNN dAMED      -2.240  -0.589   1.672  0.00  0.00    -0.059 NA
ENDBRANCH   1   4
BRANCH   1  10
ATOM     10  C   UNN dAMED       1.468   0.241   0.928  0.00  0.00     0.022 C 
BRANCH  10  11
ATOM     11  C   UNN dAMED       2.722  -0.964   1.835  0.00  0.00     0.002 C 
ATOM     12  C   UNN dAMED       1.470   0.240   0.929  0.00  0.00     0.000 C 
ATOM     13  C   UNN dAMED       1.471   0.238   0.930  0.00  0.00     0.000 C 
ATOM     14  C   UNN dAMED       1.468   0.241   0.928  0.00  0.00     0.000 C 
ENDBRANCH  10  11
ENDBRANCH   1  10
TORSDOF 3
