REMARK  5 active torsions:
REMARK  status: ('A' for Active; 'I' for Inactive)
REMARK    1  A    between atoms: N_1  and  C_19 
REMARK    2  A    between atoms: C_9  and  C_22 
REMARK    3  A    between atoms: C_15  and  C_22 
REMARK    4  A    between atoms: C_19  and  C_21 
REMARK    5  A    between atoms: C_21  and  C_22 
ROOT
ATOM      1  C   UNN dAMED      -3.813   0.139   1.211  0.00  0.00     0.118 C 
ATOM      2  C   UNN dAMED      -4.922   0.958   1.733  0.00  0.00     0.080 C 
ATOM      3  N   UNN dAMED      -5.794   1.605   2.143  0.00  0.00    -0.196 NA
ENDROOT
BRANCH   1   4
ATOM      4  C   UNN dAMED      -3.468  -0.995   2.146  0.00  0.00    -0.006 A 
ATOM      5  C   UNN dAMED      -2.193  -1.020   2.716  0.00  0.00    -0.003 A 
ATOM      6  C   UNN dAMED      -1.836  -2.036   3.600  0.00  0.00    -0.000 A 
ATOM      7  C   UNN dAMED      -2.752  -3.035   3.920  0.00  0.00    -0.000 A 
ATOM      8  C   UNN dAMED      -4.025  -3.019   3.356  0.00  0.00    -0.000 A 
ATOM      9  C   UNN dAMED      -4.382  -2.002   2.474  0.00  0.00    -0.003 A 
ENDBRANCH   1   4
BRANCH   1  10
ATOM     10  C   UNN dAMED      -4.057  -0.322  -0.206  0.00  0.00    -0.006 A 
ATOM     11  C   UNN dAMED      -3.049  -0.131  -1.153  0.00  0.00    -0.003 A 
ATOM     12  C   UNN dAMED      -3.236  -0.521  -2.476  0.00  0.00    -0.000 A 
ATOM     13  C   UNN dAMED      -4.438  -1.104  -2.867  0.00  0.00    -0.000 A 
ATOM     14  C   UNN dAMED      -5.452  -1.298  -1.934  0.00  0.00    -0.000 A 
ATOM     15  C   UNN dAMED      -5.261  -0.909  -0.610  0.00  0.00    -0.003 A 
ENDBRANCH   1  10
BRANCH   1  16
ATOM     16  C   UNN dAMED      -2.582   1.061   1.174  0.00  0.00     0.056 C 
BRANCH  16  17
ATOM     17  C   UNN dAMED      -1.426   0.795   0.204  0.00  0.00     0.221 C 
ATOM     18  C   UNN dAMED      -1.210  -0.613  -0.360  0.00  0.00     0.035 C 
BRANCH  17  19
ATOM     19  N   UNN dAMED      -0.514   1.863  -0.147  0.00  0.00     0.135 N 
ATOM     20  C   UNN dAMED       0.383   2.836   0.422  0.00  0.00     0.250 C 
ATOM     21  C   UNN dAMED       0.930   3.940  -0.490  0.00  0.00     0.035 C 
ATOM     22  C   UNN dAMED      -0.124   4.620  -1.355  0.00  0.00     0.004 C 
ATOM     23  C   UNN dAMED      -1.159   3.645  -1.902  0.00  0.00     0.035 C 
ATOM     24  C   UNN dAMED      -1.568   2.532  -0.930  0.00  0.00     0.250 C 
ENDBRANCH  17  19
ENDBRANCH  16  17
ENDBRANCH   1  16
TORSDOF 5
