REMARK  4 active torsions:
REMARK  status: ('A' for Active; 'I' for Inactive)
REMARK    1  A    between atoms: C_5  and  C_8 
REMARK    2  A    between atoms: C_8  and  C_13 
REMARK    3  A    between atoms: C_9  and  C_13 
REMARK    4  A    between atoms: C_13  and  C_15 
ROOT
ATOM      1  C   UNN dAMED       1.256  -1.185  -1.010  0.00  0.00     0.317 C 
ATOM      2  O   UNN dAMED       0.945  -1.933  -2.047  0.00  0.00    -0.204 OA
ENDROOT
BRANCH   1   3
ATOM      3  C   UNN dAMED       0.072  -1.166  -0.003  0.00  0.00     0.021 C 
BRANCH   3   4
ATOM      4  C   UNN dAMED      -1.268  -0.483  -0.195  0.00  0.00     0.002 A 
ATOM      5  C   UNN dAMED      -2.241  -1.076  -0.988  0.00  0.00     0.021 A 
ATOM      6  C   UNN dAMED      -3.538  -0.565  -1.006  0.00  0.00     0.108 A 
ATOM      7  N   UNN dAMED      -3.868   0.528  -0.218  0.00  0.00    -0.182 N 
ATOM      8  O   UNN dAMED      -5.053   0.988  -0.229  0.00  0.00    -0.080 OA
ATOM      9  C   UNN dAMED      -2.898   1.114   0.583  0.00  0.00     0.108 A 
ATOM     10  C   UNN dAMED      -1.600   0.606   0.598  0.00  0.00     0.021 A 
ENDBRANCH   3   4
ENDBRANCH   1   3
BRANCH   1  11
ATOM     11  C   UNN dAMED       2.435  -1.815  -0.268  0.00  0.00     0.435 C 
ATOM     12  F   UNN dAMED       2.129  -3.051   0.190  0.00  0.00    -0.167 F 
ATOM     13  F   UNN dAMED       3.539  -1.923  -1.040  0.00  0.00    -0.167 F 
ATOM     14  F   UNN dAMED       2.765  -1.067   0.811  0.00  0.00    -0.167 F 
ENDBRANCH   1  11
BRANCH   1  15
ATOM     15  C   UNN dAMED       1.594   0.233  -1.461  0.00  0.00     0.435 C 
ATOM     16  F   UNN dAMED       2.726   0.279  -2.199  0.00  0.00    -0.167 F 
ATOM     17  F   UNN dAMED       1.783   1.037  -0.388  0.00  0.00    -0.167 F 
ATOM     18  F   UNN dAMED       0.605   0.785  -2.200  0.00  0.00    -0.167 F 
ENDBRANCH   1  15
TORSDOF 4
