REMARK  4 active torsions:
REMARK  status: ('A' for Active; 'I' for Inactive)
REMARK    1  A    between atoms: N_1  and  C_11 
REMARK    2  A    between atoms: N_2  and  C_4 
REMARK    3  A    between atoms: C_7  and  C_18 
REMARK    4  A    between atoms: C_10  and  O_15 
ROOT
ATOM      1  N   UNN dAMED       0.180  -0.676   0.348  0.00  0.00    -0.148 NA
ATOM      2  N   UNN dAMED       0.956   0.104  -0.252  0.00  0.00    -0.148 NA
ENDROOT
BRANCH   1   3
ATOM      3  C   UNN dAMED      -1.171  -0.292   0.220  0.00  0.00     0.105 A 
ATOM      4  C   UNN dAMED      -2.165  -1.250   0.407  0.00  0.00     0.048 A 
ATOM      5  C   UNN dAMED      -3.521  -0.892   0.350  0.00  0.00     0.134 A 
ATOM      6  C   UNN dAMED      -3.978   0.416   0.093  0.00  0.00     0.218 A 
ATOM      7  C   UNN dAMED      -2.939   1.343  -0.091  0.00  0.00     0.046 A 
ATOM      8  O   UNN dAMED      -5.205   0.761   0.031  0.00  0.00    -0.284 OA
ATOM      9  C   UNN dAMED      -1.580   1.019  -0.020  0.00  0.00     0.024 A 
BRANCH   5  10
ATOM     10  O   UNN dAMED      -4.430  -1.896   0.585  0.00  0.00    -0.325 OA
ATOM     11  C   UNN dAMED      -5.570  -1.245   1.067  0.00  0.00     0.181 C 
ENDBRANCH   5  10
ENDBRANCH   1   3
BRANCH   2  12
ATOM     12  C   UNN dAMED       2.268  -0.412  -0.275  0.00  0.00     0.109 A 
ATOM     13  C   UNN dAMED       2.510  -1.634  -0.920  0.00  0.00     0.021 A 
ATOM     14  C   UNN dAMED       3.797  -2.148  -1.047  0.00  0.00     0.002 A 
ATOM     15  C   UNN dAMED       4.877  -1.433  -0.547  0.00  0.00     0.000 A 
ATOM     16  C   UNN dAMED       4.663  -0.210   0.080  0.00  0.00     0.008 A 
ATOM     17  C   UNN dAMED       3.370   0.312   0.216  0.00  0.00     0.084 A 
BRANCH  17  18
ATOM     18  C   UNN dAMED       3.232   1.649   0.860  0.00  0.00     0.212 C 
ATOM     19  O   UNN dAMED       2.799   1.660   2.051  0.00  0.00    -0.644 OA
ATOM     20  O   UNN dAMED       3.597   2.648   0.168  0.00  0.00    -0.644 OA
ENDBRANCH  17  18
ENDBRANCH   2  12
TORSDOF 4
