REMARK  2 active torsions:
REMARK  status: ('A' for Active; 'I' for Inactive)
REMARK    1  A    between atoms: C_5  and  C_7 
REMARK    2  A    between atoms: C_7  and  C_10 
ROOT
ATOM      1  C   UNN dAMED       2.984  -0.261  -0.791  0.00  0.00     0.034 A 
ATOM      2  C   UNN dAMED       1.706  -0.189  -1.330  0.00  0.00     0.007 A 
ATOM      3  C   UNN dAMED       3.155   0.055   0.551  0.00  0.00     0.151 A 
ATOM      4  N   UNN dAMED       2.135   0.406   1.370  0.00  0.00    -0.230 NA
ATOM      5  C   UNN dAMED       0.653   0.195  -0.513  0.00  0.00     0.059 A 
ATOM      6  C   UNN dAMED       0.900   0.457   0.823  0.00  0.00     0.103 A 
ATOM      7  N   UNN dAMED       4.474   0.022   1.090  0.00  0.00    -0.080 NA
ENDROOT
BRANCH   5   8
ATOM      8  C   UNN dAMED      -0.711   0.239  -1.053  0.00  0.00     0.203 C 
ATOM      9  O   UNN dAMED      -1.264  -0.825  -1.309  0.00  0.00    -0.286 OA
BRANCH   8  10
ATOM     10  C   UNN dAMED      -1.296   1.531  -1.307  0.00  0.00     0.068 A 
ATOM     11  C   UNN dAMED      -1.468   2.155  -2.522  0.00  0.00     0.010 A 
ATOM     12  C   UNN dAMED      -2.161   3.383  -2.406  0.00  0.00     0.008 A 
ATOM     13  C   UNN dAMED      -2.491   3.647  -1.104  0.00  0.00     0.035 A 
ATOM     14  S   UNN dAMED      -2.001   2.429  -0.030  0.00  0.00    -0.083 SA
ENDBRANCH   8  10
ENDBRANCH   5   8
TORSDOF 2
