REMARK  0 active torsions:
REMARK  status: ('A' for Active; 'I' for Inactive)
ROOT
ATOM      1  C   UNN dAMED      -4.776   0.590  -0.478  0.00  0.00     0.000 C 
ATOM      2  C   UNN dAMED      -4.432  -0.811   0.022  0.00  0.00     0.002 C 
ATOM      3  C   UNN dAMED      -3.588   1.370  -1.045  0.00  0.00     0.002 C 
ATOM      4  C   UNN dAMED      -3.163  -0.898   0.874  0.00  0.00     0.033 C 
ATOM      5  C   UNN dAMED      -2.281   1.270  -0.249  0.00  0.00     0.033 C 
ATOM      6  C   UNN dAMED      -1.953  -0.077   0.407  0.00  0.00     0.224 C 
ATOM      7  N   UNN dAMED      -0.652  -0.220   1.179  0.00  0.00     0.181 N 
ATOM      8  C   UNN dAMED      -0.872   1.211   0.648  0.00  0.00     0.365 C 
ATOM      9  C   UNN dAMED      -0.394   0.207  -0.278  0.00  0.00     0.365 C 
ATOM     10  N   UNN dAMED       0.173   2.181   0.715  0.00  0.00    -0.277 N 
ATOM     11  N   UNN dAMED       0.901   0.629  -0.709  0.00  0.00    -0.277 N 
ATOM     12  C   UNN dAMED       1.240   1.804  -0.071  0.00  0.00     0.186 C 
ATOM     13  S   UNN dAMED       2.682   2.648  -0.207  0.00  0.00    -0.040 SA
ATOM     14  C   UNN dAMED       1.516  -0.303  -1.524  0.00  0.00     0.064 A 
ATOM     15  C   UNN dAMED       0.873  -1.527  -1.694  0.00  0.00     0.017 A 
ATOM     16  C   UNN dAMED       1.422  -2.493  -2.531  0.00  0.00     0.002 A 
ATOM     17  C   UNN dAMED       2.617  -2.231  -3.199  0.00  0.00     0.000 A 
ATOM     18  C   UNN dAMED       3.253  -1.002  -3.042  0.00  0.00     0.002 A 
ATOM     19  C   UNN dAMED       2.695  -0.035  -2.213  0.00  0.00     0.017 A 
ATOM     20  C   UNN dAMED      -0.058   3.191   1.628  0.00  0.00     0.064 A 
ATOM     21  C   UNN dAMED      -1.172   4.003   1.452  0.00  0.00     0.017 A 
ATOM     22  C   UNN dAMED      -1.443   5.010   2.373  0.00  0.00     0.002 A 
ATOM     23  C   UNN dAMED      -0.598   5.198   3.466  0.00  0.00     0.000 A 
ATOM     24  C   UNN dAMED       0.501   4.362   3.656  0.00  0.00     0.002 A 
ATOM     25  C   UNN dAMED       0.763   3.347   2.742  0.00  0.00     0.017 A 
ENDROOT
TORSDOF 0
