REMARK  5 active torsions:
REMARK  status: ('A' for Active; 'I' for Inactive)
REMARK    1  A    between atoms: C_12  and  S_13 
REMARK    2  A    between atoms: S_13  and  C_17 
REMARK    3  A    between atoms: C_14  and  O_16 
REMARK    4  A    between atoms: C_14  and  C_17 
REMARK    5  A    between atoms: O_16  and  C_18 
ROOT
ATOM      1 CL   UNN dAMED      -4.568   2.311  -0.397  0.00  0.00    -0.059 Cl
ATOM      2 CL   UNN dAMED      -5.565  -0.633   0.624  0.00  0.00    -0.059 Cl
ATOM      3  C   UNN dAMED      -3.512   0.965  -0.224  0.00  0.00     0.169 A 
ATOM      4  C   UNN dAMED      -3.932  -0.286   0.210  0.00  0.00     0.169 A 
ATOM      5  N   UNN dAMED      -2.236   1.254  -0.551  0.00  0.00    -0.210 NA
ATOM      6  N   UNN dAMED      -3.107  -1.348   0.354  0.00  0.00    -0.212 NA
ATOM      7  C   UNN dAMED      -1.395   0.201  -0.413  0.00  0.00     0.200 A 
ATOM      8  C   UNN dAMED      -1.844  -1.035   0.024  0.00  0.00     0.179 A 
ATOM      9  N   UNN dAMED      -0.734  -1.829   0.042  0.00  0.00    -0.317 N 
ATOM     10  H   UNN dAMED      -0.690  -2.802   0.316  0.00  0.00     0.169 HD
ATOM     11  N   UNN dAMED      -0.049   0.182  -0.664  0.00  0.00    -0.201 NA
ATOM     12  C   UNN dAMED       0.310  -1.050  -0.382  0.00  0.00     0.171 A 
ENDROOT
BRANCH  12  13
ATOM     13  S   UNN dAMED       1.894  -1.718  -0.473  0.00  0.00    -0.067 SA
BRANCH  13  14
ATOM     14  C   UNN dAMED       1.445  -3.198   0.431  0.00  0.00     0.161 C 
BRANCH  14  15
ATOM     15  C   UNN dAMED       2.476  -3.990   1.182  0.00  0.00     0.283 C 
ATOM     16  O   UNN dAMED       2.777  -3.639   2.316  0.00  0.00    -0.263 OA
BRANCH  15  17
ATOM     17  O   UNN dAMED       3.082  -5.032   0.557  0.00  0.00    -0.301 OA
BRANCH  17  18
ATOM     18  C   UNN dAMED       4.201  -5.293   1.348  0.00  0.00     0.152 C 
ATOM     19  C   UNN dAMED       4.761  -6.712   1.454  0.00  0.00     0.035 C 
ENDBRANCH  17  18
ENDBRANCH  15  17
ENDBRANCH  14  15
ENDBRANCH  13  14
ENDBRANCH  12  13
TORSDOF 5
