REMARK  1 active torsions:
REMARK  status: ('A' for Active; 'I' for Inactive)
REMARK    1  A    between atoms: C_12  and  N_14 
ROOT
ATOM      1  H   UNN dAMED      -3.676   0.435   0.383  0.00  0.00     0.131 HD
ATOM      2  N   UNN dAMED      -2.758  -0.002   0.395  0.00  0.00    -0.244 NA
ATOM      3  C   UNN dAMED      -2.931  -1.232  -0.295  0.00  0.00     0.076 C 
ATOM      4  C   UNN dAMED      -2.105  -2.438   0.115  0.00  0.00     0.024 C 
ATOM      5  O   UNN dAMED      -1.899   1.827  -0.636  0.00  0.00    -0.274 OA
ATOM      6  C   UNN dAMED      -1.713   0.707  -0.160  0.00  0.00     0.235 C 
ATOM      7  C   UNN dAMED      -0.604  -2.343  -0.083  0.00  0.00     0.053 C 
ATOM      8  C   UNN dAMED      -0.363   0.189   0.003  0.00  0.00     0.068 A 
ATOM      9  C   UNN dAMED       0.125  -1.083   0.278  0.00  0.00     0.083 A 
ATOM     10  C   UNN dAMED       0.808   0.981  -0.114  0.00  0.00     0.029 A 
ATOM     11  O   UNN dAMED       1.497  -1.098   0.327  0.00  0.00    -0.291 OA
ATOM     12  C   UNN dAMED       1.880   0.176   0.094  0.00  0.00     0.223 A 
ATOM     13  C   UNN dAMED       0.849   2.437  -0.457  0.00  0.00     0.035 C 
ENDROOT
BRANCH  12  14
ATOM     14  N   UNN dAMED       3.267   0.414   0.071  0.00  0.00    -0.090 N 
ATOM     15  O   UNN dAMED       3.670   1.378   0.731  0.00  0.00    -0.530 OA
ATOM     16  O   UNN dAMED       3.950  -0.339  -0.632  0.00  0.00    -0.530 OA
ENDBRANCH  12  14
TORSDOF 1
