REMARK  4 active torsions:
REMARK  status: ('A' for Active; 'I' for Inactive)
REMARK    1  A    between atoms: N_3  and  S_18 
REMARK    2  A    between atoms: C_5  and  S_18 
REMARK    3  A    between atoms: C_11  and  C_13 
REMARK    4  A    between atoms: C_13  and  C_14 
ROOT
ATOM      1  O   UNN dAMED      -1.933   0.544  -2.300  0.00  0.00    -0.258 OA
ATOM      2  O   UNN dAMED      -0.247  -0.302  -0.980  0.00  0.00    -0.199 OA
ATOM      3  N   UNN dAMED      -0.267  -0.998   0.270  0.00  0.00    -0.021 NA
ATOM      4  C   UNN dAMED      -1.542  -0.058  -1.317  0.00  0.00     0.315 A 
ATOM      5  C   UNN dAMED      -2.390  -0.593  -0.245  0.00  0.00     0.084 A 
ATOM      6  C   UNN dAMED      -1.612  -1.126   0.692  0.00  0.00     0.153 A 
ATOM      7  N   UNN dAMED      -2.017  -1.335   2.038  0.00  0.00    -0.085 NA
ENDROOT
BRANCH   3   8
ATOM      8  S   UNN dAMED       0.740  -0.178   1.401  0.00  0.00     0.273 S 
ATOM      9  O   UNN dAMED      -0.076   0.587   2.328  0.00  0.00    -0.203 OA
ATOM     10  O   UNN dAMED       1.723  -1.120   1.903  0.00  0.00    -0.203 OA
BRANCH   8  11
ATOM     11  C   UNN dAMED       1.638   0.999   0.438  0.00  0.00     0.101 A 
ATOM     12  C   UNN dAMED       2.673   0.563  -0.382  0.00  0.00     0.012 A 
ATOM     13  C   UNN dAMED       3.327   1.488  -1.191  0.00  0.00    -0.004 A 
ATOM     14  C   UNN dAMED       2.946   2.830  -1.168  0.00  0.00    -0.022 A 
ATOM     15  C   UNN dAMED       1.916   3.256  -0.330  0.00  0.00    -0.004 A 
ATOM     16  C   UNN dAMED       3.611   3.812  -2.089  0.00  0.00     0.031 C 
ATOM     17  C   UNN dAMED       1.253   2.336   0.476  0.00  0.00     0.012 A 
ENDBRANCH   8  11
ENDBRANCH   3   8
BRANCH   5  18
ATOM     18  C   UNN dAMED      -3.812  -0.179  -0.030  0.00  0.00    -0.037 C 
ATOM     19  C   UNN dAMED      -4.591  -0.723   1.172  0.00  0.00     0.027 C 
BRANCH  18  20
ATOM     20  C   UNN dAMED      -4.563   0.528  -1.161  0.00  0.00     0.022 C 
ATOM     21  C   UNN dAMED      -5.011  -0.275  -2.387  0.00  0.00     0.005 C 
ENDBRANCH  18  20
ENDBRANCH   5  18
TORSDOF 4
