REMARK  3 active torsions:
REMARK  status: ('A' for Active; 'I' for Inactive)
REMARK    1  A    between atoms: C_3  and  N_18 
REMARK    2  A    between atoms: C_9  and  N_18 
REMARK    3  A    between atoms: C_10  and  S_14 
ROOT
ATOM      1  C   UNN dAMED      -0.041   1.431  -1.674  0.00  0.00     0.021 A 
ATOM      2  C   UNN dAMED      -0.888   1.367  -2.781  0.00  0.00     0.016 A 
ATOM      3  C   UNN dAMED      -0.167   0.560  -0.576  0.00  0.00     0.095 A 
ATOM      4  C   UNN dAMED      -1.248  -0.345  -0.626  0.00  0.00     0.123 A 
ATOM      5  C   UNN dAMED      -1.915   0.432  -2.810  0.00  0.00     0.071 A 
ATOM      6  C   UNN dAMED      -2.100  -0.421  -1.732  0.00  0.00     0.029 A 
ATOM      7  N   UNN dAMED      -2.813   0.391  -3.914  0.00  0.00    -0.101 NA
ENDROOT
BRANCH   3   8
ATOM      8  N   UNN dAMED       0.668   0.666   0.484  0.00  0.00    -0.245 NA
BRANCH   8   9
ATOM      9  C   UNN dAMED       1.968   0.353   0.272  0.00  0.00     0.081 A 
ATOM     10  C   UNN dAMED       2.425  -0.595  -0.659  0.00  0.00     0.019 A 
ATOM     11  C   UNN dAMED       3.780  -0.894  -0.805  0.00  0.00     0.002 A 
ATOM     12  C   UNN dAMED       4.717  -0.270   0.010  0.00  0.00     0.000 A 
ATOM     13  C   UNN dAMED       4.297   0.651   0.962  0.00  0.00     0.002 A 
ATOM     14  C   UNN dAMED       2.941   0.954   1.082  0.00  0.00     0.019 A 
ENDBRANCH   8   9
ENDBRANCH   3   8
BRANCH   4  15
ATOM     15  S   UNN dAMED      -1.590  -1.503   0.716  0.00  0.00     0.141 S 
ATOM     16  O   UNN dAMED      -1.490  -0.669   1.910  0.00  0.00    -0.591 OA
ATOM     17  O   UNN dAMED      -0.529  -2.489   0.536  0.00  0.00    -0.591 OA
ATOM     18  O   UNN dAMED      -2.939  -1.976   0.417  0.00  0.00    -0.591 OA
ENDBRANCH   4  15
TORSDOF 3
