REMARK  7 active torsions:
REMARK  status: ('A' for Active; 'I' for Inactive)
REMARK    1  A    between atoms: C_2  and  N_11 
REMARK    2  A    between atoms: C_7  and  N_20 
REMARK    3  A    between atoms: C_14  and  N_20 
REMARK    4  A    between atoms: C_17  and  C_21 
REMARK       I    between atoms: C_21  and  N_29 
REMARK    5  A    between atoms: C_23  and  N_29 
REMARK    6  A    between atoms: C_26  and  N_36 
REMARK    7  A    between atoms: C_30  and  N_36 
ROOT
ATOM      1  C   UNN dAMED      -3.834   1.153   0.852  0.00  0.00     0.081 A 
ATOM      2  C   UNN dAMED      -4.064   1.390   2.216  0.00  0.00     0.019 A 
ATOM      3  C   UNN dAMED      -3.953   2.664   2.770  0.00  0.00     0.006 A 
ATOM      4  C   UNN dAMED      -3.614   3.734   1.948  0.00  0.00     0.058 A 
ATOM      5  C   UNN dAMED      -3.401   3.541   0.585  0.00  0.00     0.006 A 
ATOM      6  C   UNN dAMED      -3.464   2.253   0.060  0.00  0.00     0.019 A 
ENDROOT
BRANCH   4   7
ATOM      7  C   UNN dAMED      -3.552   5.088   2.543  0.00  0.00     0.279 C 
ATOM      8  O   UNN dAMED      -4.611   5.474   3.041  0.00  0.00    -0.265 OA
ATOM      9  N   UNN dAMED      -2.416   5.806   2.541  0.00  0.00    -0.208 NA
BRANCH   9  10
ATOM     10  C   UNN dAMED      -1.290   5.248   2.055  0.00  0.00     0.085 A 
ATOM     11  C   UNN dAMED      -0.803   5.594   0.789  0.00  0.00     0.021 A 
ATOM     12  C   UNN dAMED       0.340   4.987   0.260  0.00  0.00     0.021 A 
ATOM     13  C   UNN dAMED       1.060   4.025   0.975  0.00  0.00     0.082 A 
ATOM     14  C   UNN dAMED       0.584   3.708   2.255  0.00  0.00     0.021 A 
ATOM     15  C   UNN dAMED      -0.542   4.330   2.798  0.00  0.00     0.021 A 
BRANCH  13  16
ATOM     16  N   UNN dAMED       2.107   3.399   0.384  0.00  0.00    -0.245 NA
BRANCH  16  17
ATOM     17  C   UNN dAMED       3.198   3.231   1.166  0.00  0.00     0.085 A 
ATOM     18  C   UNN dAMED       3.943   4.304   1.667  0.00  0.00     0.040 A 
ATOM     19  C   UNN dAMED       5.052   4.048   2.461  0.00  0.00     0.101 A 
ATOM     20  N   UNN dAMED       5.491   2.810   2.766  0.00  0.00    -0.242 NA
ATOM     21  C   UNN dAMED       4.792   1.785   2.238  0.00  0.00     0.101 A 
ATOM     22  C   UNN dAMED       3.664   1.943   1.446  0.00  0.00     0.040 A 
ENDBRANCH  16  17
ENDBRANCH  13  16
ENDBRANCH   9  10
ENDBRANCH   4   7
BRANCH   1  23
ATOM     23  N   UNN dAMED      -3.965  -0.102   0.358  0.00  0.00    -0.245 NA
BRANCH  23  24
ATOM     24  C   UNN dAMED      -4.824  -0.201  -0.691  0.00  0.00     0.084 A 
ATOM     25  C   UNN dAMED      -6.226   0.012  -0.612  0.00  0.00     0.037 A 
ATOM     26  C   UNN dAMED      -6.859   0.378   0.587  0.00  0.00     0.026 A 
ATOM     27  C   UNN dAMED      -7.011  -0.118  -1.784  0.00  0.00     0.083 A 
ATOM     28  C   UNN dAMED      -8.223   0.616   0.608  0.00  0.00     0.127 A 
ATOM     29  C   UNN dAMED      -9.011   0.489  -0.520  0.00  0.00     0.025 A 
ATOM     30  C   UNN dAMED      -8.381   0.118  -1.706  0.00  0.00     0.021 A 
ATOM     31  N   UNN dAMED      -6.478  -0.453  -2.968  0.00  0.00    -0.244 NA
ATOM     32  C   UNN dAMED      -5.149  -0.677  -3.021  0.00  0.00     0.101 A 
ATOM     33  C   UNN dAMED      -4.303  -0.571  -1.934  0.00  0.00     0.040 A 
BRANCH  28  34
ATOM     34  N   UNN dAMED      -8.817   1.046   1.840  0.00  0.00    -0.114 N 
ATOM     35  O   UNN dAMED      -8.866   0.218   2.758  0.00  0.00    -0.532 OA
ATOM     36  O   UNN dAMED      -9.217   2.216   1.892  0.00  0.00    -0.532 OA
ENDBRANCH  28  34
ENDBRANCH  23  24
ENDBRANCH   1  23
TORSDOF 7
