REMARK  0 active torsions:
REMARK  status: ('A' for Active; 'I' for Inactive)
ROOT
ATOM      1  N   UNN dAMED       0.786  -1.368  -0.360  0.00  0.00    -0.241 NA
ATOM      2  N   UNN dAMED       0.849   1.308   0.331  0.00  0.00    -0.241 NA
ATOM      3  C   UNN dAMED       3.213   1.261   0.302  0.00  0.00     0.016 A 
ATOM      4  C   UNN dAMED       4.412   0.580   0.120  0.00  0.00    -0.024 A 
ATOM      5  C   UNN dAMED       1.987   0.625   0.147  0.00  0.00     0.099 A 
ATOM      6  C   UNN dAMED       1.956  -0.729  -0.205  0.00  0.00     0.099 A 
ATOM      7  C   UNN dAMED       4.384  -0.761  -0.223  0.00  0.00    -0.024 A 
ATOM      8  C   UNN dAMED       3.159  -1.403  -0.384  0.00  0.00     0.016 A 
ATOM      9  C   UNN dAMED      -0.336   0.670   0.167  0.00  0.00     0.118 A 
ATOM     10  C   UNN dAMED      -0.365  -0.677  -0.170  0.00  0.00     0.118 A 
ATOM     11  C   UNN dAMED       5.667  -1.521  -0.402  0.00  0.00     0.031 C 
ATOM     12  C   UNN dAMED      -1.580  -1.473  -0.306  0.00  0.00     0.101 A 
ATOM     13  C   UNN dAMED      -1.926  -2.408   0.665  0.00  0.00     0.021 A 
ATOM     14  C   UNN dAMED      -3.098  -3.137   0.499  0.00  0.00     0.003 A 
ATOM     15  C   UNN dAMED      -3.897  -2.917  -0.614  0.00  0.00     0.021 A 
ATOM     16  C   UNN dAMED      -3.473  -1.969  -1.530  0.00  0.00     0.099 A 
ATOM     17  N   UNN dAMED      -2.335  -1.247  -1.409  0.00  0.00    -0.242 NA
ATOM     18  C   UNN dAMED      -1.509   1.524   0.346  0.00  0.00     0.101 A 
ATOM     19  C   UNN dAMED      -1.603   2.745  -0.319  0.00  0.00     0.021 A 
ATOM     20  C   UNN dAMED      -2.708   3.553  -0.082  0.00  0.00     0.003 A 
ATOM     21  C   UNN dAMED      -3.703   3.124   0.784  0.00  0.00     0.021 A 
ATOM     22  C   UNN dAMED      -3.533   1.895   1.397  0.00  0.00     0.099 A 
ATOM     23  N   UNN dAMED      -2.457   1.095   1.214  0.00  0.00    -0.242 NA
ATOM     24  C   UNN dAMED       5.723   1.288   0.311  0.00  0.00     0.031 C 
ENDROOT
TORSDOF 0
