REMARK  3 active torsions:
REMARK  status: ('A' for Active; 'I' for Inactive)
REMARK    1  A    between atoms: O_1  and  C_2 
REMARK    2  A    between atoms: C_7  and  N_8 
REMARK    3  A    between atoms: C_13  and  C_17 
ROOT
ATOM      1  N   UNN dAMED       3.286  -3.558   0.015  0.00  0.00    -0.223 NA
ATOM      2  C   UNN dAMED       2.866  -2.341  -0.085  0.00  0.00     0.164 C 
ATOM      3  N   UNN dAMED       3.489  -1.168  -0.457  0.00  0.00    -0.354 N 
ATOM      4  H   UNN dAMED       4.501  -1.142  -0.471  0.00  0.00     0.162 HD
ATOM      5  S   UNN dAMED       1.162  -2.046   0.358  0.00  0.00    -0.076 SA
ATOM      6  C   UNN dAMED       2.817   0.067  -0.090  0.00  0.00     0.104 C 
ATOM      7  C   UNN dAMED       1.369  -0.301   0.067  0.00  0.00     0.088 C 
ATOM      8  C   UNN dAMED       3.427   1.306  -0.934  0.00  0.00     0.026 C 
ENDROOT
BRANCH   1   9
ATOM      9  C   UNN dAMED       4.604  -3.889  -0.343  0.00  0.00     0.084 A 
ATOM     10  C   UNN dAMED       5.693  -3.537   0.462  0.00  0.00     0.021 A 
ATOM     11  C   UNN dAMED       6.951  -4.105   0.249  0.00  0.00     0.026 A 
ATOM     12  C   UNN dAMED       7.111  -5.054  -0.749  0.00  0.00     0.094 A 
ATOM     13  C   UNN dAMED       6.050  -5.417  -1.564  0.00  0.00     0.026 A 
ATOM     14  C   UNN dAMED       4.801  -4.834  -1.356  0.00  0.00     0.021 A 
BRANCH  12  15
ATOM     15  O   UNN dAMED       8.330  -5.634  -0.930  0.00  0.00    -0.328 OA
ATOM     16  C   UNN dAMED       9.225  -4.844  -0.201  0.00  0.00     0.181 C 
ENDBRANCH  12  15
ENDBRANCH   1   9
BRANCH   6  17
ATOM     17  C   UNN dAMED       3.421   1.317  -0.933  0.00  0.00     0.203 C 
ATOM     18  O   UNN dAMED       4.749   1.639  -0.873  0.00  0.00    -0.219 OA
ENDBRANCH   6  17
TORSDOF 3
