REMARK  5 active torsions:
REMARK  status: ('A' for Active; 'I' for Inactive)
REMARK    1  A    between atoms: C_15  and  C_16 
REMARK    2  A    between atoms: C_15  and  C_19 
REMARK    3  A    between atoms: C_16  and  O_20 
REMARK    4  A    between atoms: C_19  and  C_22 
REMARK    5  A    between atoms: C_22  and  O_24 
ROOT
ATOM      1 CL   UNN dAMED      -5.827  -0.885   0.410  0.00  0.00    -0.082 Cl
ATOM      2 CL   UNN dAMED      -5.172   0.724  -2.357  0.00  0.00    -0.081 Cl
ATOM      3  O   UNN dAMED      -0.241   0.638   2.279  0.00  0.00    -0.203 OA
ATOM      4  S   UNN dAMED      -0.608  -0.625   1.672  0.00  0.00     0.274 S 
ATOM      5  N   UNN dAMED      -0.278   0.690  -0.995  0.00  0.00    -0.351 N 
ATOM      6  H   UNN dAMED      -0.198   1.069  -1.936  0.00  0.00     0.162 HD
ATOM      7  O   UNN dAMED      -0.992  -1.770   2.474  0.00  0.00    -0.203 OA
ATOM      8  N   UNN dAMED       0.588  -1.109   0.551  0.00  0.00    -0.002 NA
ATOM      9  C   UNN dAMED      -3.210  -0.665   0.870  0.00  0.00     0.026 A 
ATOM     10  C   UNN dAMED      -4.239  -0.374  -0.020  0.00  0.00     0.069 A 
ATOM     11  C   UNN dAMED      -1.911  -0.287   0.548  0.00  0.00     0.117 A 
ATOM     12  C   UNN dAMED      -1.588   0.337  -0.658  0.00  0.00     0.067 A 
ATOM     13  C   UNN dAMED      -3.958   0.310  -1.206  0.00  0.00     0.070 A 
ATOM     14  C   UNN dAMED      -2.643   0.671  -1.509  0.00  0.00     0.030 A 
ATOM     15  C   UNN dAMED       0.802  -0.242  -0.643  0.00  0.00     0.252 C 
ATOM     16  O   UNN dAMED       1.776  -1.508   1.152  0.00  0.00    -0.100 OA
ENDROOT
BRANCH  15  17
ATOM     17  C   UNN dAMED       0.993  -1.193  -1.809  0.00  0.00     0.312 C 
ATOM     18  O   UNN dAMED       1.931  -1.132  -2.592  0.00  0.00    -0.260 OA
BRANCH  17  19
ATOM     19  O   UNN dAMED       0.001  -2.114  -1.897  0.00  0.00    -0.296 OA
ATOM     20  C   UNN dAMED      -0.846  -1.833  -0.822  0.00  0.00     0.185 C 
ENDBRANCH  17  19
ENDBRANCH  15  17
BRANCH  15  21
ATOM     21  C   UNN dAMED       2.123   0.534  -0.427  0.00  0.00     0.090 C 
BRANCH  21  22
ATOM     22  C   UNN dAMED       2.460   1.840  -1.108  0.00  0.00     0.295 C 
ATOM     23  O   UNN dAMED       3.017   1.808  -2.197  0.00  0.00    -0.259 OA
BRANCH  22  24
ATOM     24  O   UNN dAMED       2.242   2.996  -0.426  0.00  0.00    -0.296 OA
ATOM     25  C   UNN dAMED       3.280   3.847  -0.817  0.00  0.00     0.185 C 
ENDBRANCH  22  24
ENDBRANCH  21  22
ENDBRANCH  15  21
TORSDOF 5
