REMARK  3 active torsions:
REMARK  status: ('A' for Active; 'I' for Inactive)
REMARK    1  A    between atoms: C_12  and  C_23 
REMARK    2  A    between atoms: C_17  and  C_21 
REMARK       I    between atoms: C_21  and  N_25 
REMARK    3  A    between atoms: C_23  and  N_25 
ROOT
ATOM      1  C   UNN dAMED       0.837  -1.136   0.530  0.00  0.00     0.063 C 
ATOM      2  C   UNN dAMED       1.661  -2.414   0.716  0.00  0.00     0.052 C 
ENDROOT
BRANCH   1   3
ATOM      3  C   UNN dAMED      -0.479  -1.226  -0.208  0.00  0.00     0.014 A 
ATOM      4  C   UNN dAMED      -0.481  -1.441  -1.584  0.00  0.00     0.001 A 
ATOM      5  C   UNN dAMED      -1.681  -1.674  -2.257  0.00  0.00     0.000 A 
ATOM      6  C   UNN dAMED      -2.899  -1.697  -1.569  0.00  0.00     0.000 A 
ATOM      7  C   UNN dAMED      -4.150  -1.942  -2.276  0.00  0.00     0.000 A 
ATOM      8  C   UNN dAMED      -2.882  -1.485  -0.185  0.00  0.00     0.000 A 
ATOM      9  C   UNN dAMED      -4.851  -3.141  -2.099  0.00  0.00     0.000 A 
ATOM     10  C   UNN dAMED      -4.681  -0.985  -3.149  0.00  0.00     0.000 A 
ATOM     11  C   UNN dAMED      -6.054  -3.373  -2.765  0.00  0.00     0.000 A 
ATOM     12  C   UNN dAMED      -6.567  -2.411  -3.629  0.00  0.00     0.000 A 
ATOM     13  C   UNN dAMED      -5.878  -1.218  -3.826  0.00  0.00     0.000 A 
ATOM     14  C   UNN dAMED      -1.682  -1.261   0.494  0.00  0.00     0.001 A 
ENDBRANCH   1   3
BRANCH   1  15
ATOM     15  N   UNN dAMED       1.508   0.151   0.688  0.00  0.00    -0.212 NA
ATOM     16  C   UNN dAMED       2.748   0.194   1.171  0.00  0.00     0.279 C 
ATOM     17  O   UNN dAMED       3.050   0.259   2.358  0.00  0.00    -0.265 OA
BRANCH  16  18
ATOM     18  C   UNN dAMED       3.836   0.165   0.161  0.00  0.00     0.059 A 
ATOM     19  C   UNN dAMED       5.138   0.461   0.573  0.00  0.00     0.017 A 
ATOM     20  C   UNN dAMED       6.194   0.424  -0.339  0.00  0.00     0.069 A 
ATOM     21 CL   UNN dAMED       7.769   0.792   0.256  0.00  0.00    -0.082 Cl
ATOM     22  C   UNN dAMED       5.947   0.095  -1.673  0.00  0.00     0.068 A 
ATOM     23 CL   UNN dAMED       7.189   0.033  -2.866  0.00  0.00    -0.082 Cl
ATOM     24  C   UNN dAMED       4.648  -0.203  -2.085  0.00  0.00     0.012 A 
ATOM     25  C   UNN dAMED       3.596  -0.176  -1.171  0.00  0.00     0.006 A 
ENDBRANCH  16  18
ENDBRANCH   1  15
TORSDOF 3
