REMARK  2 active torsions:
REMARK  status: ('A' for Active; 'I' for Inactive)
REMARK    1  A    between atoms: C_7  and  C_9 
REMARK       I    between atoms: C_9  and  N_18 
REMARK    2  A    between atoms: C_11  and  N_18 
ROOT
ATOM      1  C   UNN dAMED       1.217   0.298   2.071  0.00  0.00     0.085 A 
ATOM      2  C   UNN dAMED       1.793  -0.979   1.977  0.00  0.00     0.019 A 
ATOM      3  C   UNN dAMED       1.976   1.287   2.714  0.00  0.00     0.028 A 
ATOM      4  C   UNN dAMED       3.084  -1.244   2.430  0.00  0.00     0.002 A 
ATOM      5  C   UNN dAMED       3.258   1.024   3.206  0.00  0.00     0.044 A 
ATOM      6  C   UNN dAMED       3.984   2.029   3.913  0.00  0.00    -0.051 C 
ATOM      7  C   UNN dAMED       3.816  -0.240   3.052  0.00  0.00     0.008 A 
ATOM      8  C   UNN dAMED       4.607   2.856   4.521  0.00  0.00    -0.009 C 
ENDROOT
BRANCH   1   9
ATOM      9  N   UNN dAMED      -0.054   0.570   1.697  0.00  0.00    -0.208 NA
ATOM     10  C   UNN dAMED      -0.432   0.104   0.500  0.00  0.00     0.280 C 
ATOM     11  O   UNN dAMED       0.243  -0.285  -0.451  0.00  0.00    -0.265 OA
BRANCH  10  12
ATOM     12  C   UNN dAMED      -1.895   0.093   0.319  0.00  0.00     0.069 A 
ATOM     13  C   UNN dAMED      -2.585  -1.048   0.736  0.00  0.00     0.006 A 
ATOM     14  C   UNN dAMED      -3.965  -1.122   0.565  0.00  0.00     0.012 A 
ATOM     15  C   UNN dAMED      -4.643  -0.063  -0.032  0.00  0.00     0.059 A 
ATOM     16 CL   UNN dAMED      -6.347  -0.146  -0.213  0.00  0.00    -0.082 Cl
ATOM     17  C   UNN dAMED      -3.958   1.070  -0.465  0.00  0.00     0.023 A 
ATOM     18  C   UNN dAMED      -2.578   1.150  -0.293  0.00  0.00     0.063 A 
ATOM     19 CL   UNN dAMED      -1.778   2.569  -0.849  0.00  0.00    -0.082 Cl
ENDBRANCH  10  12
ENDBRANCH   1   9
TORSDOF 2
