REMARK  1 active torsions:
REMARK  status: ('A' for Active; 'I' for Inactive)
REMARK    1  A    between atoms: N_1  and  C_12 
ROOT
ATOM      1  N   UNN dAMED      -3.330   0.647  -0.620  0.00  0.00     0.141 N 
ATOM      2  C   UNN dAMED      -1.666   0.557  -0.418  0.00  0.00     0.276 C 
ATOM      3  C   UNN dAMED      -0.879   1.838  -0.757  0.00  0.00     0.005 C 
ATOM      4  C   UNN dAMED       0.254   2.410   0.110  0.00  0.00    -0.022 C 
ATOM      5  C   UNN dAMED       1.641   1.761   0.173  0.00  0.00     0.075 C 
ATOM      6  C   UNN dAMED       1.802   0.409   0.794  0.00  0.00     0.108 C 
ATOM      7  C   UNN dAMED       1.746  -0.820  -0.042  0.00  0.00     0.104 C 
ATOM      8  C   UNN dAMED       1.002  -2.021   0.447  0.00  0.00     0.050 C 
ATOM      9  C   UNN dAMED      -0.518  -1.918   0.568  0.00  0.00     0.009 C 
ATOM     10  C   UNN dAMED      -1.315  -1.188  -0.518  0.00  0.00     0.036 C 
ATOM     11  C   UNN dAMED      -1.703   0.296  -0.387  0.00  0.00     0.251 C 
ATOM     12  N   UNN dAMED       1.948  -0.657  -1.306  0.00  0.00    -0.100 NA
ATOM     13  O   UNN dAMED       1.757  -1.841  -1.965  0.00  0.00    -0.061 OA
ATOM     14  N   UNN dAMED       1.627   0.256   2.062  0.00  0.00    -0.099 NA
ATOM     15  O   UNN dAMED       1.618   1.476   2.679  0.00  0.00    -0.061 OA
ENDROOT
BRANCH   1  16
ATOM     16  C   UNN dAMED      -1.692   0.324  -0.380  0.00  0.00     0.251 C 
ATOM     17  C   UNN dAMED      -1.264  -0.682   0.694  0.00  0.00     0.037 C 
ENDBRANCH   1  16
TORSDOF 1
