REMARK  2 active torsions:
REMARK  status: ('A' for Active; 'I' for Inactive)
REMARK       I    between atoms: N_4  and  C_5 
REMARK    1  A    between atoms: C_5  and  C_6 
REMARK    2  A    between atoms: C_15  and  C_19 
ROOT
ATOM      1  C   UNN dAMED      -2.065  -2.278   1.332  0.00  0.00     0.162 C 
ATOM      2  C   UNN dAMED      -0.931  -1.449   0.795  0.00  0.00     0.114 C 
ATOM      3  O   UNN dAMED      -1.034   1.396  -1.171  0.00  0.00    -0.274 OA
ATOM      4  N   UNN dAMED      -1.488  -0.649  -0.225  0.00  0.00    -0.197 NA
ATOM      5  C   UNN dAMED      -0.754   0.498  -0.384  0.00  0.00     0.238 C 
ATOM      6  O   UNN dAMED      -3.265  -1.868   0.746  0.00  0.00    -0.343 OA
ATOM      7  C   UNN dAMED      -2.910  -0.632   0.092  0.00  0.00     0.146 C 
ATOM      8  C   UNN dAMED      -3.716  -0.455  -1.203  0.00  0.00     0.043 C 
ATOM      9  C   UNN dAMED      -3.202   0.543   1.046  0.00  0.00     0.043 C 
ATOM     10  C   UNN dAMED      -4.100   1.680   0.543  0.00  0.00     0.004 C 
ATOM     11  C   UNN dAMED      -3.736   0.924  -1.871  0.00  0.00     0.004 C 
ATOM     12  C   UNN dAMED      -3.900   2.099  -0.911  0.00  0.00     0.000 C 
ENDROOT
BRANCH   5  13
ATOM     13  C   UNN dAMED       0.452   0.587   0.466  0.00  0.00     0.050 A 
ATOM     14  C   UNN dAMED       1.148   1.792   0.553  0.00  0.00     0.004 A 
ATOM     15  C   UNN dAMED       2.298   1.871   1.340  0.00  0.00    -0.004 A 
ATOM     16  C   UNN dAMED       2.743   0.746   2.036  0.00  0.00    -0.023 A 
ATOM     17  C   UNN dAMED       2.042  -0.452   1.955  0.00  0.00    -0.004 A 
ATOM     18  C   UNN dAMED       0.899  -0.534   1.166  0.00  0.00     0.004 A 
BRANCH  16  19
ATOM     19  C   UNN dAMED       3.984   0.810   2.855  0.00  0.00     0.019 C 
ATOM     20  C   UNN dAMED       3.625   1.269   4.291  0.00  0.00     0.004 C 
ATOM     21  C   UNN dAMED       4.394  -0.606   3.252  0.00  0.00     0.004 C 
ATOM     22  C   UNN dAMED       4.820   2.003   2.414  0.00  0.00     0.004 C 
ENDBRANCH  16  19
ENDBRANCH   5  13
TORSDOF 2
