REMARK  3 active torsions:
REMARK  status: ('A' for Active; 'I' for Inactive)
REMARK    1  A    between atoms: O_2  and  C_16 
REMARK    2  A    between atoms: O_2  and  C_17 
REMARK    3  A    between atoms: C_14  and  C_17 
ROOT
ATOM      1  C   UNN dAMED       5.127   1.332   0.406  0.00  0.00    -0.045 C 
ATOM      2  C   UNN dAMED       5.907   0.524   0.830  0.00  0.00    -0.012 C 
ATOM      3  C   UNN dAMED       4.180   2.309  -0.105  0.00  0.00     0.219 C 
ENDROOT
BRANCH   3   4
ATOM      4  O   UNN dAMED       2.886   2.371   0.412  0.00  0.00    -0.333 OA
BRANCH   4   5
ATOM      5  C   UNN dAMED       2.447   1.269   1.144  0.00  0.00     0.196 C 
BRANCH   5   6
ATOM      6  C   UNN dAMED       1.320   0.377   0.606  0.00  0.00     0.130 C 
ATOM      7  O   UNN dAMED       1.421  -0.277  -0.621  0.00  0.00    -0.259 OA
ATOM      8  C   UNN dAMED       0.107  -0.566  -0.969  0.00  0.00     0.377 C 
ATOM      9  O   UNN dAMED      -0.168  -1.055  -2.059  0.00  0.00    -0.237 OA
ATOM     10  N   UNN dAMED      -0.790  -0.257   0.041  0.00  0.00    -0.251 N 
ATOM     11  C   UNN dAMED      -2.168  -0.103   0.036  0.00  0.00     0.069 A 
ATOM     12  C   UNN dAMED      -0.119   0.556   0.970  0.00  0.00     0.108 C 
ATOM     13  C   UNN dAMED      -2.940  -0.449  -1.071  0.00  0.00     0.018 A 
ATOM     14  C   UNN dAMED      -2.785   0.347   1.198  0.00  0.00     0.018 A 
ATOM     15  C   UNN dAMED      -4.329  -0.334  -1.020  0.00  0.00     0.002 A 
ATOM     16  C   UNN dAMED      -4.948   0.118   0.142  0.00  0.00     0.000 A 
ATOM     17  C   UNN dAMED      -4.174   0.461   1.248  0.00  0.00     0.002 A 
ENDBRANCH   5   6
ENDBRANCH   4   5
ENDBRANCH   3   4
TORSDOF 3
