REMARK  0 active torsions:
REMARK  status: ('A' for Active; 'I' for Inactive)
ROOT
ATOM      1  N   UNN dAMED      -2.175  -0.977  -0.396  0.00  0.00    -0.335 N 
ATOM      2  H   UNN dAMED      -2.096  -1.979  -0.490  0.00  0.00     0.168 HD
ATOM      3  N   UNN dAMED      -3.103   1.036  -0.311  0.00  0.00    -0.224 NA
ATOM      4  C   UNN dAMED      -3.329  -0.249  -0.475  0.00  0.00     0.175 A 
ATOM      5  C   UNN dAMED      -1.140  -0.111  -0.166  0.00  0.00     0.076 A 
ATOM      6  C   UNN dAMED      -1.742   1.143  -0.116  0.00  0.00     0.099 A 
ATOM      7  C   UNN dAMED       0.244  -0.294   0.002  0.00  0.00     0.017 A 
ATOM      8  C   UNN dAMED       0.830  -1.560  -0.051  0.00  0.00     0.005 A 
ATOM      9  C   UNN dAMED       2.211  -1.667   0.124  0.00  0.00     0.042 A 
ATOM     10  C   UNN dAMED      -0.947   2.279   0.111  0.00  0.00     0.021 A 
ATOM     11  C   UNN dAMED       1.029   0.849   0.228  0.00  0.00     0.005 A 
ATOM     12  C   UNN dAMED       3.059  -0.568   0.354  0.00  0.00     0.196 A 
ATOM     13  C   UNN dAMED       0.435   2.112   0.280  0.00  0.00     0.002 A 
ATOM     14  C   UNN dAMED       2.409   0.681   0.396  0.00  0.00     0.042 A 
ATOM     15  O   UNN dAMED       4.316  -0.695   0.510  0.00  0.00    -0.287 OA
ENDROOT
TORSDOF 0
