REMARK  3 active torsions:
REMARK  status: ('A' for Active; 'I' for Inactive)
REMARK    1  A    between atoms: N_1  and  C_4 
REMARK    2  A    between atoms: C_3  and  C_11 
REMARK    3  A    between atoms: C_6  and  O_13 
ROOT
ATOM      1  O   UNN dAMED       1.981   0.294  -0.355  0.00  0.00    -0.284 OA
ATOM      2  C   UNN dAMED       1.193  -0.827   0.029  0.00  0.00     0.133 A 
ATOM      3  C   UNN dAMED      -0.312  -0.655  -0.125  0.00  0.00     0.131 A 
ATOM      4  C   UNN dAMED      -0.449   0.779  -0.555  0.00  0.00     0.196 A 
ATOM      5  C   UNN dAMED       0.998   1.243  -0.742  0.00  0.00     0.227 A 
ATOM      6  O   UNN dAMED      -1.444   1.173  -1.412  0.00  0.00    -0.184 OA
ENDROOT
BRANCH   3   7
ATOM      7  N   UNN dAMED      -1.213  -1.223   0.823  0.00  0.00    -0.250 NA
ATOM      8  C   UNN dAMED      -0.761  -1.855   1.852  0.00  0.00     0.038 C 
ATOM      9  C   UNN dAMED      -1.718  -2.444   2.847  0.00  0.00     0.047 C 
ATOM     10  C   UNN dAMED       0.718  -2.001   2.055  0.00  0.00     0.047 C 
ENDBRANCH   3   7
BRANCH   2  11
ATOM     11  C   UNN dAMED       1.814  -2.126   0.567  0.00  0.00     0.235 C 
ATOM     12  O   UNN dAMED       3.049  -2.549   0.154  0.00  0.00    -0.213 OA
ENDBRANCH   2  11
BRANCH   5  13
ATOM     13  O   UNN dAMED       1.323   2.674  -0.718  0.00  0.00    -0.306 OA
ATOM     14  C   UNN dAMED       0.998   1.248  -0.743  0.00  0.00     0.184 C 
ENDBRANCH   5  13
TORSDOF 3
