REMARK  3 active torsions:
REMARK  status: ('A' for Active; 'I' for Inactive)
REMARK    1  A    between atoms: C_6  and  C_13 
REMARK    2  A    between atoms: C_7  and  C_14 
REMARK    3  A    between atoms: C_12  and  N_15 
ROOT
ATOM      1  C   UNN dAMED       0.717  -0.860   0.477  0.00  0.00     0.000 A 
ATOM      2  C   UNN dAMED       0.832   0.360   1.146  0.00  0.00     0.002 A 
ATOM      3  C   UNN dAMED       1.708  -1.271  -0.415  0.00  0.00     0.002 A 
ATOM      4  C   UNN dAMED       2.822  -0.467  -0.637  0.00  0.00     0.024 A 
ATOM      5  C   UNN dAMED       1.947   1.167   0.939  0.00  0.00     0.024 A 
ATOM      6  C   UNN dAMED       2.926   0.744   0.043  0.00  0.00     0.127 A 
ENDROOT
BRANCH   1   7
ATOM      7  C   UNN dAMED      -0.585  -1.613   0.526  0.00  0.00     0.000 C 
ATOM      8  C   UNN dAMED      -1.643  -1.078   1.132  0.00  0.00     0.000 C 
BRANCH   8   9
ATOM      9  C   UNN dAMED      -2.731  -0.427   0.323  0.00  0.00     0.003 A 
ATOM     10  C   UNN dAMED      -2.532  -0.189  -1.032  0.00  0.00     0.021 A 
ATOM     11  C   UNN dAMED      -3.477   0.575  -1.696  0.00  0.00     0.099 A 
ATOM     12  N   UNN dAMED      -4.572   1.104  -1.108  0.00  0.00    -0.242 NA
ATOM     13  C   UNN dAMED      -4.728   0.849   0.209  0.00  0.00     0.099 A 
ATOM     14  C   UNN dAMED      -3.844   0.100   0.967  0.00  0.00     0.021 A 
ENDBRANCH   8   9
ENDBRANCH   1   7
BRANCH   6  15
ATOM     15  N   UNN dAMED       4.089   1.579  -0.181  0.00  0.00    -0.114 N 
ATOM     16  O   UNN dAMED       5.056   1.070  -0.765  0.00  0.00    -0.532 OA
ATOM     17  O   UNN dAMED       4.044   2.749   0.224  0.00  0.00    -0.532 OA
ENDBRANCH   6  15
TORSDOF 3
