REMARK  0 active torsions:
REMARK  status: ('A' for Active; 'I' for Inactive)
ROOT
ATOM      1  C   UNN dAMED       1.850   2.730   4.065  0.00  0.00     0.042 A 
ATOM      2  C   UNN dAMED       0.887   2.304   3.148  0.00  0.00     0.005 A 
ATOM      3  C   UNN dAMED      -1.999  -1.195   1.173  0.00  0.00     0.067 A 
ATOM      4  C   UNN dAMED       3.231   2.701   3.810  0.00  0.00     0.196 A 
ATOM      5  C   UNN dAMED       1.291   1.822   1.912  0.00  0.00     0.019 A 
ATOM      6  C   UNN dAMED       0.263   1.364   0.917  0.00  0.00     0.085 C 
ATOM      7  C   UNN dAMED      -1.384  -0.099   0.569  0.00  0.00     0.109 A 
ATOM      8  C   UNN dAMED      -3.353  -1.486   1.019  0.00  0.00     0.201 A 
ATOM      9  C   UNN dAMED       3.577   2.212   2.539  0.00  0.00     0.042 A 
ATOM     10  C   UNN dAMED       2.641   1.781   1.597  0.00  0.00     0.005 A 
ATOM     11  C   UNN dAMED      -0.096   2.253  -0.253  0.00  0.00     0.121 C 
ATOM     12  C   UNN dAMED      -2.126   0.759  -0.258  0.00  0.00     0.097 A 
ATOM     13  C   UNN dAMED      -4.032  -0.576   0.189  0.00  0.00     0.084 A 
ATOM     14  C   UNN dAMED      -1.394   1.892  -0.886  0.00  0.00     0.184 C 
ATOM     15  C   UNN dAMED      -3.509   0.554  -0.480  0.00  0.00     0.203 A 
ATOM     16  O   UNN dAMED      -0.039   0.006   0.805  0.00  0.00    -0.311 OA
ATOM     17  O   UNN dAMED      -1.797   2.556  -1.825  0.00  0.00    -0.291 OA
ATOM     18  O   UNN dAMED      -3.923  -2.478   1.574  0.00  0.00    -0.286 OA
ATOM     19  O   UNN dAMED      -4.275   1.287  -1.192  0.00  0.00    -0.286 OA
ATOM     20  O   UNN dAMED       4.096   3.090   4.659  0.00  0.00    -0.287 OA
ENDROOT
TORSDOF 0
