REMARK  1 active torsions:
REMARK  status: ('A' for Active; 'I' for Inactive)
REMARK    1  A    between atoms: N_17  and  N_18 
ROOT
ATOM      1  H   UNN dAMED      -1.132  -1.838   0.648  0.00  0.00     0.184 HD
ATOM      2  N   UNN dAMED      -1.687  -1.078   0.268  0.00  0.00    -0.190 N 
ATOM      3  O   UNN dAMED      -3.982   1.823  -1.197  0.00  0.00    -0.267 OA
ATOM      4  N   UNN dAMED      -1.853   1.105  -0.652  0.00  0.00    -0.152 N 
ATOM      5  H   UNN dAMED      -1.417   1.970  -0.957  0.00  0.00     0.187 HD
ATOM      6  C   UNN dAMED      -3.035  -1.306   0.204  0.00  0.00     0.056 A 
ATOM      7  C   UNN dAMED      -3.821  -0.344  -0.286  0.00  0.00     0.074 A 
ATOM      8  C   UNN dAMED      -3.225   0.966  -0.756  0.00  0.00     0.273 A 
ATOM      9  C   UNN dAMED      -1.056   0.087  -0.138  0.00  0.00     0.726 A 
ATOM     10  C   UNN dAMED      -3.599  -2.613   0.678  0.00  0.00     0.051 C 
ATOM     11  N   UNN dAMED       0.219   0.340  -0.091  0.00  0.00     0.042 NA
ENDROOT
BRANCH  11  12
ATOM     12  N   UNN dAMED       0.948  -0.720   0.433  0.00  0.00    -0.138 NA
ATOM     13  C   UNN dAMED       2.164  -0.331   0.623  0.00  0.00     0.073 C 
ATOM     14  C   UNN dAMED       3.235  -1.342   0.944  0.00  0.00     0.047 C 
ATOM     15  C   UNN dAMED       2.643   0.975   0.035  0.00  0.00    -0.029 C 
ATOM     16  C   UNN dAMED       4.579  -0.815   1.448  0.00  0.00     0.007 C 
ATOM     17  C   UNN dAMED       5.095   0.416   0.713  0.00  0.00     0.005 C 
ATOM     18  C   UNN dAMED       4.032   1.480   0.451  0.00  0.00     0.023 C 
ATOM     19  C   UNN dAMED       1.596   2.005  -0.403  0.00  0.00     0.028 C 
ENDBRANCH  11  12
TORSDOF 1
