REMARK  3 active torsions:
REMARK  status: ('A' for Active; 'I' for Inactive)
REMARK       I    between atoms: C_2  and  N_4 
REMARK    1  A    between atoms: N_4  and  C_5 
REMARK    2  A    between atoms: C_5  and  C_7 
REMARK    3  A    between atoms: C_7  and  C_8 
ROOT
ATOM      1  C   UNN dAMED       0.164   0.406  -1.197  0.00  0.00     0.068 C 
ENDROOT
BRANCH   1   2
ATOM      2  C   UNN dAMED      -0.263   1.846  -1.503  0.00  0.00     0.046 C 
ATOM      3  C   UNN dAMED       0.836   2.843  -1.883  0.00  0.00     0.048 C 
BRANCH   2   4
ATOM      4  N   UNN dAMED      -1.597   2.067  -2.050  0.00  0.00    -0.204 NA
ATOM      5  C   UNN dAMED      -1.893   3.224  -2.629  0.00  0.00     0.354 C 
ATOM      6  N   UNN dAMED      -1.242   4.381  -2.110  0.00  0.00    -0.038 NA
ATOM      7  O   UNN dAMED      -2.669   3.389  -3.562  0.00  0.00    -0.249 OA
ENDBRANCH   2   4
ENDBRANCH   1   2
BRANCH   1   8
ATOM      8  C   UNN dAMED       1.448   0.137  -0.456  0.00  0.00    -0.017 A 
ATOM      9  C   UNN dAMED       2.364   1.168  -0.265  0.00  0.00    -0.004 A 
ATOM     10  C   UNN dAMED       3.603   0.901   0.312  0.00  0.00    -0.000 A 
ATOM     11  C   UNN dAMED       3.928  -0.400   0.690  0.00  0.00    -0.000 A 
ATOM     12  C   UNN dAMED       3.016  -1.434   0.487  0.00  0.00    -0.000 A 
ATOM     13  C   UNN dAMED       1.779  -1.166  -0.092  0.00  0.00    -0.004 A 
ENDBRANCH   1   8
TORSDOF 3
