REMARK  3 active torsions:
REMARK  status: ('A' for Active; 'I' for Inactive)
REMARK    1  A    between atoms: N_3  and  C_7 
REMARK    2  A    between atoms: N_4  and  C_11 
REMARK    3  A    between atoms: C_13  and  N_17 
ROOT
ATOM      1  N   UNN dAMED      -0.793  -0.194  -0.727  0.00  0.00    -0.148 NA
ATOM      2  N   UNN dAMED      -0.259  -1.124  -0.084  0.00  0.00    -0.148 NA
ENDROOT
BRANCH   2   3
ATOM      3  C   UNN dAMED       1.134  -1.158  -0.275  0.00  0.00     0.103 A 
ATOM      4  C   UNN dAMED       1.921  -0.005  -0.350  0.00  0.00     0.018 A 
ATOM      5  C   UNN dAMED       3.307  -0.096  -0.492  0.00  0.00    -0.003 A 
ATOM      6  C   UNN dAMED       3.949  -1.336  -0.527  0.00  0.00     0.072 A 
ATOM      7  C   UNN dAMED       4.116   1.161  -0.645  0.00  0.00     0.033 C 
ATOM      8  C   UNN dAMED       3.160  -2.483  -0.426  0.00  0.00     0.020 A 
ATOM      9  C   UNN dAMED       1.772  -2.398  -0.303  0.00  0.00     0.022 A 
BRANCH   6  10
ATOM     10  N   UNN dAMED       5.281  -1.421  -0.658  0.00  0.00    -0.269 NA
ATOM     11  C   UNN dAMED       6.063  -0.225  -0.925  0.00  0.00     0.152 C 
ENDBRANCH   6  10
ENDBRANCH   2   3
BRANCH   1  12
ATOM     12  C   UNN dAMED      -2.188  -0.246  -0.582  0.00  0.00     0.102 A 
ATOM     13  C   UNN dAMED      -2.809   0.014   0.639  0.00  0.00     0.017 A 
ATOM     14  C   UNN dAMED      -4.198  -0.032   0.754  0.00  0.00     0.105 A 
ATOM     15  C   UNN dAMED      -1.972   0.294   1.855  0.00  0.00     0.034 C 
ATOM     16  N   UNN dAMED      -4.979  -0.315  -0.357  0.00  0.00    -0.183 N 
ATOM     17  O   UNN dAMED      -6.246  -0.360  -0.253  0.00  0.00    -0.080 OA
ATOM     18  C   UNN dAMED      -4.372  -0.547  -1.581  0.00  0.00     0.110 A 
ATOM     19  C   UNN dAMED      -2.982  -0.509  -1.693  0.00  0.00     0.042 A 
ENDBRANCH   1  12
TORSDOF 3
