REMARK  0 active torsions:
REMARK  status: ('A' for Active; 'I' for Inactive)
REMARK       I    between atoms: C_13  and  N_16 
ROOT
ATOM      1  C   UNN dAMED      -4.050   0.001  -0.038  0.00  0.00    -0.001 A 
ATOM      2  C   UNN dAMED      -3.367   1.151   0.351  0.00  0.00    -0.003 A 
ATOM      3  C   UNN dAMED      -3.344  -1.157  -0.362  0.00  0.00    -0.003 A 
ATOM      4  C   UNN dAMED      -1.977   1.136   0.416  0.00  0.00    -0.006 A 
ATOM      5  C   UNN dAMED      -1.952  -1.166  -0.299  0.00  0.00    -0.006 A 
ATOM      6  C   UNN dAMED      -1.270  -0.015   0.080  0.00  0.00     0.062 A 
ATOM      7  N   UNN dAMED       0.117  -0.055   0.166  0.00  0.00    -0.241 N 
ATOM      8  O   UNN dAMED       0.668   2.164   0.028  0.00  0.00    -0.243 OA
ATOM      9  C   UNN dAMED       0.613  -1.257  -0.411  0.00  0.00     0.205 C 
ATOM     10  C   UNN dAMED       1.022   0.987   0.050  0.00  0.00     0.370 C 
ATOM     11  N   UNN dAMED       1.816  -1.580  -0.280  0.00  0.00    -0.038 NA
ATOM     12  N   UNN dAMED       2.366   0.651   0.044  0.00  0.00    -0.002 NA
ATOM     13  C   UNN dAMED       2.723  -0.582  -0.094  0.00  0.00     0.751 C 
ATOM     14  C   UNN dAMED      -1.208   2.368   0.801  0.00  0.00     0.033 C 
ATOM     15  C   UNN dAMED      -1.197  -2.430  -0.593  0.00  0.00     0.033 C 
ATOM     16  N   UNN dAMED       3.995  -0.938  -0.090  0.00  0.00    -0.084 NA
ATOM     17  C   UNN dAMED       5.009  -0.038  -0.606  0.00  0.00     0.172 C 
ENDROOT
TORSDOF 0
