REMARK  2 active torsions:
REMARK  status: ('A' for Active; 'I' for Inactive)
REMARK    1  A    between atoms: C_3  and  N_13 
REMARK    2  A    between atoms: C_12  and  N_16 
REMARK       I    between atoms: N_13  and  C_14 
REMARK       I    between atoms: C_14  and  N_16 
ROOT
ATOM      1  N   UNN dAMED       1.333   0.126  -3.054  0.00  0.00    -0.191 NA
ATOM      2  C   UNN dAMED       0.769   0.517  -1.885  0.00  0.00     0.370 C 
ATOM      3  O   UNN dAMED       0.021   1.478  -1.712  0.00  0.00    -0.242 OA
ATOM      4  N   UNN dAMED       1.068  -0.362  -0.902  0.00  0.00    -0.172 NA
ENDROOT
BRANCH   1   5
ATOM      5  C   UNN dAMED       0.978   0.821  -4.154  0.00  0.00     0.086 A 
ATOM      6  C   UNN dAMED       1.221   2.196  -4.295  0.00  0.00     0.019 A 
ATOM      7  C   UNN dAMED       0.908   2.878  -5.470  0.00  0.00     0.002 A 
ATOM      8  C   UNN dAMED       0.389   2.181  -6.555  0.00  0.00     0.000 A 
ATOM      9  C   UNN dAMED       0.182   0.809  -6.460  0.00  0.00     0.002 A 
ATOM     10  C   UNN dAMED       0.474   0.143  -5.270  0.00  0.00     0.019 A 
ENDBRANCH   1   5
BRANCH   4  11
ATOM     11  C   UNN dAMED       2.310  -0.201  -0.390  0.00  0.00     0.167 A 
ATOM     12  N   UNN dAMED       3.239  -1.081  -0.846  0.00  0.00    -0.225 NA
ATOM     13  C   UNN dAMED       4.482  -1.017  -0.316  0.00  0.00     0.101 A 
ATOM     14  C   UNN dAMED       4.857  -0.123   0.669  0.00  0.00     0.021 A 
ATOM     15  C   UNN dAMED       3.892   0.763   1.128  0.00  0.00     0.005 A 
ATOM     16  C   UNN dAMED       2.602   0.727   0.604  0.00  0.00     0.039 A 
ENDBRANCH   4  11
TORSDOF 2
