REMARK  5 active torsions:
REMARK  status: ('A' for Active; 'I' for Inactive)
REMARK    1  A    between atoms: N_2  and  C_13 
REMARK    2  A    between atoms: C_13  and  C_14 
REMARK    3  A    between atoms: C_13  and  C_17 
REMARK    4  A    between atoms: C_17  and  C_18 
REMARK    5  A    between atoms: C_18  and  C_19 
ROOT
ATOM      1  O   UNN dAMED       2.763  -2.590  -0.464  0.00  0.00    -0.273 OA
ATOM      2  N   UNN dAMED       2.448  -0.797   1.013  0.00  0.00    -0.156 NA
ATOM      3  O   UNN dAMED       2.962   1.378   1.739  0.00  0.00    -0.273 OA
ATOM      4  C   UNN dAMED       3.150  -1.762   0.341  0.00  0.00     0.243 C 
ATOM      5  C   UNN dAMED       4.551  -1.476   0.644  0.00  0.00     0.055 A 
ATOM      6  C   UNN dAMED       5.694  -2.113   0.222  0.00  0.00     0.008 A 
ATOM      7  C   UNN dAMED       6.900  -1.506   0.593  0.00  0.00     0.042 A 
ATOM      8  C   UNN dAMED       4.601  -0.286   1.355  0.00  0.00     0.058 A 
ATOM      9  C   UNN dAMED       7.021  -0.298   1.329  0.00  0.00     0.196 A 
ATOM     10  C   UNN dAMED       5.804   0.309   1.686  0.00  0.00     0.046 A 
ATOM     11  C   UNN dAMED       3.237   0.222   1.479  0.00  0.00     0.243 C 
ATOM     12  O   UNN dAMED       8.148   0.208   1.634  0.00  0.00    -0.287 OA
ENDROOT
BRANCH   2  13
ATOM     13  C   UNN dAMED       1.344  -0.308   0.261  0.00  0.00     0.159 C 
BRANCH  13  14
ATOM     14  C   UNN dAMED      -0.066  -0.756   0.564  0.00  0.00     0.201 C 
ATOM     15  O   UNN dAMED      -0.484  -0.552   1.745  0.00  0.00    -0.646 OA
ATOM     16  O   UNN dAMED      -0.729  -1.236  -0.407  0.00  0.00    -0.646 OA
ENDBRANCH  13  14
BRANCH  13  17
ATOM     17  C   UNN dAMED       1.562   0.834  -0.743  0.00  0.00     0.037 C 
BRANCH  17  18
ATOM     18  C   UNN dAMED       0.470   1.902  -0.913  0.00  0.00     0.086 C 
BRANCH  18  19
ATOM     19  C   UNN dAMED       0.138   2.889   0.307  0.00  0.00     0.243 C 
ATOM     20  O   UNN dAMED       0.845   3.871   0.473  0.00  0.00    -0.276 OA
ATOM     21  N   UNN dAMED       0.434   1.975  -0.845  0.00  0.00    -0.061 NA
ENDBRANCH  18  19
ENDBRANCH  17  18
ENDBRANCH  13  17
ENDBRANCH   2  13
TORSDOF 5
