REMARK  3 active torsions:
REMARK  status: ('A' for Active; 'I' for Inactive)
REMARK    1  A    between atoms: C_8  and  C_11 
REMARK    2  A    between atoms: C_11  and  C_12 
REMARK       I    between atoms: C_12  and  N_13 
REMARK    3  A    between atoms: N_13  and  C_14 
ROOT
ATOM      1  C   UNN dAMED      -0.779   1.300  -0.226  0.00  0.00     0.128 C 
ENDROOT
BRANCH   1   2
ATOM      2  C   UNN dAMED      -1.750   0.233  -0.734  0.00  0.00     0.074 C 
ATOM      3  S   UNN dAMED      -2.291   0.292  -2.426  0.00  0.00    -0.084 SA
ATOM      4  C   UNN dAMED      -4.002   0.514  -1.981  0.00  0.00     0.047 A 
ATOM      5  C   UNN dAMED      -4.844   0.933  -3.021  0.00  0.00     0.008 A 
ATOM      6  C   UNN dAMED      -4.502   0.299  -0.678  0.00  0.00     0.091 A 
ATOM      7  C   UNN dAMED      -6.196   1.162  -2.800  0.00  0.00     0.001 A 
ATOM      8  C   UNN dAMED      -6.714   0.978  -1.528  0.00  0.00     0.002 A 
ATOM      9  C   UNN dAMED      -5.874   0.555  -0.498  0.00  0.00     0.020 A 
ATOM     10  N   UNN dAMED      -3.847  -0.157   0.417  0.00  0.00    -0.207 NA
ATOM     11  C   UNN dAMED      -2.579  -0.524   0.260  0.00  0.00     0.282 C 
ATOM     12  O   UNN dAMED      -1.951  -1.233   1.039  0.00  0.00    -0.265 OA
ENDBRANCH   1   2
BRANCH   1  13
ATOM     13  C   UNN dAMED       0.588   0.923   0.281  0.00  0.00     0.261 C 
ATOM     14  N   UNN dAMED       1.295   1.928   0.793  0.00  0.00    -0.212 NA
ATOM     15  O   UNN dAMED       0.993  -0.201   0.004  0.00  0.00    -0.270 OA
BRANCH  14  16
ATOM     16  C   UNN dAMED       1.527   1.819   2.118  0.00  0.00     0.081 A 
ATOM     17  C   UNN dAMED       0.564   1.402   3.052  0.00  0.00     0.019 A 
ATOM     18  C   UNN dAMED       0.831   1.378   4.422  0.00  0.00     0.002 A 
ATOM     19  C   UNN dAMED       2.065   1.809   4.895  0.00  0.00     0.011 A 
ATOM     20  C   UNN dAMED       3.025   2.243   3.990  0.00  0.00     0.055 A 
ATOM     21  C   UNN dAMED       2.762   2.243   2.621  0.00  0.00     0.006 A 
ATOM     22 CL   UNN dAMED       4.540   2.813   4.558  0.00  0.00    -0.083 Cl
ATOM     23  C   UNN dAMED       3.811   2.741   1.667  0.00  0.00     0.034 C 
ENDBRANCH  14  16
ENDBRANCH   1  13
TORSDOF 3
