REMARK  6 active torsions:
REMARK  status: ('A' for Active; 'I' for Inactive)
REMARK    1  A    between atoms: C_3  and  C_22 
REMARK    2  A    between atoms: C_8  and  C_19 
REMARK    3  A    between atoms: C_11  and  N_18 
REMARK    4  A    between atoms: O_13  and  C_14 
REMARK    5  A    between atoms: O_13  and  C_16 
REMARK       I    between atoms: C_16  and  N_18 
REMARK    6  A    between atoms: C_19  and  C_21 
ROOT
ATOM      1  C   UNN dAMED      -0.797  -0.639  -1.383  0.00  0.00     0.005 A 
ATOM      2  C   UNN dAMED       0.511  -0.915  -1.762  0.00  0.00     0.039 A 
ATOM      3  C   UNN dAMED      -1.456   0.431  -1.990  0.00  0.00     0.019 A 
ATOM      4  C   UNN dAMED       1.184  -0.137  -2.693  0.00  0.00     0.005 A 
ATOM      5  C   UNN dAMED      -0.826   1.229  -2.957  0.00  0.00     0.087 A 
ATOM      6  C   UNN dAMED       0.512   0.934  -3.276  0.00  0.00     0.019 A 
ENDROOT
BRANCH   2   7
ATOM      7  C   UNN dAMED       1.230  -2.011  -1.125  0.00  0.00     0.196 C 
ATOM      8  O   UNN dAMED       1.079  -3.155  -1.535  0.00  0.00    -0.287 OA
BRANCH   7   9
ATOM      9  C   UNN dAMED       2.461  -1.683  -0.332  0.00  0.00     0.042 C 
ATOM     10  C   UNN dAMED       2.780  -0.411  -0.096  0.00  0.00     0.003 C 
BRANCH  10  11
ATOM     11  C   UNN dAMED       3.982  -0.093   0.744  0.00  0.00     0.000 A 
ATOM     12  C   UNN dAMED       5.224   0.085   0.138  0.00  0.00     0.000 A 
ATOM     13  C   UNN dAMED       6.365   0.227   0.922  0.00  0.00     0.000 A 
ATOM     14  C   UNN dAMED       6.264   0.187   2.311  0.00  0.00     0.000 A 
ATOM     15  C   UNN dAMED       5.022   0.014   2.917  0.00  0.00     0.000 A 
ATOM     16  C   UNN dAMED       3.881  -0.128   2.133  0.00  0.00     0.000 A 
ENDBRANCH  10  11
ENDBRANCH   7   9
ENDBRANCH   2   7
BRANCH   5  17
ATOM     17  N   UNN dAMED      -1.435   2.327  -3.446  0.00  0.00    -0.186 NA
ATOM     18  C   UNN dAMED      -1.892   2.195  -4.692  0.00  0.00     0.388 C 
ATOM     19  O   UNN dAMED      -1.435   1.539  -5.622  0.00  0.00    -0.236 OA
BRANCH  18  20
ATOM     20  O   UNN dAMED      -2.967   3.013  -4.869  0.00  0.00    -0.283 OA
BRANCH  20  21
ATOM     21  C   UNN dAMED      -3.248   3.485  -3.587  0.00  0.00     0.154 C 
ATOM     22  C   UNN dAMED      -2.211   3.281  -2.477  0.00  0.00     0.035 C 
ENDBRANCH  20  21
ENDBRANCH  18  20
ENDBRANCH   5  17
TORSDOF 6
