REMARK  5 active torsions:
REMARK  status: ('A' for Active; 'I' for Inactive)
REMARK    1  A    between atoms: C_3  and  C_7 
REMARK    2  A    between atoms: C_7  and  O_9 
REMARK    3  A    between atoms: O_9  and  C_10 
REMARK    4  A    between atoms: C_10  and  C_11 
REMARK    5  A    between atoms: C_11  and  C_12 
ROOT
ATOM      1  C   UNN dAMED      -0.108  -0.312   0.618  0.00  0.00     0.297 C 
ATOM      2  O   UNN dAMED       0.247  -0.546   1.760  0.00  0.00    -0.259 OA
ENDROOT
BRANCH   1   3
ATOM      3  C   UNN dAMED      -1.486   0.004   0.220  0.00  0.00     0.082 A 
ATOM      4  C   UNN dAMED      -1.803   0.471  -1.047  0.00  0.00     0.104 A 
ATOM      5  N   UNN dAMED      -3.057   0.774  -1.442  0.00  0.00    -0.242 NA
ATOM      6  C   UNN dAMED      -4.033   0.609  -0.521  0.00  0.00     0.099 A 
ATOM      7  C   UNN dAMED      -3.818   0.157   0.772  0.00  0.00     0.021 A 
ATOM      8  C   UNN dAMED      -2.515  -0.151   1.142  0.00  0.00     0.009 A 
ENDBRANCH   1   3
BRANCH   1   9
ATOM      9  O   UNN dAMED       0.700  -0.311  -0.465  0.00  0.00    -0.298 OA
BRANCH   9  10
ATOM     10  C   UNN dAMED       0.008   0.429  -1.427  0.00  0.00     0.152 C 
BRANCH  10  11
ATOM     11  C   UNN dAMED       0.094   1.959  -1.428  0.00  0.00     0.033 C 
BRANCH  11  12
ATOM     12  C   UNN dAMED       1.463   2.646  -1.368  0.00  0.00     0.003 C 
ATOM     13  C   UNN dAMED       2.278   2.615  -0.071  0.00  0.00     0.000 C 
ENDBRANCH  11  12
ENDBRANCH  10  11
ENDBRANCH   9  10
ENDBRANCH   1   9
TORSDOF 5
