REMARK  3 active torsions:
REMARK  status: ('A' for Active; 'I' for Inactive)
REMARK    1  A    between atoms: C_10  and  O_15 
REMARK    2  A    between atoms: O_15  and  C_16 
REMARK    3  A    between atoms: C_16  and  C_17 
ROOT
ATOM      1  O   UNN dAMED      -3.778   1.493   0.702  0.00  0.00    -0.246 OA
ATOM      2  N   UNN dAMED      -2.977  -0.619   0.141  0.00  0.00    -0.246 N 
ATOM      3  N   UNN dAMED      -1.495   1.096   0.692  0.00  0.00    -0.263 N 
ATOM      4  O   UNN dAMED      -2.322  -2.554  -0.972  0.00  0.00    -0.266 OA
ATOM      5  N   UNN dAMED       0.484  -1.354  -0.767  0.00  0.00    -0.189 NA
ATOM      6  N   UNN dAMED       0.857   0.645   0.153  0.00  0.00    -0.193 NA
ATOM      7  C   UNN dAMED      -2.043  -1.497  -0.418  0.00  0.00     0.278 C 
ATOM      8  C   UNN dAMED      -0.728  -0.924  -0.324  0.00  0.00     0.135 A 
ATOM      9  C   UNN dAMED      -0.469   0.325   0.201  0.00  0.00     0.166 A 
ATOM     10  C   UNN dAMED       1.411  -0.424  -0.386  0.00  0.00     0.230 A 
ATOM     11  C   UNN dAMED      -2.831   0.725   0.544  0.00  0.00     0.335 C 
ATOM     12  C   UNN dAMED      -4.302  -0.908  -0.281  0.00  0.00     0.138 C 
ATOM     13  C   UNN dAMED      -1.284   2.489   0.521  0.00  0.00     0.137 C 
ATOM     14  C   UNN dAMED       0.792  -2.595  -0.144  0.00  0.00     0.103 C 
ENDROOT
BRANCH  10  15
ATOM     15  O   UNN dAMED       2.708  -0.589  -0.580  0.00  0.00    -0.308 OA
BRANCH  15  16
ATOM     16  C   UNN dAMED       2.854  -1.917  -0.989  0.00  0.00     0.124 C 
ATOM     17  C   UNN dAMED       4.159  -2.660  -0.689  0.00  0.00     0.033 C 
BRANCH  16  18
ATOM     18  C   UNN dAMED       1.847  -2.525  -1.971  0.00  0.00     0.030 C 
ATOM     19  C   UNN dAMED       1.873  -4.030  -2.257  0.00  0.00     0.003 C 
ENDBRANCH  16  18
ENDBRANCH  15  16
ENDBRANCH  10  15
TORSDOF 3
