REMARK  2 active torsions:
REMARK  status: ('A' for Active; 'I' for Inactive)
REMARK    1  A    between atoms: N_4  and  N_6 
REMARK    2  A    between atoms: C_14  and  C_20 
ROOT
ATOM      1 BR   UNN dAMED      -4.096  -3.125  -1.262  0.00  0.00    -0.049 Br
ATOM      2  N   UNN dAMED      -2.130   2.276   0.430  0.00  0.00    -0.352 N 
ATOM      3  H   UNN dAMED      -2.588   3.151   0.644  0.00  0.00     0.166 HD
ATOM      4  C   UNN dAMED      -4.144   0.867  -0.113  0.00  0.00     0.018 A 
ATOM      5  C   UNN dAMED      -4.509  -0.421  -0.511  0.00  0.00     0.008 A 
ATOM      6  C   UNN dAMED      -2.778   1.117   0.057  0.00  0.00     0.057 A 
ATOM      7  C   UNN dAMED      -1.800   0.142  -0.153  0.00  0.00     0.019 A 
ATOM      8  C   UNN dAMED      -3.549  -1.404  -0.725  0.00  0.00     0.035 A 
ATOM      9  C   UNN dAMED      -0.564   0.770   0.100  0.00  0.00     0.039 A 
ATOM     10  C   UNN dAMED      -0.774   2.076   0.455  0.00  0.00     0.074 A 
ATOM     11  C   UNN dAMED      -2.188  -1.147  -0.554  0.00  0.00     0.008 A 
ENDROOT
BRANCH   9  12
ATOM     12  C   UNN dAMED       0.783   0.138  -0.098  0.00  0.00     0.122 C 
ATOM     13  N   UNN dAMED       1.283   0.068  -1.246  0.00  0.00    -0.160 NA
BRANCH  13  14
ATOM     14  N   UNN dAMED       2.503  -0.471  -1.430  0.00  0.00    -0.181 N 
ATOM     15  C   UNN dAMED       3.268  -0.966  -0.389  0.00  0.00     0.166 A 
ATOM     16  S   UNN dAMED       2.872  -1.012   1.234  0.00  0.00    -0.050 SA
ATOM     17  S   UNN dAMED       4.816  -1.587  -1.013  0.00  0.00    -0.074 SA
ATOM     18  C   UNN dAMED       4.381  -1.154  -2.684  0.00  0.00     0.154 A 
ATOM     19  C   UNN dAMED       3.027  -0.534  -2.698  0.00  0.00     0.269 A 
ATOM     20  O   UNN dAMED       2.532  -0.161  -3.750  0.00  0.00    -0.269 OA
ENDBRANCH  13  14
ENDBRANCH   9  12
TORSDOF 2
