REMARK  0 active torsions:
REMARK  status: ('A' for Active; 'I' for Inactive)
ROOT
ATOM      1  C   UNN dAMED      -3.446  -3.078  -0.103  0.00  0.00     0.000 C 
ATOM      2  C   UNN dAMED      -3.168  -2.803   1.374  0.00  0.00     0.000 C 
ATOM      3  C   UNN dAMED      -3.331  -1.929  -1.110  0.00  0.00     0.003 C 
ATOM      4  C   UNN dAMED      -1.934  -1.985   1.755  0.00  0.00     0.003 C 
ATOM      5  C   UNN dAMED      -1.957  -1.309  -1.402  0.00  0.00     0.039 C 
ATOM      6  C   UNN dAMED      -1.720  -0.620   1.093  0.00  0.00     0.039 C 
ATOM      7  C   UNN dAMED      -1.187  -0.522  -0.338  0.00  0.00     0.147 C 
ATOM      8  N   UNN dAMED      -1.198   0.919  -0.717  0.00  0.00    -0.231 NA
ATOM      9  N   UNN dAMED       0.202  -1.016  -0.307  0.00  0.00    -0.198 NA
ATOM     10  H   UNN dAMED       0.420  -1.393  -1.231  0.00  0.00     0.150 HD
ATOM     11  C   UNN dAMED       0.069   1.214  -0.550  0.00  0.00     0.213 C 
ATOM     12  N   UNN dAMED       0.896   0.186  -0.172  0.00  0.00    -0.247 N 
ATOM     13  S   UNN dAMED       0.506   2.852  -0.836  0.00  0.00    -0.037 SA
ATOM     14  C   UNN dAMED       2.286   0.175   0.018  0.00  0.00     0.078 A 
ATOM     15  C   UNN dAMED       3.155  -0.202  -1.010  0.00  0.00     0.019 A 
ATOM     16  C   UNN dAMED       4.531  -0.252  -0.792  0.00  0.00     0.002 A 
ATOM     17  C   UNN dAMED       5.051   0.080   0.457  0.00  0.00     0.000 A 
ATOM     18  C   UNN dAMED       4.197   0.465   1.486  0.00  0.00     0.002 A 
ATOM     19  C   UNN dAMED       2.822   0.506   1.267  0.00  0.00     0.019 A 
ENDROOT
TORSDOF 0
