REMARK  3 active torsions:
REMARK  status: ('A' for Active; 'I' for Inactive)
REMARK    1  A    between atoms: C_5  and  C_10 
REMARK    2  A    between atoms: C_10  and  C_11 
REMARK    3  A    between atoms: C_12  and  C_13 
ROOT
ATOM      1  C   UNN dAMED      -3.326   0.812  -0.423  0.00  0.00     0.080 A 
ATOM      2  C   UNN dAMED      -3.987  -0.402   0.049  0.00  0.00     0.080 A 
ATOM      3  C   UNN dAMED      -1.995   0.661  -0.315  0.00  0.00     0.070 A 
ATOM      4  C   UNN dAMED      -3.055  -1.286   0.442  0.00  0.00     0.070 A 
ATOM      5  C   UNN dAMED      -1.778  -0.654   0.232  0.00  0.00     0.023 A 
ATOM      6 CL   UNN dAMED      -5.672  -0.627   0.076  0.00  0.00    -0.081 Cl
ATOM      7 CL   UNN dAMED      -3.239  -2.845   1.063  0.00  0.00    -0.081 Cl
ATOM      8 CL   UNN dAMED      -4.145   2.178  -1.020  0.00  0.00    -0.081 Cl
ATOM      9 CL   UNN dAMED      -0.753   1.730  -0.717  0.00  0.00    -0.081 Cl
ENDROOT
BRANCH   5  10
ATOM     10  C   UNN dAMED      -0.592  -1.196   0.494  0.00  0.00     0.002 C 
BRANCH  10  11
ATOM     11  C   UNN dAMED       0.687  -0.404   0.209  0.00  0.00     0.000 C 
ATOM     12  C   UNN dAMED       1.882  -0.971   0.368  0.00  0.00     0.000 C 
BRANCH  12  13
ATOM     13  C   UNN dAMED       3.117  -0.214  -0.030  0.00  0.00     0.000 A 
ATOM     14  C   UNN dAMED       3.022   1.136  -0.356  0.00  0.00     0.000 A 
ATOM     15  C   UNN dAMED       4.165   1.848  -0.710  0.00  0.00     0.000 A 
ATOM     16  C   UNN dAMED       5.402   1.209  -0.741  0.00  0.00     0.000 A 
ATOM     17  C   UNN dAMED       5.496  -0.143  -0.414  0.00  0.00     0.000 A 
ATOM     18  C   UNN dAMED       4.353  -0.856  -0.059  0.00  0.00     0.000 A 
ENDBRANCH  12  13
ENDBRANCH  10  11
ENDBRANCH   5  10
TORSDOF 3
