REMARK  0 active torsions:
REMARK  status: ('A' for Active; 'I' for Inactive)
ROOT
ATOM      1  C   UNN dAMED      -1.310  -0.460   1.030  0.00  0.00     0.045 A 
ATOM      2  C   UNN dAMED      -0.748  -0.014  -0.190  0.00  0.00     0.045 A 
ATOM      3  C   UNN dAMED      -2.674  -0.436   1.340  0.00  0.00     0.192 A 
ATOM      4  C   UNN dAMED      -3.471   0.079   0.316  0.00  0.00     0.020 A 
ATOM      5  C   UNN dAMED      -1.573   0.502  -1.222  0.00  0.00     0.196 A 
ATOM      6  C   UNN dAMED       0.722  -0.126  -0.329  0.00  0.00     0.045 A 
ATOM      7  C   UNN dAMED       1.223  -1.337  -0.863  0.00  0.00     0.045 A 
ATOM      8  C   UNN dAMED       2.577  -1.626  -1.064  0.00  0.00     0.192 A 
ATOM      9  C   UNN dAMED       1.604   0.915   0.057  0.00  0.00     0.196 A 
ATOM     10  C   UNN dAMED       3.431  -0.589  -0.683  0.00  0.00     0.020 A 
ATOM     11  C   UNN dAMED      -2.939   0.523  -0.903  0.00  0.00     0.041 A 
ATOM     12  C   UNN dAMED       2.960   0.619  -0.148  0.00  0.00     0.041 A 
ATOM     13  O   UNN dAMED       2.990  -2.728  -1.548  0.00  0.00    -0.287 OA
ATOM     14  O   UNN dAMED       1.245   2.037   0.552  0.00  0.00    -0.287 OA
ATOM     15  O   UNN dAMED      -3.142  -0.845   2.451  0.00  0.00    -0.287 OA
ATOM     16  C   UNN dAMED      -4.957   0.158   0.526  0.00  0.00     0.035 C 
ATOM     17  O   UNN dAMED      -1.157   0.921  -2.355  0.00  0.00    -0.287 OA
ATOM     18  C   UNN dAMED       4.914  -0.775  -0.848  0.00  0.00     0.035 C 
ENDROOT
TORSDOF 0
