REMARK  1 active torsions:
REMARK  status: ('A' for Active; 'I' for Inactive)
REMARK    1  A    between atoms: N_8  and  C_25 
ROOT
ATOM      1  C   UNN dAMED       5.663  -1.556   0.062  0.00  0.00     0.002 A 
ATOM      2  C   UNN dAMED       5.899  -0.207  -0.187  0.00  0.00     0.002 A 
ATOM      3  C   UNN dAMED       4.357  -2.024   0.195  0.00  0.00     0.021 A 
ATOM      4  C   UNN dAMED       4.831   0.678  -0.304  0.00  0.00     0.019 A 
ATOM      5  C   UNN dAMED       3.275  -1.149   0.080  0.00  0.00     0.097 A 
ATOM      6  C   UNN dAMED       3.520   0.216  -0.172  0.00  0.00     0.078 A 
ATOM      7  N   UNN dAMED       1.967  -1.657   0.220  0.00  0.00    -0.243 NA
ATOM      8  N   UNN dAMED       2.440   1.121  -0.291  0.00  0.00    -0.325 N 
ATOM      9  C   UNN dAMED       0.987  -0.815   0.107  0.00  0.00     0.097 A 
ATOM     10  C   UNN dAMED       1.161   0.639  -0.158  0.00  0.00     0.078 A 
ATOM     11  C   UNN dAMED      -0.434  -1.328   0.253  0.00  0.00     0.021 A 
ATOM     12  C   UNN dAMED       0.092   1.434  -0.258  0.00  0.00     0.020 A 
ATOM     13  C   UNN dAMED      -1.313   0.888  -0.108  0.00  0.00     0.015 A 
ATOM     14  C   UNN dAMED      -1.500  -0.525   0.150  0.00  0.00     0.003 A 
ATOM     15  C   UNN dAMED      -2.361   1.713  -0.215  0.00  0.00     0.097 A 
ATOM     16  C   UNN dAMED      -3.019  -2.438   0.547  0.00  0.00     0.000 A 
ATOM     17  C   UNN dAMED      -2.839  -1.081   0.299  0.00  0.00     0.003 A 
ATOM     18 CL   UNN dAMED      -2.122   3.386  -0.521  0.00  0.00    -0.079 Cl
ATOM     19  C   UNN dAMED      -3.762   1.216  -0.074  0.00  0.00     0.206 A 
ATOM     20  C   UNN dAMED      -4.308  -2.948   0.686  0.00  0.00     0.000 A 
ATOM     21  C   UNN dAMED      -3.948  -0.233   0.190  0.00  0.00     0.040 A 
ATOM     22  C   UNN dAMED      -5.237  -0.745   0.330  0.00  0.00     0.003 A 
ATOM     23  O   UNN dAMED      -4.732   1.958  -0.169  0.00  0.00    -0.286 OA
ATOM     24  C   UNN dAMED      -5.414  -2.105   0.578  0.00  0.00     0.000 A 
ENDROOT
BRANCH   8  25
ATOM     25  C   UNN dAMED       2.682   2.531  -0.544  0.00  0.00     0.106 C 
ATOM     26  C   UNN dAMED       1.532   3.438  -0.993  0.00  0.00     0.026 C 
ENDBRANCH   8  25
TORSDOF 1
