REMARK  2 active torsions:
REMARK  status: ('A' for Active; 'I' for Inactive)
REMARK    1  A    between atoms: C_4  and  C_6 
REMARK       I    between atoms: C_6  and  N_25 
REMARK    2  A    between atoms: C_9  and  N_25 
ROOT
ATOM      1  C   UNN dAMED       0.293   0.793  -0.885  0.00  0.00     0.300 C 
ATOM      2  O   UNN dAMED       0.701   1.023  -2.020  0.00  0.00    -0.263 OA
ATOM      3  N   UNN dAMED       0.989   0.468   0.211  0.00  0.00    -0.207 NA
ENDROOT
BRANCH   1   4
ATOM      4  C   UNN dAMED      -1.125   0.865  -0.559  0.00  0.00     0.176 A 
ATOM      5  N   UNN dAMED      -2.073   0.834  -1.512  0.00  0.00    -0.142 NA
ATOM      6  N   UNN dAMED      -3.216   0.903  -0.782  0.00  0.00    -0.148 N 
ATOM      7  N   UNN dAMED      -3.090   0.975   0.563  0.00  0.00    -0.151 NA
ATOM      8  C   UNN dAMED      -4.475   0.907  -1.380  0.00  0.00     0.103 A 
ATOM      9  C   UNN dAMED      -1.768   0.972   0.689  0.00  0.00     0.105 A 
ATOM     10  C   UNN dAMED      -1.057   1.014   2.008  0.00  0.00     0.056 C 
ATOM     11  C   UNN dAMED      -4.927  -0.247  -2.013  0.00  0.00     0.021 A 
ATOM     12  C   UNN dAMED      -5.276   2.038  -1.248  0.00  0.00     0.021 A 
ATOM     13  C   UNN dAMED      -6.210  -0.251  -2.553  0.00  0.00     0.002 A 
ATOM     14  C   UNN dAMED      -7.024   0.876  -2.437  0.00  0.00     0.000 A 
ATOM     15  C   UNN dAMED      -6.560   2.016  -1.781  0.00  0.00     0.002 A 
ENDBRANCH   1   4
BRANCH   3  16
ATOM     16  C   UNN dAMED       2.312   0.294   0.033  0.00  0.00     0.085 A 
ATOM     17  C   UNN dAMED       3.212   1.345   0.259  0.00  0.00     0.021 A 
ATOM     18  C   UNN dAMED       4.603   1.185   0.238  0.00  0.00     0.020 A 
ATOM     19  C   UNN dAMED       5.063  -0.111   0.004  0.00  0.00     0.076 A 
ATOM     20  C   UNN dAMED       4.216  -1.188  -0.218  0.00  0.00     0.039 A 
ATOM     21  N   UNN dAMED       6.327  -0.629  -0.071  0.00  0.00    -0.276 N 
ATOM     22  C   UNN dAMED       2.829  -0.989  -0.202  0.00  0.00     0.022 A 
ATOM     23  C   UNN dAMED       5.078  -2.287  -0.402  0.00  0.00     0.121 A 
ATOM     24  N   UNN dAMED       6.367  -1.950  -0.313  0.00  0.00    -0.171 NA
ATOM     25  H   UNN dAMED       7.208  -0.136   0.016  0.00  0.00     0.189 HD
ENDBRANCH   3  16
TORSDOF 2
