REMARK  2 active torsions:
REMARK  status: ('A' for Active; 'I' for Inactive)
REMARK    1  A    between atoms: C_12  and  O_15 
REMARK    2  A    between atoms: C_13  and  O_17 
ROOT
ATOM      1  O   UNN dAMED       0.730   1.902   0.259  0.00  0.00    -0.307 OA
ATOM      2  O   UNN dAMED       1.988  -2.503  -0.232  0.00  0.00    -0.259 OA
ATOM      3  O   UNN dAMED       3.671  -0.994   0.020  0.00  0.00    -0.277 OA
ATOM      4  C   UNN dAMED       3.213   1.362   0.296  0.00  0.00     0.045 A 
ATOM      5  C   UNN dAMED       1.763   1.042   0.202  0.00  0.00     0.107 A 
ATOM      6  C   UNN dAMED       4.082   0.350   0.204  0.00  0.00     0.083 A 
ATOM      7  C   UNN dAMED       1.376  -0.257   0.029  0.00  0.00     0.088 A 
ATOM      8  C   UNN dAMED       2.331  -1.336  -0.071  0.00  0.00     0.302 A 
ATOM      9  C   UNN dAMED      -0.042  -0.215  -0.018  0.00  0.00     0.032 A 
ATOM     10  C   UNN dAMED      -1.701   1.614   0.106  0.00  0.00     0.051 A 
ATOM     11  C   UNN dAMED      -0.391   1.132   0.117  0.00  0.00     0.102 A 
ATOM     12  C   UNN dAMED      -2.693   0.644  -0.048  0.00  0.00     0.118 A 
ATOM     13  C   UNN dAMED      -2.388  -0.707  -0.175  0.00  0.00     0.116 A 
ATOM     14  C   UNN dAMED      -1.069  -1.163  -0.165  0.00  0.00     0.028 A 
ATOM     15  C   UNN dAMED       5.549   0.667   0.296  0.00  0.00     0.059 C 
ENDROOT
BRANCH  12  16
ATOM     16  O   UNN dAMED      -3.995   1.057  -0.071  0.00  0.00    -0.326 OA
ATOM     17  C   UNN dAMED      -3.941   2.442   0.107  0.00  0.00     0.181 C 
ENDBRANCH  12  16
BRANCH  13  18
ATOM     18  O   UNN dAMED      -3.384  -1.630  -0.316  0.00  0.00    -0.326 OA
ATOM     19  C   UNN dAMED      -4.386  -0.981  -1.041  0.00  0.00     0.181 C 
ENDBRANCH  13  18
TORSDOF 2
