REMARK  0 active torsions:
REMARK  status: ('A' for Active; 'I' for Inactive)
ROOT
ATOM      1  N   UNN dAMED      -0.009  -1.444  -0.000  0.00  0.00    -0.227 NA
ATOM      2  O   UNN dAMED      -2.983   2.048   0.000  0.00  0.00    -0.265 OA
ATOM      3  O   UNN dAMED      -4.375  -1.827  -0.000  0.00  0.00    -0.242 OA
ATOM      4  C   UNN dAMED       2.351  -1.156  -0.000  0.00  0.00     0.015 A 
ATOM      5  C   UNN dAMED       3.478  -0.334  -0.000  0.00  0.00    -0.024 A 
ATOM      6  C   UNN dAMED       1.066  -0.631   0.000  0.00  0.00     0.083 A 
ATOM      7  C   UNN dAMED       0.934   0.773   0.000  0.00  0.00     0.018 A 
ATOM      8  C   UNN dAMED       3.330   1.047  -0.000  0.00  0.00    -0.026 A 
ATOM      9  C   UNN dAMED      -0.343   1.326   0.000  0.00  0.00     0.009 A 
ATOM     10  C   UNN dAMED      -1.234  -0.879  -0.000  0.00  0.00     0.172 A 
ATOM     11  C   UNN dAMED      -1.444   0.483   0.000  0.00  0.00     0.094 A 
ATOM     12  C   UNN dAMED      -2.825   0.881   0.000  0.00  0.00     0.286 A 
ATOM     13  C   UNN dAMED       2.055   1.603   0.000  0.00  0.00    -0.003 A 
ATOM     14  C   UNN dAMED      -3.371  -1.220  -0.000  0.00  0.00     0.373 A 
ATOM     15  C   UNN dAMED       4.539   1.939  -0.000  0.00  0.00     0.031 C 
ATOM     16  N   UNN dAMED      -2.321  -1.753  -0.000  0.00  0.00    -0.172 NA
ATOM     17  N   UNN dAMED      -3.698   0.093  -0.000  0.00  0.00    -0.152 NA
ATOM     18  C   UNN dAMED       4.850  -0.949  -0.000  0.00  0.00     0.031 C 
ENDROOT
TORSDOF 0
