REMARK  0 active torsions:
REMARK  status: ('A' for Active; 'I' for Inactive)
ROOT
ATOM      1  C   UNN dAMED      -2.952  -0.143  -0.343  0.00  0.00     0.005 C 
ATOM      2  C   UNN dAMED      -2.596   1.128   0.428  0.00  0.00     0.005 C 
ATOM      3  C   UNN dAMED      -1.756  -0.881  -0.954  0.00  0.00     0.056 C 
ATOM      4  C   UNN dAMED      -1.327   1.013   1.272  0.00  0.00     0.027 C 
ATOM      5  C   UNN dAMED      -0.540  -1.085  -0.042  0.00  0.00     0.208 A 
ATOM      6  C   UNN dAMED      -0.229   0.201   0.650  0.00  0.00     0.017 A 
ATOM      7  C   UNN dAMED       0.962   0.705   0.318  0.00  0.00     0.120 A 
ATOM      8  N   UNN dAMED       0.670  -1.300  -0.779  0.00  0.00    -0.318 N 
ATOM      9  C   UNN dAMED       1.583  -0.262  -0.615  0.00  0.00     0.265 A 
ATOM     10  H   UNN dAMED       0.833  -2.102  -1.379  0.00  0.00     0.166 HD
ATOM     11  O   UNN dAMED       2.684  -0.140  -1.126  0.00  0.00    -0.267 OA
ATOM     12  O   UNN dAMED      -0.750  -2.052   0.811  0.00  0.00    -0.199 OA
ATOM     13  C   UNN dAMED       1.494   1.943   0.724  0.00  0.00     0.105 C 
ATOM     14  N   UNN dAMED       1.935   2.963   1.058  0.00  0.00    -0.191 NA
ENDROOT
TORSDOF 0
