REMARK  1 active torsions:
REMARK  status: ('A' for Active; 'I' for Inactive)
REMARK    1  A    between atoms: C_16  and  S_22 
ROOT
ATOM      1  S   UNN dAMED      -2.183  -3.256  -0.803  0.00  0.00    -0.087 SA
ATOM      2  N   UNN dAMED       2.034  -1.271  -0.653  0.00  0.00    -0.252 NA
ATOM      3  N   UNN dAMED       3.227   1.750  -1.406  0.00  0.00     0.142 N 
ATOM      4  C   UNN dAMED      -0.935  -5.562  -1.704  0.00  0.00     0.006 A 
ATOM      5  C   UNN dAMED       0.061  -6.225  -2.419  0.00  0.00     0.001 A 
ATOM      6  C   UNN dAMED      -0.935  -4.171  -1.656  0.00  0.00     0.026 A 
ATOM      7  C   UNN dAMED       1.049  -5.498  -3.084  0.00  0.00    -0.000 A 
ATOM      8  C   UNN dAMED       0.025  -3.452  -2.356  0.00  0.00    -0.011 A 
ATOM      9  C   UNN dAMED       1.039  -4.106  -3.047  0.00  0.00    -0.003 A 
ATOM     10  C   UNN dAMED       0.074  -1.982  -2.074  0.00  0.00     0.065 C 
ATOM     11  C   UNN dAMED       0.617  -1.525  -0.717  0.00  0.00     0.019 C 
ATOM     12  C   UNN dAMED      -1.950  -2.822   1.839  0.00  0.00     0.007 A 
ATOM     13  C   UNN dAMED      -1.316  -2.603   0.609  0.00  0.00     0.030 A 
ATOM     14  C   UNN dAMED      -1.444  -2.292   3.022  0.00  0.00     0.007 A 
ATOM     15  C   UNN dAMED      -0.151  -1.825   0.570  0.00  0.00     0.013 A 
ATOM     16  C   UNN dAMED      -0.297  -1.512   2.987  0.00  0.00     0.025 A 
ATOM     17  C   UNN dAMED       0.336  -1.282   1.768  0.00  0.00     0.007 A 
ATOM     18  C   UNN dAMED       2.500  -0.703  -1.925  0.00  0.00     0.112 C 
ATOM     19  C   UNN dAMED       3.054  -0.466  -0.013  0.00  0.00     0.112 C 
ATOM     20  C   UNN dAMED       3.018   1.064  -0.110  0.00  0.00     0.268 C 
ATOM     21  C   UNN dAMED       2.399   0.804  -2.184  0.00  0.00     0.268 C 
ATOM     22  C   UNN dAMED       4.394   0.858  -1.610  0.00  0.00     0.285 C 
ENDROOT
BRANCH  16  23
ATOM     23  S   UNN dAMED       0.350  -0.804   4.474  0.00  0.00    -0.113 SA
ATOM     24  C   UNN dAMED       1.444   0.339   3.637  0.00  0.00     0.074 C 
ENDBRANCH  16  23
TORSDOF 1
