REMARK  0 active torsions:
REMARK  status: ('A' for Active; 'I' for Inactive)
ROOT
ATOM      1  N   UNN dAMED       0.259   0.338   0.236  0.00  0.00    -0.258 N 
ATOM      2  N   UNN dAMED      -1.296  -1.384  -0.104  0.00  0.00    -0.216 NA
ATOM      3  O   UNN dAMED      -0.411   2.538   0.170  0.00  0.00    -0.267 OA
ATOM      4 CL   UNN dAMED      -3.927  -1.045   0.203  0.00  0.00    -0.061 Cl
ATOM      5  C   UNN dAMED       1.055  -1.927  -0.292  0.00  0.00     0.037 C 
ATOM      6  C   UNN dAMED      -0.069  -0.954  -0.058  0.00  0.00     0.151 C 
ATOM      7  C   UNN dAMED       2.314  -1.478  -0.294  0.00  0.00     0.000 C 
ATOM      8  C   UNN dAMED       2.615  -0.041  -0.214  0.00  0.00    -0.004 C 
ATOM      9  C   UNN dAMED       1.555   0.793  -0.111  0.00  0.00     0.080 C 
ATOM     10  C   UNN dAMED      -2.293  -0.462   0.126  0.00  0.00     0.145 C 
ATOM     11  C   UNN dAMED      -2.072   0.856   0.247  0.00  0.00     0.092 C 
ATOM     12  C   UNN dAMED      -0.655   1.340   0.224  0.00  0.00     0.268 C 
ATOM     13  C   UNN dAMED       2.923   1.427  -0.132  0.00  0.00     0.033 C 
ENDROOT
TORSDOF 0
