REMARK  1 active torsions:
REMARK  status: ('A' for Active; 'I' for Inactive)
REMARK    1  A    between atoms: C_12  and  C_18 
ROOT
ATOM      1  C   UNN dAMED      -4.592  -0.753   0.460  0.00  0.00     0.000 A 
ATOM      2  C   UNN dAMED      -4.611   0.577   0.050  0.00  0.00     0.001 A 
ATOM      3  C   UNN dAMED      -3.419   1.227  -0.254  0.00  0.00     0.011 A 
ATOM      4  C   UNN dAMED      -2.214   0.536  -0.142  0.00  0.00     0.091 A 
ATOM      5  C   UNN dAMED      -2.174  -0.789   0.270  0.00  0.00     0.050 A 
ATOM      6  C   UNN dAMED      -3.378  -1.431   0.568  0.00  0.00     0.004 A 
ATOM      7  S   UNN dAMED      -0.753   1.404  -0.537  0.00  0.00     0.210 S 
ATOM      8  C   UNN dAMED       0.597   0.355  -0.188  0.00  0.00     0.091 A 
ATOM      9  C   UNN dAMED       0.401  -0.956   0.229  0.00  0.00     0.050 A 
ATOM     10  C   UNN dAMED      -0.929  -1.566   0.421  0.00  0.00     0.197 A 
ATOM     11  C   UNN dAMED       1.875   0.889  -0.332  0.00  0.00     0.016 A 
ATOM     12  C   UNN dAMED       2.970   0.080  -0.052  0.00  0.00     0.053 A 
ATOM     13  C   UNN dAMED       2.809  -1.238   0.359  0.00  0.00     0.004 A 
ATOM     14  C   UNN dAMED       1.521  -1.751   0.497  0.00  0.00     0.004 A 
ATOM     15  O   UNN dAMED      -1.002  -2.752   0.733  0.00  0.00    -0.286 OA
ATOM     16  O   UNN dAMED      -0.763   1.600  -1.973  0.00  0.00    -0.217 OA
ATOM     17  O   UNN dAMED      -0.666   2.511   0.395  0.00  0.00    -0.217 OA
ENDROOT
BRANCH  12  18
ATOM     18  C   UNN dAMED       4.336   0.587  -0.172  0.00  0.00     0.266 C 
ATOM     19  O   UNN dAMED       4.571   1.749  -0.468  0.00  0.00    -0.271 OA
ATOM     20  N   UNN dAMED       5.421  -0.285   0.126  0.00  0.00    -0.057 NA
ENDBRANCH  12  18
TORSDOF 1
