REMARK  3 active torsions:
REMARK  status: ('A' for Active; 'I' for Inactive)
REMARK    1  A    between atoms: C_10  and  C_16 
REMARK    2  A    between atoms: C_12  and  O_17 
REMARK    3  A    between atoms: O_17  and  C_18 
ROOT
ATOM      1  H   UNN dAMED      -4.988  -0.181  -0.033  0.00  0.00     0.171 HD
ATOM      2  S   UNN dAMED      -3.823   2.339  -1.128  0.00  0.00    -0.040 SA
ATOM      3  N   UNN dAMED      -3.975  -0.147  -0.040  0.00  0.00    -0.298 N 
ATOM      4  O   UNN dAMED      -3.441  -2.246   0.884  0.00  0.00    -0.266 OA
ATOM      5  N   UNN dAMED      -1.885   0.594  -0.348  0.00  0.00    -0.328 N 
ATOM      6  H   UNN dAMED      -1.096   1.178  -0.598  0.00  0.00     0.168 HD
ATOM      7  C   UNN dAMED      -3.155  -1.163   0.411  0.00  0.00     0.275 A 
ATOM      8  C   UNN dAMED      -1.780  -0.654   0.197  0.00  0.00     0.115 A 
ATOM      9  C   UNN dAMED      -3.229   0.924  -0.503  0.00  0.00     0.179 A 
ATOM     10  C   UNN dAMED      -0.658  -1.321   0.483  0.00  0.00     0.022 C 
ENDROOT
BRANCH  10  11
ATOM     11  C   UNN dAMED       0.732  -0.766   0.258  0.00  0.00     0.002 A 
ATOM     12  C   UNN dAMED       1.381  -0.984  -0.959  0.00  0.00     0.002 A 
ATOM     13  C   UNN dAMED       2.618  -0.395  -1.207  0.00  0.00     0.024 A 
ATOM     14  C   UNN dAMED       3.192   0.406  -0.229  0.00  0.00     0.094 A 
ATOM     15  C   UNN dAMED       2.566   0.622   0.993  0.00  0.00     0.024 A 
ATOM     16  C   UNN dAMED       1.330   0.030   1.236  0.00  0.00     0.002 A 
BRANCH  14  17
ATOM     17  O   UNN dAMED       4.397   0.996  -0.470  0.00  0.00    -0.331 OA
BRANCH  17  18
ATOM     18  C   UNN dAMED       4.742   0.607  -1.766  0.00  0.00     0.149 C 
ATOM     19  C   UNN dAMED       6.036   1.127  -2.400  0.00  0.00     0.035 C 
ENDBRANCH  17  18
ENDBRANCH  14  17
ENDBRANCH  10  11
TORSDOF 3
