REMARK  0 active torsions:
REMARK  status: ('A' for Active; 'I' for Inactive)
ROOT
ATOM      1  N   UNN dAMED       3.021  -0.061   0.002  0.00  0.00    -0.182 NA
ATOM      2  N   UNN dAMED       0.941  -1.162   0.394  0.00  0.00    -0.196 NA
ATOM      3  N   UNN dAMED       0.970   1.087  -0.403  0.00  0.00    -0.196 NA
ATOM      4  C   UNN dAMED      -1.948  -1.143   0.663  0.00  0.00     0.030 A 
ATOM      5  C   UNN dAMED      -3.472  -1.080   0.631  0.00  0.00     0.009 A 
ATOM      6  C   UNN dAMED      -1.169  -0.013  -0.011  0.00  0.00     0.013 A 
ATOM      7  C   UNN dAMED      -4.126   0.109  -0.073  0.00  0.00     0.026 A 
ATOM      8  C   UNN dAMED      -1.921   1.139  -0.692  0.00  0.00    -0.006 A 
ATOM      9  C   UNN dAMED       0.336  -0.030  -0.006  0.00  0.00     0.164 A 
ATOM     10  C   UNN dAMED      -3.254   1.194  -0.720  0.00  0.00    -0.026 A 
ATOM     11  C   UNN dAMED       2.285  -1.122   0.379  0.00  0.00     0.241 A 
ATOM     12  C   UNN dAMED       2.312   1.017  -0.379  0.00  0.00     0.241 A 
ATOM     13  N   UNN dAMED       2.983  -2.293   0.794  0.00  0.00    -0.059 NA
ATOM     14  N   UNN dAMED       3.039   2.172  -0.790  0.00  0.00    -0.059 NA
ENDROOT
TORSDOF 0
