REMARK  3 active torsions:
REMARK  status: ('A' for Active; 'I' for Inactive)
REMARK    1  A    between atoms: N_6  and  C_13 
REMARK    2  A    between atoms: C_13  and  C_14 
REMARK    3  A    between atoms: C_14  and  C_15 
ROOT
ATOM      1  N   UNN dAMED      -2.980  -0.497  -0.366  0.00  0.00    -0.203 NA
ATOM      2  N   UNN dAMED      -1.209   0.956   0.350  0.00  0.00    -0.317 N 
ATOM      3  S   UNN dAMED      -2.561  -3.175  -0.756  0.00  0.00    -0.056 SA
ATOM      4  H   UNN dAMED      -0.938   1.891   0.635  0.00  0.00     0.169 HD
ATOM      5  N   UNN dAMED       0.305  -2.220   0.154  0.00  0.00    -0.226 NA
ATOM      6  N   UNN dAMED       0.913  -0.157   0.752  0.00  0.00    -0.200 NA
ATOM      7  C   UNN dAMED      -2.138  -1.610  -0.354  0.00  0.00     0.158 A 
ATOM      8  C   UNN dAMED      -0.765  -1.367   0.050  0.00  0.00     0.137 A 
ATOM      9  C   UNN dAMED      -0.384  -0.095   0.381  0.00  0.00     0.124 A 
ATOM     10  C   UNN dAMED       1.317  -1.448   0.517  0.00  0.00     0.154 A 
ATOM     11  C   UNN dAMED      -2.516   0.684  -0.032  0.00  0.00     0.217 A 
ATOM     12  N   UNN dAMED      -3.432   1.775  -0.055  0.00  0.00    -0.061 NA
ENDROOT
BRANCH   6  13
ATOM     13  C   UNN dAMED       1.671   0.710  -0.083  0.00  0.00     0.085 C 
BRANCH  13  14
ATOM     14  C   UNN dAMED       1.750   2.207   0.235  0.00  0.00     0.018 C 
BRANCH  14  15
ATOM     15  C   UNN dAMED       2.986   3.016  -0.174  0.00  0.00     0.002 C 
ATOM     16  C   UNN dAMED       2.964   4.545  -0.079  0.00  0.00     0.000 C 
ENDBRANCH  14  15
ENDBRANCH  13  14
ENDBRANCH   6  13
TORSDOF 3
