REMARK  2 active torsions:
REMARK  status: ('A' for Active; 'I' for Inactive)
REMARK    1  A    between atoms: C_7  and  C_14 
REMARK    2  A    between atoms: C_12  and  O_13 
ROOT
ATOM      1  C   UNN dAMED       0.391   0.075  -0.184  0.00  0.00    -0.000 A 
ATOM      2  C   UNN dAMED       0.903  -0.876  -1.068  0.00  0.00     0.002 A 
ATOM      3  C   UNN dAMED       1.099   0.409   0.972  0.00  0.00     0.002 A 
ATOM      4  C   UNN dAMED       2.310  -0.217   1.253  0.00  0.00     0.024 A 
ATOM      5  C   UNN dAMED       2.113  -1.505  -0.792  0.00  0.00     0.024 A 
ATOM      6  C   UNN dAMED       2.800  -1.169   0.369  0.00  0.00     0.094 A 
ENDROOT
BRANCH   1   7
ATOM      7  C   UNN dAMED      -0.960   0.691  -0.436  0.00  0.00     0.001 C 
ATOM      8  C   UNN dAMED      -2.070   0.076  -0.037  0.00  0.00     0.043 A 
ATOM      9  C   UNN dAMED      -2.292  -1.213   0.630  0.00  0.00     0.065 A 
ATOM     10  C   UNN dAMED      -3.384   0.728  -0.248  0.00  0.00     0.292 A 
ATOM     11  C   UNN dAMED      -3.788  -1.227   0.768  0.00  0.00     0.157 A 
ATOM     12  O   UNN dAMED      -4.391  -0.068   0.243  0.00  0.00    -0.298 OA
ATOM     13  O   UNN dAMED      -3.533   1.815  -0.779  0.00  0.00    -0.260 OA
ENDBRANCH   1   7
BRANCH   6  14
ATOM     14  O   UNN dAMED       3.983  -1.785   0.645  0.00  0.00    -0.328 OA
ATOM     15  C   UNN dAMED       4.396  -1.247   1.867  0.00  0.00     0.181 C 
ENDBRANCH   6  14
TORSDOF 2
