REMARK  4 active torsions:
REMARK  status: ('A' for Active; 'I' for Inactive)
REMARK    1  A    between atoms: N_5  and  C_14 
REMARK    2  A    between atoms: C_7  and  C_14 
REMARK    3  A    between atoms: C_8  and  C_15 
REMARK    4  A    between atoms: N_9  and  C_15 
ROOT
ATOM      1  C   UNN dAMED      -0.401  -1.129   0.465  0.00  0.00    -0.043 C 
ATOM      2  C   UNN dAMED       0.527  -1.492   1.133  0.00  0.00    -0.060 C 
ENDROOT
BRANCH   1   3
ATOM      3  C   UNN dAMED      -1.519  -0.651  -0.327  0.00  0.00     0.129 C 
BRANCH   3   4
ATOM      4  N   UNN dAMED      -2.539   0.099   0.288  0.00  0.00    -0.291 N 
ATOM      5  C   UNN dAMED      -2.899   1.079   1.255  0.00  0.00     0.110 A 
ATOM      6  C   UNN dAMED      -4.394   1.354   1.278  0.00  0.00     0.034 A 
ATOM      7  C   UNN dAMED      -4.938   0.423   0.230  0.00  0.00     0.090 A 
ATOM      8  C   UNN dAMED      -3.735  -0.286  -0.315  0.00  0.00     0.238 A 
ATOM      9  O   UNN dAMED      -3.874  -1.148  -1.171  0.00  0.00    -0.272 OA
ENDBRANCH   3   4
ENDBRANCH   1   3
BRANCH   2  10
ATOM     10  C   UNN dAMED       1.657  -1.896   1.948  0.00  0.00     0.175 C 
BRANCH  10  11
ATOM     11  N   UNN dAMED       1.804  -1.367   3.270  0.00  0.00    -0.358 N 
ATOM     12  C   UNN dAMED       1.335  -0.889   4.557  0.00  0.00     0.098 C 
ATOM     13  C   UNN dAMED       2.441  -0.650   5.579  0.00  0.00     0.026 C 
ATOM     14  C   UNN dAMED       3.670  -1.259   4.960  0.00  0.00     0.026 C 
ATOM     15  C   UNN dAMED       3.203  -1.743   3.594  0.00  0.00     0.098 C 
ENDBRANCH  10  11
ENDBRANCH   2  10
TORSDOF 4
