REMARK  4 active torsions:
REMARK  status: ('A' for Active; 'I' for Inactive)
REMARK    1  A    between atoms: N_1  and  C_11 
REMARK    2  A    between atoms: N_2  and  C_13 
REMARK    3  A    between atoms: C_4  and  O_20 
REMARK    4  A    between atoms: C_16  and  S_22 
ROOT
ATOM      1  C   UNN dAMED      -4.278   0.220  -0.018  0.00  0.00     0.092 A 
ATOM      2  C   UNN dAMED      -3.755   0.989  -1.044  0.00  0.00     0.109 A 
ATOM      3  C   UNN dAMED      -3.445  -0.638   0.695  0.00  0.00     0.017 A 
ATOM      4  C   UNN dAMED      -3.986  -1.425   1.711  0.00  0.00     0.001 A 
ATOM      5  C   UNN dAMED      -3.179  -2.300   2.431  0.00  0.00     0.000 A 
ATOM      6  C   UNN dAMED      -2.412   0.916  -1.380  0.00  0.00     0.046 A 
ATOM      7  C   UNN dAMED      -2.066  -0.716   0.382  0.00  0.00     0.021 A 
ATOM      8  C   UNN dAMED      -1.821  -2.389   2.140  0.00  0.00     0.000 A 
ATOM      9  C   UNN dAMED      -1.544   0.081  -0.663  0.00  0.00     0.105 A 
ATOM     10  C   UNN dAMED      -1.272  -1.604   1.126  0.00  0.00     0.002 A 
ATOM     11  N   UNN dAMED      -5.664   0.293   0.295  0.00  0.00    -0.099 NA
ENDROOT
BRANCH   9  12
ATOM     12  N   UNN dAMED      -0.184  -0.007  -1.029  0.00  0.00    -0.148 NA
ATOM     13  N   UNN dAMED       0.312   1.135  -1.154  0.00  0.00    -0.148 NA
BRANCH  13  14
ATOM     14  C   UNN dAMED       1.676   1.036  -1.453  0.00  0.00     0.104 A 
ATOM     15  C   UNN dAMED       2.609   1.110  -0.421  0.00  0.00     0.034 A 
ATOM     16  C   UNN dAMED       3.961   1.066  -0.730  0.00  0.00     0.108 A 
ATOM     17  C   UNN dAMED       4.422   0.972  -2.036  0.00  0.00     0.013 A 
ATOM     18  C   UNN dAMED       3.488   0.918  -3.067  0.00  0.00     0.002 A 
ATOM     19  C   UNN dAMED       2.122   0.961  -2.778  0.00  0.00     0.021 A 
BRANCH  16  20
ATOM     20  S   UNN dAMED       5.137   1.205   0.563  0.00  0.00     0.302 S 
ATOM     21  O   UNN dAMED       5.045   2.584   1.009  0.00  0.00    -0.197 OA
ATOM     22  O   UNN dAMED       4.835   0.122   1.479  0.00  0.00    -0.197 OA
ATOM     23  N   UNN dAMED       6.692   0.947  -0.092  0.00  0.00    -0.043 N 
ENDBRANCH  16  20
ENDBRANCH  13  14
ENDBRANCH   9  12
BRANCH   2  24
ATOM     24  O   UNN dAMED      -4.569   1.833  -1.735  0.00  0.00    -0.327 OA
ATOM     25  C   UNN dAMED      -4.754   2.932  -0.893  0.00  0.00     0.181 C 
ENDBRANCH   2  24
TORSDOF 4
