REMARK  4 active torsions:
REMARK  status: ('A' for Active; 'I' for Inactive)
REMARK    1  A    between atoms: C_5  and  C_18 
REMARK    2  A    between atoms: C_7  and  O_23 
REMARK    3  A    between atoms: C_18  and  O_19 
REMARK    4  A    between atoms: O_19  and  C_20 
ROOT
ATOM      1  O   UNN dAMED      -0.300  -2.992   0.589  0.00  0.00    -0.285 OA
ATOM      2  O   UNN dAMED      -3.518   1.157  -0.404  0.00  0.00    -0.286 OA
ATOM      3  N   UNN dAMED      -0.649   1.526  -0.492  0.00  0.00    -0.224 NA
ATOM      4  N   UNN dAMED       1.316   3.755   0.324  0.00  0.00    -0.362 N 
ATOM      5  C   UNN dAMED       0.881  -0.215   0.020  0.00  0.00     0.031 A 
ATOM      6  C   UNN dAMED      -0.519  -0.729  -0.052  0.00  0.00     0.051 A 
ATOM      7  C   UNN dAMED       0.848   1.285  -0.349  0.00  0.00     0.183 A 
ATOM      8  C   UNN dAMED      -1.035  -2.054   0.292  0.00  0.00     0.209 A 
ATOM      9  C   UNN dAMED      -2.512  -2.204   0.251  0.00  0.00     0.108 A 
ATOM     10  C   UNN dAMED       1.303   2.371   0.652  0.00  0.00     0.143 A 
ATOM     11  C   UNN dAMED       0.133   3.276   1.015  0.00  0.00     0.118 A 
ATOM     12  C   UNN dAMED      -1.314   0.314  -0.308  0.00  0.00     0.080 A 
ATOM     13  C   UNN dAMED      -3.316  -1.158   0.011  0.00  0.00     0.034 A 
ATOM     14  C   UNN dAMED      -1.071   2.705   0.266  0.00  0.00     0.103 A 
ATOM     15  C   UNN dAMED      -2.773   0.196  -0.246  0.00  0.00     0.203 A 
ATOM     16  N   UNN dAMED      -3.097  -3.470   0.532  0.00  0.00    -0.097 NA
ATOM     17  C   UNN dAMED      -4.809  -1.350   0.020  0.00  0.00     0.036 C 
ATOM     18  C   UNN dAMED       1.329   5.133  -0.002  0.00  0.00     0.121 C 
ENDROOT
BRANCH   5  19
ATOM     19  C   UNN dAMED       2.089  -1.112  -0.264  0.00  0.00     0.179 C 
BRANCH  19  20
ATOM     20  O   UNN dAMED       3.108  -1.228   0.685  0.00  0.00    -0.283 OA
BRANCH  20  21
ATOM     21  C   UNN dAMED       4.011  -0.275   0.341  0.00  0.00     0.374 C 
ATOM     22  O   UNN dAMED       4.245   0.023  -0.826  0.00  0.00    -0.242 OA
ATOM     23  N   UNN dAMED       4.720   0.403   1.373  0.00  0.00    -0.032 NA
ENDBRANCH  20  21
ENDBRANCH  19  20
ENDBRANCH   5  19
BRANCH   7  24
ATOM     24  O   UNN dAMED       1.514   1.465  -1.595  0.00  0.00    -0.337 OA
ATOM     25  C   UNN dAMED       0.506   1.739  -2.521  0.00  0.00     0.176 C 
ENDBRANCH   7  24
TORSDOF 4
