REMARK  2 active torsions:
REMARK  status: ('A' for Active; 'I' for Inactive)
REMARK    1  A    between atoms: C_5  and  C_10 
REMARK    2  A    between atoms: C_7  and  C_13 
ROOT
ATOM      1  N   UNN dAMED      -1.157  -1.348  -0.128  0.00  0.00    -0.060 NA
ATOM      2  N   UNN dAMED       0.964  -0.178   0.001  0.00  0.00    -0.056 N 
ATOM      3  N   UNN dAMED       1.027  -2.375  -0.206  0.00  0.00    -0.025 NA
ATOM      4  N   UNN dAMED       2.282  -0.482  -0.017  0.00  0.00    -0.115 NA
ATOM      5  C   UNN dAMED      -1.728  -0.192  -0.020  0.00  0.00     0.093 A 
ATOM      6  C   UNN dAMED      -0.947   1.097   0.101  0.00  0.00     0.038 A 
ATOM      7  C   UNN dAMED       0.384   1.071   0.112  0.00  0.00     0.095 A 
ATOM      8  C   UNN dAMED       2.259  -1.806  -0.142  0.00  0.00     0.273 A 
ATOM      9  C   UNN dAMED       0.206  -1.344  -0.115  0.00  0.00     0.753 A 
ATOM     10  N   UNN dAMED       3.452  -2.577  -0.201  0.00  0.00    -0.058 NA
ENDROOT
BRANCH   5  11
ATOM     11  C   UNN dAMED      -3.226  -0.092  -0.050  0.00  0.00    -0.025 C 
ATOM     12  C   UNN dAMED      -4.062  -0.953   0.903  0.00  0.00     0.028 C 
ATOM     13  C   UNN dAMED      -3.913   0.638  -1.209  0.00  0.00     0.028 C 
ENDBRANCH   5  11
BRANCH   7  14
ATOM     14  C   UNN dAMED       1.259   2.283   0.221  0.00  0.00    -0.025 C 
ATOM     15  C   UNN dAMED       0.636   3.657   0.487  0.00  0.00     0.028 C 
ATOM     16  C   UNN dAMED       2.758   2.169  -0.076  0.00  0.00     0.028 C 
ENDBRANCH   7  14
TORSDOF 2
