REMARK  6 active torsions:
REMARK  status: ('A' for Active; 'I' for Inactive)
REMARK    1  A    between atoms: C_1  and  C_8 
REMARK    2  A    between atoms: C_1  and  C_22 
REMARK    3  A    between atoms: C_11  and  C_21 
REMARK    4  A    between atoms: C_16  and  C_23 
REMARK    5  A    between atoms: C_21  and  C_22 
REMARK    6  A    between atoms: C_21  and  C_23 
ROOT
ATOM      1  C   UNN dAMED       2.381   0.204  -2.618  0.00  0.00     0.068 C 
ATOM      2  C   UNN dAMED       1.434   1.304  -2.469  0.00  0.00     0.101 C 
ATOM      3  N   UNN dAMED       0.685   2.181  -2.346  0.00  0.00    -0.191 NA
ENDROOT
BRANCH   1   4
ATOM      4  C   UNN dAMED       3.477   0.253  -3.664  0.00  0.00     0.010 A 
ATOM      5  C   UNN dAMED       4.700  -0.361  -3.400  0.00  0.00     0.001 A 
ATOM      6  C   UNN dAMED       5.757  -0.237  -4.300  0.00  0.00     0.000 A 
ATOM      7  C   UNN dAMED       5.596   0.504  -5.467  0.00  0.00     0.000 A 
ATOM      8  C   UNN dAMED       4.374   1.110  -5.743  0.00  0.00     0.000 A 
ATOM      9  C   UNN dAMED       3.317   0.980  -4.846  0.00  0.00     0.001 A 
ENDBRANCH   1   4
BRANCH   1  10
ATOM     10  C   UNN dAMED       2.356  -0.941  -1.589  0.00  0.00     0.011 C 
BRANCH  10  11
ATOM     11  C   UNN dAMED       3.082  -0.771  -0.275  0.00  0.00     0.001 A 
ATOM     12  C   UNN dAMED       4.065  -1.683   0.102  0.00  0.00     0.000 A 
ATOM     13  C   UNN dAMED       4.665  -1.583   1.354  0.00  0.00     0.000 A 
ATOM     14  C   UNN dAMED       4.292  -0.563   2.225  0.00  0.00     0.000 A 
ATOM     15  C   UNN dAMED       3.319   0.357   1.844  0.00  0.00     0.000 A 
ATOM     16  C   UNN dAMED       2.710   0.250   0.597  0.00  0.00     0.000 A 
ENDBRANCH  10  11
BRANCH  10  17
ATOM     17  C   UNN dAMED       1.284  -2.038  -1.754  0.00  0.00     0.022 C 
BRANCH  17  18
ATOM     18  C   UNN dAMED       1.110  -3.177  -0.780  0.00  0.00     0.111 C 
ATOM     19  N   UNN dAMED       0.131  -3.145   0.063  0.00  0.00    -0.096 NA
ATOM     20  O   UNN dAMED      -0.532  -1.953  -0.032  0.00  0.00    -0.061 OA
BRANCH  18  21
ATOM     21  C   UNN dAMED       1.957  -4.361  -0.905  0.00  0.00     0.020 A 
ATOM     22  C   UNN dAMED       2.322  -4.760  -2.186  0.00  0.00     0.002 A 
ATOM     23  C   UNN dAMED       3.172  -5.852  -2.334  0.00  0.00     0.000 A 
ATOM     24  C   UNN dAMED       3.650  -6.525  -1.210  0.00  0.00     0.000 A 
ATOM     25  C   UNN dAMED       3.284  -6.105   0.069  0.00  0.00     0.000 A 
ATOM     26  C   UNN dAMED       2.439  -5.011   0.227  0.00  0.00     0.002 A 
ENDBRANCH  18  21
ENDBRANCH  17  18
ENDBRANCH  10  17
ENDBRANCH   1  10
TORSDOF 6
