REMARK  4 active torsions:
REMARK  status: ('A' for Active; 'I' for Inactive)
REMARK    1  A    between atoms: N_1  and  C_17 
REMARK    2  A    between atoms: C_6  and  C_17 
REMARK    3  A    between atoms: C_7  and  O_13 
REMARK    4  A    between atoms: C_9  and  O_15 
ROOT
ATOM      1  C   UNN dAMED       0.187  -2.457   1.384  0.00  0.00     0.028 A 
ATOM      2  C   UNN dAMED       0.281  -1.165   0.868  0.00  0.00     0.020 A 
ATOM      3  C   UNN dAMED      -0.938  -2.818   2.116  0.00  0.00     0.116 A 
ATOM      4  C   UNN dAMED      -0.751  -0.249   1.078  0.00  0.00     0.004 A 
ATOM      5  C   UNN dAMED      -1.960  -1.904   2.331  0.00  0.00     0.116 A 
ATOM      6  C   UNN dAMED      -1.875  -0.617   1.816  0.00  0.00     0.026 A 
ENDROOT
BRANCH   2   7
ATOM      7  C   UNN dAMED       1.463  -0.783   0.017  0.00  0.00     0.085 C 
BRANCH   7   8
ATOM      8  N   UNN dAMED       2.497   0.023   0.536  0.00  0.00    -0.253 N 
ATOM      9  C   UNN dAMED       3.462   0.124  -0.471  0.00  0.00     0.373 A 
ATOM     10  O   UNN dAMED       3.365  -0.422  -1.567  0.00  0.00    -0.237 OA
ATOM     11  O   UNN dAMED       4.558   0.903  -0.140  0.00  0.00    -0.278 OA
ATOM     12  C   UNN dAMED       4.302   1.339   1.154  0.00  0.00     0.199 A 
ATOM     13  C   UNN dAMED       2.993   0.782   1.599  0.00  0.00     0.091 A 
ENDBRANCH   7   8
ENDBRANCH   2   7
BRANCH   3  14
ATOM     14  O   UNN dAMED      -1.019  -4.083   2.614  0.00  0.00    -0.326 OA
ATOM     15  C   UNN dAMED      -2.311  -4.191   3.135  0.00  0.00     0.181 C 
ENDBRANCH   3  14
BRANCH   5  16
ATOM     16  O   UNN dAMED      -3.066  -2.251   3.046  0.00  0.00    -0.326 OA
ATOM     17  C   UNN dAMED      -2.722  -2.028   4.382  0.00  0.00     0.181 C 
ENDBRANCH   5  16
TORSDOF 4
