REMARK  4 active torsions:
REMARK  status: ('A' for Active; 'I' for Inactive)
REMARK    1  A    between atoms: C_15  and  O_37 
REMARK    2  A    between atoms: C_16  and  O_35 
REMARK    3  A    between atoms: C_18  and  O_25 
REMARK    4  A    between atoms: C_22  and  O_25 
ROOT
ATOM      1  C   UNN dAMED       0.414   7.640   1.470  0.00  0.00     0.047 A 
ATOM      2  C   UNN dAMED       2.192   8.301   0.098  0.00  0.00     0.065 A 
ATOM      3  C   UNN dAMED       1.180   3.442   0.661  0.00  0.00     0.024 C 
ATOM      4  C   UNN dAMED       5.846   2.892  -2.428  0.00  0.00    -0.000 C 
ATOM      5  C   UNN dAMED       5.564   1.631  -2.757  0.00  0.00    -0.003 C 
ATOM      6  C   UNN dAMED       4.731   3.938  -2.336  0.00  0.00     0.001 C 
ATOM      7  C   UNN dAMED       2.881  -0.321  -1.405  0.00  0.00    -0.022 C 
ATOM      8  C   UNN dAMED       0.994   8.669   0.726  0.00  0.00     0.198 A 
ATOM      9  C   UNN dAMED       0.998   6.374   1.602  0.00  0.00     0.066 A 
ATOM     10  C   UNN dAMED       2.803   7.028   0.181  0.00  0.00     0.127 A 
ATOM     11  C   UNN dAMED       2.214   6.017   0.998  0.00  0.00     0.215 A 
ATOM     12  C   UNN dAMED       0.076   3.930   1.620  0.00  0.00     0.003 C 
ATOM     13  C   UNN dAMED       4.302   0.950  -2.213  0.00  0.00    -0.003 C 
ATOM     14  C   UNN dAMED       2.099  -0.410  -0.085  0.00  0.00    -0.002 C 
ATOM     15  C   UNN dAMED       1.126   2.066  -0.027  0.00  0.00     0.116 C 
ATOM     16  C   UNN dAMED       0.272   5.276   2.332  0.00  0.00     0.093 C 
ATOM     17  C   UNN dAMED       1.690   0.841   0.712  0.00  0.00     0.112 C 
ATOM     18  C   UNN dAMED       3.811  -0.317  -2.917  0.00  0.00     0.082 C 
ATOM     19  C   UNN dAMED       4.924   5.090  -1.691  0.00  0.00     0.036 C 
ATOM     20  C   UNN dAMED       2.351  -0.964  -2.502  0.00  0.00     0.067 C 
ATOM     21  C   UNN dAMED       3.784   6.022  -1.569  0.00  0.00     0.275 C 
ATOM     22  O   UNN dAMED       2.834   5.927  -2.341  0.00  0.00    -0.266 OA
ATOM     23  C   UNN dAMED       6.077   5.195  -0.731  0.00  0.00     0.036 C 
ATOM     24  C   UNN dAMED       4.012   1.070  -0.713  0.00  0.00     0.033 C 
ATOM     25  C   UNN dAMED       3.889  -0.354  -2.136  0.00  0.00     0.011 C 
ATOM     26  C   UNN dAMED       1.999  -1.769   0.615  0.00  0.00     0.033 C 
ATOM     27  C   UNN dAMED      -1.360   3.443   1.404  0.00  0.00     0.033 C 
ATOM     28  O   UNN dAMED       0.483   9.830   0.622  0.00  0.00    -0.286 OA
ATOM     29  O   UNN dAMED       2.699   4.849   1.189  0.00  0.00    -0.285 OA
ATOM     30  N   UNN dAMED       3.955   6.828  -0.518  0.00  0.00    -0.205 NA
ATOM     31  O   UNN dAMED       1.299   0.642   2.006  0.00  0.00    -0.327 OA
ATOM     32  C   UNN dAMED       0.895   0.386   3.286  0.00  0.00     0.181 C 
ENDROOT
BRANCH  15  33
ATOM     33  O   UNN dAMED       0.130   1.857  -1.081  0.00  0.00    -0.326 OA
ATOM     34  C   UNN dAMED       1.123   2.065  -0.030  0.00  0.00     0.181 C 
ENDBRANCH  15  33
BRANCH  18  35
ATOM     35  O   UNN dAMED       4.665  -1.007  -3.791  0.00  0.00    -0.266 OA
BRANCH  35  36
ATOM     36  C   UNN dAMED       4.137  -0.863  -5.038  0.00  0.00     0.377 C 
ATOM     37  O   UNN dAMED       3.659   0.188  -5.444  0.00  0.00    -0.242 OA
ATOM     38  N   UNN dAMED       4.182  -1.975  -5.927  0.00  0.00    -0.032 NA
ENDBRANCH  35  36
ENDBRANCH  18  35
BRANCH  16  39
ATOM     39  O   UNN dAMED       0.019   5.382   3.771  0.00  0.00    -0.328 OA
ATOM     40  C   UNN dAMED       0.272   5.275   2.333  0.00  0.00     0.181 C 
ENDBRANCH  16  39
TORSDOF 4
