REMARK  8 active torsions:
REMARK  status: ('A' for Active; 'I' for Inactive)
REMARK    1  A    between atoms: O_1  and  C_5 
REMARK    2  A    between atoms: O_1  and  C_19 
REMARK    3  A    between atoms: O_2  and  C_10 
REMARK    4  A    between atoms: O_2  and  C_22 
REMARK    5  A    between atoms: C_6  and  N_15 
REMARK    6  A    between atoms: C_19  and  C_20 
REMARK    7  A    between atoms: C_20  and  C_21 
REMARK    8  A    between atoms: C_21  and  C_22 
ROOT
ATOM      1  C   UNN dAMED      -1.580  -1.054   4.442  0.00  0.00     0.025 A 
ATOM      2  C   UNN dAMED      -2.722  -1.801   4.704  0.00  0.00     0.094 A 
ATOM      3  C   UNN dAMED      -1.716   0.259   3.998  0.00  0.00     0.012 A 
ATOM      4  C   UNN dAMED      -3.993  -1.265   4.541  0.00  0.00     0.025 A 
ATOM      5  C   UNN dAMED      -2.986   0.808   3.824  0.00  0.00     0.068 A 
ATOM      6  C   UNN dAMED      -4.124   0.049   4.098  0.00  0.00     0.012 A 
ATOM      7  C   UNN dAMED      -3.125   2.143   3.342  0.00  0.00     0.101 C 
ATOM      8  N   UNN dAMED      -3.241   3.227   2.943  0.00  0.00    -0.191 NA
ENDROOT
BRANCH   2   9
ATOM      9  O   UNN dAMED      -2.592  -3.095   5.110  0.00  0.00    -0.331 OA
BRANCH   9  10
ATOM     10  C   UNN dAMED      -2.217  -3.799   3.963  0.00  0.00     0.149 C 
BRANCH  10  11
ATOM     11  C   UNN dAMED      -2.436  -3.181   2.578  0.00  0.00     0.035 C 
BRANCH  11  12
ATOM     12  C   UNN dAMED      -1.294  -2.444   1.870  0.00  0.00     0.035 C 
BRANCH  12  13
ATOM     13  C   UNN dAMED      -1.577  -1.655   0.587  0.00  0.00     0.149 C 
BRANCH  13  14
ATOM     14  O   UNN dAMED      -2.436  -2.181  -0.382  0.00  0.00    -0.331 OA
BRANCH  14  15
ATOM     15  C   UNN dAMED      -3.545  -1.386  -0.352  0.00  0.00     0.094 A 
ATOM     16  C   UNN dAMED      -3.445  -0.102   0.175  0.00  0.00     0.022 A 
ATOM     17  C   UNN dAMED      -4.574   0.709   0.201  0.00  0.00     0.002 A 
ATOM     18  C   UNN dAMED      -5.770   0.214  -0.308  0.00  0.00     0.123 A 
ATOM     19  C   UNN dAMED      -4.490   2.115   0.721  0.00  0.00     0.033 C 
ATOM     20  C   UNN dAMED      -5.881  -1.065  -0.846  0.00  0.00     0.025 A 
ATOM     21  C   UNN dAMED      -4.747  -1.875  -0.861  0.00  0.00     0.026 A 
BRANCH  18  22
ATOM     22  N   UNN dAMED      -6.932   1.061  -0.285  0.00  0.00    -0.114 N 
ATOM     23  O   UNN dAMED      -6.887   2.096  -0.961  0.00  0.00    -0.532 OA
ATOM     24  O   UNN dAMED      -7.884   0.692   0.415  0.00  0.00    -0.532 OA
ENDBRANCH  18  22
ENDBRANCH  14  15
ENDBRANCH  13  14
ENDBRANCH  12  13
ENDBRANCH  11  12
ENDBRANCH  10  11
ENDBRANCH   9  10
ENDBRANCH   2   9
TORSDOF 8
