REMARK  0 active torsions:
REMARK  status: ('A' for Active; 'I' for Inactive)
ROOT
ATOM      1  S   UNN dAMED      -0.465  -2.094  -0.501  0.00  0.00    -0.074 SA
ATOM      2  N   UNN dAMED       2.037  -1.060  -0.181  0.00  0.00    -0.337 N 
ATOM      3  H   UNN dAMED       2.456  -1.962  -0.374  0.00  0.00     0.168 HD
ATOM      4  O   UNN dAMED       0.571   2.585   0.619  0.00  0.00    -0.265 OA
ATOM      5  N   UNN dAMED       2.400   1.221   0.359  0.00  0.00    -0.195 NA
ATOM      6  C   UNN dAMED      -3.173  -1.282  -0.361  0.00  0.00     0.033 C 
ATOM      7  C   UNN dAMED      -1.704  -0.960  -0.313  0.00  0.00     0.005 A 
ATOM      8  C   UNN dAMED      -4.120  -0.082  -0.398  0.00  0.00     0.005 C 
ATOM      9  C   UNN dAMED      -1.251   0.281   0.032  0.00  0.00    -0.014 A 
ATOM     10  C   UNN dAMED      -3.647   1.124   0.411  0.00  0.00     0.005 C 
ATOM     11  C   UNN dAMED      -2.163   1.456   0.244  0.00  0.00     0.027 C 
ATOM     12  C   UNN dAMED       0.160   0.345   0.082  0.00  0.00     0.076 A 
ATOM     13  C   UNN dAMED       0.703  -0.892  -0.187  0.00  0.00     0.092 A 
ATOM     14  C   UNN dAMED       1.035   1.478   0.375  0.00  0.00     0.282 A 
ATOM     15  C   UNN dAMED       2.833   0.025   0.096  0.00  0.00     0.121 A 
ATOM     16  C   UNN dAMED       4.326  -0.182   0.096  0.00  0.00     0.072 C 
ENDROOT
TORSDOF 0
