REMARK  7 active torsions:
REMARK  status: ('A' for Active; 'I' for Inactive)
REMARK    1  A    between atoms: O_1  and  C_3 
REMARK    2  A    between atoms: C_6  and  O_8 
REMARK    3  A    between atoms: C_7  and  N_13 
REMARK       I    between atoms: C_9  and  N_11 
REMARK       I    between atoms: C_9  and  N_13 
REMARK    4  A    between atoms: N_11  and  C_15 
REMARK    5  A    between atoms: N_11  and  C_16 
REMARK    6  A    between atoms: C_15  and  C_18 
REMARK    7  A    between atoms: C_16  and  C_17 
ROOT
ATOM      1  C   UNN dAMED      -3.806  -0.408  -0.103  0.00  0.00     0.026 A 
ATOM      2  C   UNN dAMED      -3.146   0.752   0.266  0.00  0.00     0.096 A 
ATOM      3  C   UNN dAMED      -3.052  -1.553  -0.326  0.00  0.00     0.028 A 
ATOM      4  C   UNN dAMED      -1.762   0.783   0.413  0.00  0.00     0.045 A 
ATOM      5  C   UNN dAMED      -1.660  -1.511  -0.196  0.00  0.00     0.112 A 
ATOM      6  C   UNN dAMED      -0.965  -0.342   0.156  0.00  0.00     0.110 A 
ENDROOT
BRANCH   6   7
ATOM      7  N   UNN dAMED       0.376  -0.305   0.359  0.00  0.00    -0.190 NA
ATOM      8  C   UNN dAMED       1.057   0.529  -0.450  0.00  0.00     0.350 C 
ATOM      9  O   UNN dAMED       0.714   1.634  -0.872  0.00  0.00    -0.244 OA
ATOM     10  N   UNN dAMED       2.342   0.045  -0.689  0.00  0.00    -0.275 N 
BRANCH  10  11
ATOM     11  C   UNN dAMED       2.632  -0.837   0.371  0.00  0.00     0.080 C 
BRANCH  11  12
ATOM     12  C   UNN dAMED       1.468  -1.436   1.160  0.00  0.00     0.019 C 
ATOM     13  C   UNN dAMED       0.247  -1.415   0.628  0.00  0.00     0.002 C 
ENDBRANCH  11  12
ENDBRANCH  10  11
BRANCH  10  14
ATOM     14  C   UNN dAMED       2.950   0.946  -1.592  0.00  0.00     0.137 C 
BRANCH  14  15
ATOM     15  C   UNN dAMED       4.402   0.741  -2.037  0.00  0.00    -0.002 C 
ATOM     16  C   UNN dAMED       4.670   0.083  -3.163  0.00  0.00    -0.003 C 
ENDBRANCH  14  15
ENDBRANCH  10  14
ENDBRANCH   6   7
BRANCH   5  17
ATOM     17  O   UNN dAMED      -1.004  -2.694  -0.401  0.00  0.00    -0.327 OA
ATOM     18  C   UNN dAMED      -2.022  -3.651  -0.487  0.00  0.00     0.181 C 
ENDBRANCH   5  17
BRANCH   2  19
ATOM     19  O   UNN dAMED      -3.846   1.899   0.477  0.00  0.00    -0.328 OA
ATOM     20  C   UNN dAMED      -2.869   2.883   0.638  0.00  0.00     0.181 C 
ENDBRANCH   2  19
TORSDOF 7
