REMARK  4 active torsions:
REMARK  status: ('A' for Active; 'I' for Inactive)
REMARK    1  A    between atoms: C_7  and  C_13 
REMARK    2  A    between atoms: C_12  and  C_16 
REMARK    3  A    between atoms: C_13  and  C_15 
REMARK    4  A    between atoms: C_15  and  C_16 
ROOT
ATOM      1  C   UNN dAMED      -1.268   0.758   1.121  0.00  0.00     0.202 C 
ATOM      2  O   UNN dAMED      -1.014   0.840   2.316  0.00  0.00    -0.286 OA
ENDROOT
BRANCH   1   3
ATOM      3  C   UNN dAMED      -2.536   0.374   0.571  0.00  0.00     0.069 A 
ATOM      4  S   UNN dAMED      -2.572  -0.383  -0.959  0.00  0.00    -0.072 SA
ATOM      5  C   UNN dAMED      -4.264  -0.474  -0.916  0.00  0.00     0.087 A 
ATOM      6 CL   UNN dAMED      -5.121  -1.182  -2.222  0.00  0.00    -0.075 Cl
ATOM      7  C   UNN dAMED      -4.805   0.060   0.223  0.00  0.00     0.019 A 
ATOM      8  C   UNN dAMED      -3.798   0.558   1.085  0.00  0.00     0.011 A 
ENDBRANCH   1   3
BRANCH   1   9
ATOM      9  C   UNN dAMED      -0.240   1.258   0.145  0.00  0.00     0.043 C 
BRANCH   9  10
ATOM     10  C   UNN dAMED      -0.570   2.280  -0.642  0.00  0.00     0.010 C 
BRANCH  10  11
ATOM     11  C   UNN dAMED       0.355   2.795  -1.704  0.00  0.00     0.030 A 
ATOM     12  S   UNN dAMED      -0.264   3.179  -3.238  0.00  0.00    -0.075 SA
ATOM     13  C   UNN dAMED       0.935   4.359  -3.452  0.00  0.00     0.087 A 
ATOM     14 CL   UNN dAMED       0.942   5.327  -4.868  0.00  0.00    -0.075 Cl
ATOM     15  C   UNN dAMED       1.809   4.438  -2.399  0.00  0.00     0.018 A 
ATOM     16  C   UNN dAMED       1.460   3.532  -1.367  0.00  0.00     0.008 A 
ENDBRANCH  10  11
ENDBRANCH   9  10
ENDBRANCH   1   9
TORSDOF 4
