REMARK  0 active torsions:
REMARK  status: ('A' for Active; 'I' for Inactive)
ROOT
ATOM      1  C   UNN dAMED      -4.130  -0.552  -1.228  0.00  0.00     0.002 A 
ATOM      2  C   UNN dAMED      -4.352   0.127  -0.031  0.00  0.00     0.002 A 
ATOM      3  C   UNN dAMED      -2.834  -0.849  -1.661  0.00  0.00     0.021 A 
ATOM      4  C   UNN dAMED      -3.296   0.542   0.786  0.00  0.00     0.019 A 
ATOM      5  C   UNN dAMED      -1.759  -0.440  -0.857  0.00  0.00     0.099 A 
ATOM      6  C   UNN dAMED      -2.014   0.237   0.329  0.00  0.00     0.076 A 
ATOM      7  N   UNN dAMED      -0.406  -0.595  -1.050  0.00  0.00    -0.227 NA
ATOM      8  N   UNN dAMED      -0.772   0.490   0.851  0.00  0.00    -0.338 N 
ATOM      9  H   UNN dAMED      -0.581   0.974   1.719  0.00  0.00     0.167 HD
ATOM     10  C   UNN dAMED       0.171  -0.022  -0.011  0.00  0.00     0.141 A 
ATOM     11  C   UNN dAMED       1.599   0.093   0.229  0.00  0.00     0.044 A 
ATOM     12 CL   UNN dAMED       1.559  -2.131   1.835  0.00  0.00    -0.082 Cl
ATOM     13  C   UNN dAMED       2.287   1.142  -0.389  0.00  0.00     0.004 A 
ATOM     14  C   UNN dAMED       2.314  -0.802   1.035  0.00  0.00     0.061 A 
ATOM     15  C   UNN dAMED       3.687  -0.641   1.219  0.00  0.00     0.011 A 
ATOM     16  C   UNN dAMED       3.659   1.302  -0.206  0.00  0.00     0.000 A 
ATOM     17  C   UNN dAMED       4.359   0.409   0.600  0.00  0.00     0.001 A 
ENDROOT
TORSDOF 0
