REMARK  0 active torsions:
REMARK  status: ('A' for Active; 'I' for Inactive)
ROOT
ATOM      1  C   UNN dAMED      -2.815   1.712   0.421  0.00  0.00     0.198 A 
ATOM      2  C   UNN dAMED      -2.590   2.171  -0.997  0.00  0.00     0.109 A 
ATOM      3  N   UNN dAMED      -1.503   1.377  -1.414  0.00  0.00    -0.213 NA
ATOM      4  C   UNN dAMED      -1.156   0.595  -0.433  0.00  0.00     0.224 A 
ATOM      5  O   UNN dAMED      -1.874   0.718   0.741  0.00  0.00    -0.299 OA
ATOM      6  N   UNN dAMED      -0.182  -0.365  -0.401  0.00  0.00    -0.213 NA
ATOM      7  C   UNN dAMED       0.669  -0.521   0.788  0.00  0.00     0.115 C 
ATOM      8  C   UNN dAMED       1.737   0.525   1.134  0.00  0.00     0.268 C 
ATOM      9  N   UNN dAMED       2.912   0.696   0.275  0.00  0.00     0.142 N 
ATOM     10  C   UNN dAMED       2.073   0.834  -0.924  0.00  0.00     0.268 C 
ATOM     11  C   UNN dAMED       1.012  -0.225  -1.248  0.00  0.00     0.115 C 
ATOM     12  C   UNN dAMED       3.643  -0.547   0.080  0.00  0.00     0.285 C 
ENDROOT
TORSDOF 0
