REMARK  6 active torsions:
REMARK  status: ('A' for Active; 'I' for Inactive)
REMARK    1  A    between atoms: C_6  and  N_17 
REMARK    2  A    between atoms: C_7  and  C_19 
REMARK    3  A    between atoms: C_10  and  O_12 
REMARK    4  A    between atoms: C_13  and  O_14 
REMARK    5  A    between atoms: N_17  and  C_18 
REMARK    6  A    between atoms: C_18  and  C_19 
ROOT
ATOM      1  C   UNN dAMED      -6.434  -0.082   1.209  0.00  0.00     0.000 C 
ATOM      2  C   UNN dAMED      -5.999   1.192   0.493  0.00  0.00     0.003 C 
ATOM      3  C   UNN dAMED      -5.271  -0.935   1.706  0.00  0.00     0.003 C 
ATOM      4  C   UNN dAMED      -4.768   1.040  -0.406  0.00  0.00     0.036 C 
ATOM      5  C   UNN dAMED      -4.066  -0.998   0.762  0.00  0.00     0.036 C 
ATOM      6  C   UNN dAMED      -3.537   0.329   0.187  0.00  0.00     0.157 C 
ATOM      7  C   UNN dAMED      -2.548   0.073  -0.854  0.00  0.00     0.094 C 
ATOM      8  N   UNN dAMED      -1.764  -0.132  -1.683  0.00  0.00    -0.194 NA
ENDROOT
BRANCH   6   9
ATOM      9  N   UNN dAMED      -2.982   1.133   1.249  0.00  0.00    -0.285 NA
BRANCH   9  10
ATOM     10  C   UNN dAMED      -3.364   0.888   2.630  0.00  0.00     0.126 C 
BRANCH  10  11
ATOM     11  C   UNN dAMED      -4.497  -0.088   2.962  0.00  0.00     0.052 C 
BRANCH  11  12
ATOM     12  C   UNN dAMED      -4.815  -0.388   4.398  0.00  0.00    -0.018 A 
ATOM     13  C   UNN dAMED      -6.060  -0.910   4.744  0.00  0.00     0.022 A 
ATOM     14  C   UNN dAMED      -6.333  -1.187   6.077  0.00  0.00     0.116 A 
ATOM     15  C   UNN dAMED      -5.378  -0.947   7.057  0.00  0.00     0.116 A 
ATOM     16  C   UNN dAMED      -4.136  -0.426   6.718  0.00  0.00     0.026 A 
ATOM     17  C   UNN dAMED      -3.855  -0.146   5.382  0.00  0.00    -0.002 A 
BRANCH  14  18
ATOM     18  O   UNN dAMED      -7.553  -1.697   6.406  0.00  0.00    -0.326 OA
ATOM     19  C   UNN dAMED      -7.448  -2.052   7.752  0.00  0.00     0.181 C 
ENDBRANCH  14  18
BRANCH  15  20
ATOM     20  O   UNN dAMED      -5.641  -1.217   8.366  0.00  0.00    -0.326 OA
ATOM     21  C   UNN dAMED      -6.825  -1.958   8.356  0.00  0.00     0.181 C 
ENDBRANCH  15  20
ENDBRANCH  11  12
ENDBRANCH  10  11
ENDBRANCH   9  10
ENDBRANCH   6   9
TORSDOF 6
