REMARK  0 active torsions:
REMARK  status: ('A' for Active; 'I' for Inactive)
ROOT
ATOM      1  O   UNN dAMED      -3.310   2.033   1.429  0.00  0.00    -0.283 OA
ATOM      2  O   UNN dAMED      -0.682  -1.744  -1.214  0.00  0.00    -0.283 OA
ATOM      3 BR   UNN dAMED       3.971   1.623  -2.295  0.00  0.00    -0.050 Br
ATOM      4  C   UNN dAMED       1.620  -0.634   1.035  0.00  0.00    -0.022 A 
ATOM      5  C   UNN dAMED       3.011  -0.714   0.990  0.00  0.00    -0.008 A 
ATOM      6  C   UNN dAMED       0.925   0.124   0.087  0.00  0.00    -0.001 A 
ATOM      7  C   UNN dAMED       3.711  -0.038  -0.005  0.00  0.00    -0.016 A 
ATOM      8  C   UNN dAMED       1.632   0.794  -0.914  0.00  0.00    -0.016 A 
ATOM      9  C   UNN dAMED      -0.552   0.193   0.131  0.00  0.00     0.084 A 
ATOM     10  C   UNN dAMED      -1.141   1.193   0.828  0.00  0.00     0.237 A 
ATOM     11  C   UNN dAMED      -2.644   1.188   0.831  0.00  0.00     0.234 A 
ATOM     12  C   UNN dAMED      -1.305  -0.870  -0.608  0.00  0.00     0.237 A 
ATOM     13  C   UNN dAMED      -3.372   0.140   0.096  0.00  0.00     0.062 A 
ATOM     14  C   UNN dAMED       3.020   0.711  -0.952  0.00  0.00     0.027 A 
ATOM     15  C   UNN dAMED      -2.805  -0.853  -0.599  0.00  0.00     0.234 A 
ATOM     16  C   UNN dAMED      -4.875   0.190   0.132  0.00  0.00     0.038 C 
ATOM     17  O   UNN dAMED      -0.635   2.146   1.490  0.00  0.00    -0.283 OA
ATOM     18  O   UNN dAMED      -3.367  -1.777  -1.246  0.00  0.00    -0.283 OA
ATOM     19  C   UNN dAMED       0.896   1.604  -1.942  0.00  0.00     0.032 C 
ATOM     20  C   UNN dAMED       0.862  -1.366   2.105  0.00  0.00     0.031 C 
ATOM     21  C   UNN dAMED       5.210  -0.117  -0.056  0.00  0.00     0.032 C 
ENDROOT
TORSDOF 0
