REMARK  3 active torsions:
REMARK  status: ('A' for Active; 'I' for Inactive)
REMARK    1  A    between atoms: O_1  and  C_2 
REMARK    2  A    between atoms: O_1  and  C_19 
REMARK    3  A    between atoms: C_19  and  C_20 
ROOT
ATOM      1  C   UNN dAMED      -4.049   0.322   0.503  0.00  0.00     0.094 A 
ATOM      2  C   UNN dAMED      -3.138   0.349  -0.546  0.00  0.00     0.024 A 
ATOM      3  C   UNN dAMED      -3.636   0.119   1.814  0.00  0.00     0.024 A 
ATOM      4  C   UNN dAMED      -1.784   0.168  -0.275  0.00  0.00     0.004 A 
ATOM      5  C   UNN dAMED      -2.280  -0.073   2.076  0.00  0.00     0.004 A 
ATOM      6  C   UNN dAMED      -1.346  -0.042   1.035  0.00  0.00     0.024 A 
ATOM      7  C   UNN dAMED       0.067  -0.277   1.291  0.00  0.00     0.111 A 
ATOM      8  S   UNN dAMED       0.978   0.879   2.190  0.00  0.00    -0.066 SA
ATOM      9  N   UNN dAMED       0.747  -1.321   0.857  0.00  0.00    -0.239 NA
ATOM     10  C   UNN dAMED       2.359  -0.094   2.000  0.00  0.00     0.056 A 
ATOM     11  C   UNN dAMED       2.067  -1.212   1.257  0.00  0.00     0.088 A 
ATOM     12  C   UNN dAMED       3.049  -2.211   0.923  0.00  0.00     0.018 A 
ATOM     13  C   UNN dAMED       2.992  -3.468   1.527  0.00  0.00     0.003 A 
ATOM     14  C   UNN dAMED       4.038  -1.938  -0.023  0.00  0.00     0.003 A 
ATOM     15  C   UNN dAMED       4.972  -2.916  -0.358  0.00  0.00     0.014 A 
ATOM     16  C   UNN dAMED       3.922  -4.448   1.187  0.00  0.00     0.014 A 
ATOM     17  C   UNN dAMED       4.911  -4.171   0.245  0.00  0.00     0.070 A 
ATOM     18  N   UNN dAMED       5.854  -5.177  -0.108  0.00  0.00    -0.101 NA
ENDROOT
BRANCH   1  19
ATOM     19  O   UNN dAMED      -5.372   0.501   0.234  0.00  0.00    -0.331 OA
BRANCH  19  20
ATOM     20  C   UNN dAMED      -6.039   0.200   1.424  0.00  0.00     0.149 C 
BRANCH  20  21
ATOM     21  C   UNN dAMED      -5.652  -1.045   2.228  0.00  0.00     0.033 C 
ATOM     22  C   UNN dAMED      -6.496  -1.472   3.433  0.00  0.00     0.003 C 
ENDBRANCH  20  21
ENDBRANCH  19  20
ENDBRANCH   1  19
TORSDOF 3
