REMARK  0 active torsions:
REMARK  status: ('A' for Active; 'I' for Inactive)
ROOT
ATOM      1  O   UNN dAMED      -0.284  -0.482  -1.062  0.00  0.00    -0.287 OA
ATOM      2  N   UNN dAMED      -0.046   0.140   1.092  0.00  0.00    -0.219 NA
ATOM      3  N   UNN dAMED      -2.535  -1.819   0.750  0.00  0.00    -0.240 NA
ATOM      4  C   UNN dAMED      -5.650   0.785  -0.303  0.00  0.00     0.000 A 
ATOM      5  C   UNN dAMED      -5.376   2.050  -0.817  0.00  0.00     0.000 A 
ATOM      6  C   UNN dAMED      -4.610  -0.077   0.045  0.00  0.00     0.003 A 
ATOM      7  C   UNN dAMED      -4.897  -1.335   0.560  0.00  0.00     0.021 A 
ATOM      8  C   UNN dAMED      -3.835  -2.158   0.893  0.00  0.00     0.099 A 
ATOM      9  C   UNN dAMED      -4.058   2.465  -0.983  0.00  0.00     0.000 A 
ATOM     10  C   UNN dAMED      -3.270   0.328  -0.123  0.00  0.00     0.021 A 
ATOM     11  C   UNN dAMED      -3.013   1.611  -0.639  0.00  0.00     0.002 A 
ATOM     12  C   UNN dAMED      -2.275  -0.589   0.245  0.00  0.00     0.122 A 
ATOM     13  C   UNN dAMED      -0.863  -0.290   0.157  0.00  0.00     0.201 A 
ATOM     14  C   UNN dAMED       2.898   0.648  -2.310  0.00  0.00     0.002 A 
ATOM     15  C   UNN dAMED       3.716   0.513  -3.430  0.00  0.00     0.000 A 
ATOM     16  C   UNN dAMED       1.873  -0.265  -2.056  0.00  0.00     0.024 A 
ATOM     17  C   UNN dAMED       1.036  -0.136  -0.877  0.00  0.00     0.119 A 
ATOM     18  C   UNN dAMED       1.172   0.247   0.449  0.00  0.00     0.106 A 
ATOM     19  C   UNN dAMED       1.657  -1.298  -2.973  0.00  0.00     0.002 A 
ATOM     20  C   UNN dAMED       3.489  -0.520  -4.335  0.00  0.00     0.000 A 
ATOM     21  C   UNN dAMED       2.350   0.721   1.144  0.00  0.00     0.020 A 
ATOM     22  C   UNN dAMED       2.452  -1.420  -4.112  0.00  0.00     0.000 A 
ATOM     23  C   UNN dAMED       3.640   0.405   0.720  0.00  0.00     0.002 A 
ATOM     24  C   UNN dAMED       2.195   1.470   2.315  0.00  0.00     0.002 A 
ATOM     25  C   UNN dAMED       3.305   1.903   3.039  0.00  0.00     0.000 A 
ATOM     26  C   UNN dAMED       4.754   0.861   1.422  0.00  0.00     0.000 A 
ATOM     27  C   UNN dAMED       4.586   1.604   2.587  0.00  0.00     0.000 A 
ENDROOT
TORSDOF 0
