REMARK  7 active torsions:
REMARK  status: ('A' for Active; 'I' for Inactive)
REMARK    1  A    between atoms: C_3  and  N_9 
REMARK    2  A    between atoms: C_6  and  C_7 
REMARK    3  A    between atoms: C_8  and  P_12 
REMARK    4  A    between atoms: P_12  and  O_16 
REMARK    5  A    between atoms: P_12  and  O_17 
REMARK    6  A    between atoms: O_16  and  C_20 
REMARK    7  A    between atoms: O_17  and  C_18 
ROOT
ATOM      1  C   UNN dAMED       0.121  -0.312  -0.705  0.00  0.00     0.018 C 
ATOM      2  C   UNN dAMED       0.774  -0.241  -1.874  0.00  0.00     0.148 C 
ATOM      3  C   UNN dAMED       0.120  -0.203  -3.132  0.00  0.00     0.108 C 
ATOM      4  N   UNN dAMED      -0.406  -0.162  -4.165  0.00  0.00    -0.191 NA
ENDROOT
BRANCH   2   5
ATOM      5  P   UNN dAMED       2.500  -0.052  -1.852  0.00  0.00     0.375 P 
ATOM      6  O   UNN dAMED       3.409  -0.637  -2.902  0.00  0.00    -0.252 OA
BRANCH   5   7
ATOM      7  O   UNN dAMED       2.747   1.549  -1.702  0.00  0.00    -0.291 OA
BRANCH   7   8
ATOM      8  C   UNN dAMED       4.135   1.685  -1.585  0.00  0.00     0.152 C 
ATOM      9  C   UNN dAMED       4.761   3.068  -1.381  0.00  0.00     0.035 C 
ENDBRANCH   7   8
ENDBRANCH   5   7
BRANCH   5  10
ATOM     10  O   UNN dAMED       2.936  -0.546  -0.367  0.00  0.00    -0.291 OA
BRANCH  10  11
ATOM     11  C   UNN dAMED       3.706   0.499   0.148  0.00  0.00     0.152 C 
ATOM     12  C   UNN dAMED       3.029   1.806   0.573  0.00  0.00     0.035 C 
ENDBRANCH  10  11
ENDBRANCH   5  10
ENDBRANCH   2   5
BRANCH   1  13
ATOM     13  C   UNN dAMED      -1.382  -0.234  -0.520  0.00  0.00     0.001 A 
ATOM     14  C   UNN dAMED      -2.132  -1.411  -0.434  0.00  0.00     0.002 A 
ATOM     15  C   UNN dAMED      -3.505  -1.354  -0.196  0.00  0.00     0.024 A 
ATOM     16  C   UNN dAMED      -4.089  -0.102  -0.032  0.00  0.00     0.127 A 
ATOM     17  C   UNN dAMED      -3.370   1.086  -0.099  0.00  0.00     0.024 A 
ATOM     18  C   UNN dAMED      -2.000   1.010  -0.340  0.00  0.00     0.002 A 
BRANCH  16  19
ATOM     19  N   UNN dAMED      -5.510  -0.024   0.156  0.00  0.00    -0.114 N 
ATOM     20  O   UNN dAMED      -6.193   0.210  -0.848  0.00  0.00    -0.532 OA
ATOM     21  O   UNN dAMED      -5.934  -0.178   1.308  0.00  0.00    -0.532 OA
ENDBRANCH  16  19
ENDBRANCH   1  13
TORSDOF 7
