REMARK  6 active torsions:
REMARK  status: ('A' for Active; 'I' for Inactive)
REMARK    1  A    between atoms: C_2  and  C_18 
REMARK    2  A    between atoms: C_9  and  C_15 
REMARK    3  A    between atoms: C_13  and  C_15 
REMARK    4  A    between atoms: C_15  and  C_16 
REMARK    5  A    between atoms: C_16  and  N_17 
REMARK    6  A    between atoms: N_17  and  C_18 
ROOT
ATOM      1  C   UNN dAMED      -0.577  -1.562   0.733  0.00  0.00     0.008 C 
ENDROOT
BRANCH   1   2
ATOM      2  C   UNN dAMED      -0.530  -2.277   2.056  0.00  0.00    -0.005 A 
ATOM      3  C   UNN dAMED      -1.369  -3.365   2.279  0.00  0.00    -0.001 A 
ATOM      4  C   UNN dAMED      -1.196  -4.156   3.413  0.00  0.00    -0.000 A 
ATOM      5  C   UNN dAMED      -0.179  -3.862   4.318  0.00  0.00    -0.000 A 
ATOM      6  C   UNN dAMED       0.659  -2.772   4.095  0.00  0.00    -0.000 A 
ATOM      7  C   UNN dAMED       0.485  -1.980   2.962  0.00  0.00    -0.001 A 
ENDBRANCH   1   2
BRANCH   1   8
ATOM      8  C   UNN dAMED      -0.777  -2.366  -0.556  0.00  0.00     0.119 C 
ATOM      9 CL   UNN dAMED       0.598  -2.782  -1.563  0.00  0.00    -0.109 Cl
ENDBRANCH   1   8
BRANCH   1  10
ATOM     10  C   UNN dAMED      -0.510  -0.031   0.679  0.00  0.00     0.314 C 
BRANCH  10  11
ATOM     11  N   UNN dAMED       0.674   0.632   0.163  0.00  0.00     0.348 N 
BRANCH  11  12
ATOM     12  C   UNN dAMED       1.834   0.429   1.017  0.00  0.00     0.317 C 
BRANCH  12  13
ATOM     13  C   UNN dAMED       3.138  -0.072   0.452  0.00  0.00     0.014 A 
ATOM     14  C   UNN dAMED       4.129   0.834   0.078  0.00  0.00    -0.002 A 
ATOM     15  C   UNN dAMED       5.355   0.371  -0.395  0.00  0.00    -0.000 A 
ATOM     16  C   UNN dAMED       5.592  -0.998  -0.491  0.00  0.00    -0.000 A 
ATOM     17  C   UNN dAMED       4.608  -1.905  -0.107  0.00  0.00    -0.000 A 
ATOM     18  C   UNN dAMED       3.385  -1.441   0.371  0.00  0.00    -0.002 A 
ENDBRANCH  12  13
ENDBRANCH  11  12
ENDBRANCH  10  11
ENDBRANCH   1  10
TORSDOF 6
