REMARK  4 active torsions:
REMARK  status: ('A' for Active; 'I' for Inactive)
REMARK    1  A    between atoms: N_2  and  C_8 
REMARK    2  A    between atoms: N_3  and  C_12 
REMARK    3  A    between atoms: C_8  and  C_9 
REMARK    4  A    between atoms: C_12  and  C_13 
ROOT
ATOM      1  O   UNN dAMED      -1.213   5.151   0.758  0.00  0.00    -0.272 OA
ATOM      2  N   UNN dAMED      -0.973   2.215  -0.925  0.00  0.00    -0.275 N 
ATOM      3  N   UNN dAMED      -0.874   2.869   0.309  0.00  0.00    -0.140 NA
ATOM      4  C   UNN dAMED      -1.348   4.145   0.083  0.00  0.00     0.255 C 
ATOM      5  C   UNN dAMED      -1.912   4.186  -1.306  0.00  0.00     0.070 C 
ATOM      6  C   UNN dAMED      -1.648   2.999  -1.848  0.00  0.00     0.058 C 
ATOM      7  C   UNN dAMED      -2.020   2.431  -3.180  0.00  0.00     0.052 C 
ENDROOT
BRANCH   2   8
ATOM      8  C   UNN dAMED      -0.735   0.793  -1.071  0.00  0.00     0.032 C 
ATOM      9  C   UNN dAMED      -0.658   0.177  -2.471  0.00  0.00     0.047 C 
BRANCH   8  10
ATOM     10  C   UNN dAMED      -0.129   0.034   0.115  0.00  0.00     0.041 C 
ATOM     11  C   UNN dAMED      -0.520  -1.421   0.388  0.00  0.00     0.006 C 
ENDBRANCH   8  10
ENDBRANCH   2   8
BRANCH   3  12
ATOM     12  C   UNN dAMED       0.491   2.956   0.692  0.00  0.00     0.086 C 
ATOM     13  C   UNN dAMED       0.965   2.202   1.939  0.00  0.00     0.020 C 
BRANCH  12  14
ATOM     14  C   UNN dAMED       1.526   3.411  -0.342  0.00  0.00     0.018 C 
ATOM     15  C   UNN dAMED       3.019   3.375  -0.001  0.00  0.00     0.002 C 
ENDBRANCH  12  14
ENDBRANCH   3  12
TORSDOF 4
