REMARK  0 active torsions:
REMARK  status: ('A' for Active; 'I' for Inactive)
ROOT
ATOM      1  N   UNN dAMED      -2.703  -0.361   0.000  0.00  0.00    -0.242 NA
ATOM      2  C   UNN dAMED      -1.669  -1.230   0.000  0.00  0.00     0.099 A 
ATOM      3  C   UNN dAMED      -0.328  -0.871   0.000  0.00  0.00     0.022 A 
ATOM      4  C   UNN dAMED       0.653  -1.854   0.000  0.00  0.00     0.002 A 
ATOM      5  C   UNN dAMED       1.986  -1.482   0.000  0.00  0.00     0.003 A 
ATOM      6  C   UNN dAMED       0.014   0.502  -0.000  0.00  0.00     0.042 A 
ATOM      7  C   UNN dAMED       2.318  -0.127   0.000  0.00  0.00     0.042 A 
ATOM      8  C   UNN dAMED      -1.049   1.415  -0.000  0.00  0.00     0.024 A 
ATOM      9  C   UNN dAMED      -2.354   0.945  -0.000  0.00  0.00     0.099 A 
ATOM     10  C   UNN dAMED       1.376   0.921  -0.000  0.00  0.00     0.196 A 
ATOM     11  O   UNN dAMED       1.756   2.141  -0.000  0.00  0.00    -0.287 OA
ENDROOT
TORSDOF 0
