REMARK  3 active torsions:
REMARK  status: ('A' for Active; 'I' for Inactive)
REMARK    1  A    between atoms: C_4  and  C_11 
REMARK    2  A    between atoms: C_6  and  S_7 
REMARK    3  A    between atoms: S_7  and  C_8 
ROOT
ATOM      1  N   UNN dAMED      -0.406   0.447   0.216  0.00  0.00    -0.207 NA
ATOM      2  N   UNN dAMED      -0.481  -1.688  -0.879  0.00  0.00    -0.220 NA
ATOM      3  C   UNN dAMED       0.942   0.405   0.159  0.00  0.00     0.153 A 
ATOM      4  C   UNN dAMED       1.633  -0.654  -0.395  0.00  0.00     0.061 A 
ATOM      5  C   UNN dAMED       0.867  -1.680  -0.907  0.00  0.00     0.102 A 
ATOM      6  C   UNN dAMED      -1.060  -0.610  -0.311  0.00  0.00     0.191 A 
ATOM      7  N   UNN dAMED       1.679   1.518   0.655  0.00  0.00    -0.080 NA
ENDROOT
BRANCH   6   8
ATOM      8  S   UNN dAMED      -2.837  -0.564  -0.275  0.00  0.00    -0.076 SA
BRANCH   8   9
ATOM      9  C   UNN dAMED      -3.000  -1.656   1.135  0.00  0.00     0.065 C 
ATOM     10  C   UNN dAMED      -4.287  -1.644   1.967  0.00  0.00     0.013 C 
ENDBRANCH   8   9
ENDBRANCH   6   8
BRANCH   4  11
ATOM     11  C   UNN dAMED       3.133  -0.646  -0.518  0.00  0.00     0.213 C 
ATOM     12  O   UNN dAMED       3.934  -1.092   0.501  0.00  0.00    -0.215 OA
ENDBRANCH   4  11
TORSDOF 3
