REMARK  4 active torsions:
REMARK  status: ('A' for Active; 'I' for Inactive)
REMARK    1  A    between atoms: N_1  and  C_8 
REMARK    2  A    between atoms: N_1  and  C_11 
REMARK       I    between atoms: N_1  and  C_21 
REMARK    3  A    between atoms: N_2  and  C_16 
REMARK       I    between atoms: N_2  and  C_21 
REMARK    4  A    between atoms: N_2  and  C_23 
ROOT
ATOM      1  N   UNN dAMED      -1.249  -0.275   0.032  0.00  0.00    -0.260 N 
ATOM      2  N   UNN dAMED      -0.079  -0.970  -1.881  0.00  0.00    -0.260 N 
ATOM      3  C   UNN dAMED      -0.141  -0.984  -0.477  0.00  0.00     0.339 C 
ATOM      4  O   UNN dAMED       0.672  -1.583   0.231  0.00  0.00    -0.245 OA
ENDROOT
BRANCH   1   5
ATOM      5  C   UNN dAMED      -2.363  -0.966   0.588  0.00  0.00     0.068 A 
ATOM      6  C   UNN dAMED      -3.665  -0.477   0.445  0.00  0.00     0.018 A 
ATOM      7  C   UNN dAMED      -4.751  -1.210   0.913  0.00  0.00     0.002 A 
ATOM      8  C   UNN dAMED      -4.550  -2.451   1.508  0.00  0.00     0.000 A 
ATOM      9  C   UNN dAMED      -3.257  -2.944   1.665  0.00  0.00     0.002 A 
ATOM     10  C   UNN dAMED      -2.168  -2.200   1.217  0.00  0.00     0.018 A 
ENDBRANCH   1   5
BRANCH   1  11
ATOM     11  C   UNN dAMED      -1.383   1.117  -0.192  0.00  0.00     0.068 A 
ATOM     12  C   UNN dAMED      -1.001   2.022   0.796  0.00  0.00     0.018 A 
ATOM     13  C   UNN dAMED      -1.186   3.387   0.583  0.00  0.00     0.002 A 
ATOM     14  C   UNN dAMED      -1.742   3.845  -0.611  0.00  0.00     0.000 A 
ATOM     15  C   UNN dAMED      -2.118   2.940  -1.598  0.00  0.00     0.002 A 
ATOM     16  C   UNN dAMED      -1.944   1.579  -1.387  0.00  0.00     0.018 A 
ENDBRANCH   1  11
BRANCH   2  17
ATOM     17  C   UNN dAMED      -1.059  -1.622  -2.658  0.00  0.00     0.068 A 
ATOM     18  C   UNN dAMED      -1.906  -0.857  -3.467  0.00  0.00     0.018 A 
ATOM     19  C   UNN dAMED      -2.892  -1.487  -4.211  0.00  0.00     0.002 A 
ATOM     20  C   UNN dAMED      -3.026  -2.872  -4.154  0.00  0.00     0.000 A 
ATOM     21  C   UNN dAMED      -2.185  -3.629  -3.339  0.00  0.00     0.002 A 
ATOM     22  C   UNN dAMED      -1.194  -3.011  -2.585  0.00  0.00     0.018 A 
ENDBRANCH   2  17
BRANCH   2  23
ATOM     23  C   UNN dAMED       1.081  -0.527  -2.555  0.00  0.00     0.068 A 
ATOM     24  C   UNN dAMED       1.654  -1.278  -3.588  0.00  0.00     0.018 A 
ATOM     25  C   UNN dAMED       2.735  -0.774  -4.307  0.00  0.00     0.002 A 
ATOM     26  C   UNN dAMED       3.258   0.473  -3.974  0.00  0.00     0.000 A 
ATOM     27  C   UNN dAMED       2.715   1.214  -2.925  0.00  0.00     0.002 A 
ATOM     28  C   UNN dAMED       1.619   0.718  -2.225  0.00  0.00     0.018 A 
ENDBRANCH   2  23
TORSDOF 4
