REMARK  2 active torsions:
REMARK  status: ('A' for Active; 'I' for Inactive)
REMARK    1  A    between atoms: C_5  and  N_16 
REMARK    2  A    between atoms: C_9  and  N_16 
ROOT
ATOM      1  C   UNN dAMED       1.002   0.830   0.821  0.00  0.00     0.020 A 
ATOM      2  C   UNN dAMED       2.152   1.021   1.588  0.00  0.00     0.012 A 
ATOM      3  C   UNN dAMED       1.017   0.903  -0.582  0.00  0.00     0.083 A 
ATOM      4  C   UNN dAMED       3.362   1.288   0.958  0.00  0.00     0.068 A 
ATOM      5  C   UNN dAMED       2.255   1.181  -1.178  0.00  0.00     0.020 A 
ATOM      6  C   UNN dAMED       3.416   1.371  -0.428  0.00  0.00     0.012 A 
ATOM      7  C   UNN dAMED       4.548   1.458   1.730  0.00  0.00     0.101 C 
ATOM      8  N   UNN dAMED       5.516   1.592   2.357  0.00  0.00    -0.191 NA
ENDROOT
BRANCH   3   9
ATOM      9  N   UNN dAMED      -0.048   0.690  -1.395  0.00  0.00    -0.226 NA
BRANCH   9  10
ATOM     10  C   UNN dAMED      -1.252   0.556  -0.797  0.00  0.00     0.172 A 
ATOM     11  N   UNN dAMED      -1.917   1.718  -0.580  0.00  0.00    -0.195 NA
ATOM     12  C   UNN dAMED      -3.148   1.639  -0.026  0.00  0.00     0.239 A 
ATOM     13  N   UNN dAMED      -3.775   0.497   0.318  0.00  0.00    -0.218 NA
ATOM     14  N   UNN dAMED      -3.841   2.862   0.207  0.00  0.00    -0.060 NA
ATOM     15  C   UNN dAMED      -3.101  -0.644   0.074  0.00  0.00     0.071 A 
ATOM     16  C   UNN dAMED      -1.839  -0.666  -0.488  0.00  0.00     0.084 A 
ATOM     17  C   UNN dAMED      -3.757  -1.953   0.415  0.00  0.00     0.053 C 
ATOM     18 BR   UNN dAMED      -1.026  -2.342  -0.793  0.00  0.00    -0.045 Br
ENDBRANCH   9  10
ENDBRANCH   3   9
TORSDOF 2
