REMARK  3 active torsions:
REMARK  status: ('A' for Active; 'I' for Inactive)
REMARK    1  A    between atoms: C_2  and  N_19 
REMARK    2  A    between atoms: C_8  and  N_14 
REMARK       I    between atoms: N_14  and  C_15 
REMARK    3  A    between atoms: C_15  and  C_17 
REMARK       I    between atoms: C_17  and  N_19 
ROOT
ATOM      1  N   UNN dAMED      -1.694  -0.529  -0.053  0.00  0.00    -0.204 NA
ATOM      2  C   UNN dAMED      -0.729  -0.529   0.874  0.00  0.00     0.337 C 
ATOM      3  O   UNN dAMED      -0.750  -0.887   2.046  0.00  0.00    -0.260 OA
ENDROOT
BRANCH   2   4
ATOM      4  C   UNN dAMED       0.566   0.055   0.374  0.00  0.00     0.337 C 
ATOM      5  O   UNN dAMED       0.698   1.260   0.562  0.00  0.00    -0.260 OA
ATOM      6  N   UNN dAMED       1.363  -0.856  -0.198  0.00  0.00    -0.204 NA
BRANCH   6   7
ATOM      7  C   UNN dAMED       2.708  -0.655  -0.163  0.00  0.00     0.081 A 
ATOM      8  C   UNN dAMED       3.562  -1.727  -0.462  0.00  0.00     0.019 A 
ATOM      9  C   UNN dAMED       4.957  -1.593  -0.515  0.00  0.00     0.002 A 
ATOM     10  C   UNN dAMED       5.551  -0.365  -0.254  0.00  0.00    -0.000 A 
ATOM     11  C   UNN dAMED       4.739   0.724   0.024  0.00  0.00    -0.003 A 
ATOM     12  C   UNN dAMED       3.346   0.577   0.054  0.00  0.00    -0.004 A 
ATOM     13  C   UNN dAMED       2.512   1.806   0.281  0.00  0.00     0.033 C 
ENDBRANCH   6   7
ENDBRANCH   2   4
BRANCH   1  14
ATOM     14  C   UNN dAMED      -2.815   0.127   0.329  0.00  0.00     0.081 A 
ATOM     15  C   UNN dAMED      -3.771  -0.475   1.163  0.00  0.00     0.019 A 
ATOM     16  C   UNN dAMED      -4.953   0.176   1.522  0.00  0.00     0.002 A 
ATOM     17  C   UNN dAMED      -5.210   1.453   1.037  0.00  0.00    -0.000 A 
ATOM     18  C   UNN dAMED      -4.306   2.056   0.170  0.00  0.00    -0.003 A 
ATOM     19  C   UNN dAMED      -3.122   1.398  -0.179  0.00  0.00    -0.004 A 
ATOM     20  C   UNN dAMED      -2.211   2.032  -1.190  0.00  0.00     0.033 C 
ENDBRANCH   1  14
TORSDOF 3
