REMARK  4 active torsions:
REMARK  status: ('A' for Active; 'I' for Inactive)
REMARK    1  A    between atoms: C_9  and  N_31 
REMARK    2  A    between atoms: C_16  and  C_30 
REMARK    3  A    between atoms: O_26  and  C_28 
REMARK    4  A    between atoms: C_28  and  C_30 
ROOT
ATOM      1  O   UNN dAMED      -3.762   0.129   1.807  0.00  0.00    -0.335 OA
ATOM      2  H   UNN dAMED       0.320   1.454   1.307  0.00  0.00     0.166 HD
ATOM      3  N   UNN dAMED       0.486   0.606   0.778  0.00  0.00    -0.355 N 
ATOM      4  N   UNN dAMED      -0.808  -3.841  -0.489  0.00  0.00     0.136 N 
ATOM      5  O   UNN dAMED       5.076   1.569  -0.545  0.00  0.00    -0.281 OA
ATOM      6  O   UNN dAMED       5.271  -1.079  -1.162  0.00  0.00    -0.283 OA
ATOM      7  C   UNN dAMED       4.125   0.830  -0.371  0.00  0.00     0.257 C 
ATOM      8  C   UNN dAMED       4.210  -0.618  -0.776  0.00  0.00     0.236 C 
ATOM      9  C   UNN dAMED       2.814   1.222   0.190  0.00  0.00     0.184 C 
ATOM     10  C   UNN dAMED       1.756   0.406   0.285  0.00  0.00     0.078 C 
ATOM     11  C   UNN dAMED       3.045  -1.524  -0.456  0.00  0.00     0.043 C 
ATOM     12  C   UNN dAMED       1.869  -0.987  -0.123  0.00  0.00     0.005 C 
ATOM     13  C   UNN dAMED       0.697  -1.771   0.410  0.00  0.00     0.085 C 
ATOM     14  C   UNN dAMED      -0.239  -0.644   0.865  0.00  0.00     0.036 C 
ATOM     15  C   UNN dAMED      -1.740  -0.659   0.491  0.00  0.00     0.008 C 
ATOM     16  C   UNN dAMED      -2.653   0.469   0.971  0.00  0.00     0.079 C 
ATOM     17  C   UNN dAMED      -0.035  -2.548  -0.775  0.00  0.00     0.228 C 
ATOM     18  C   UNN dAMED       1.193  -3.162   0.746  0.00  0.00     0.047 C 
ATOM     19  C   UNN dAMED       0.133  -4.207   0.544  0.00  0.00     0.251 C 
ATOM     20  C   UNN dAMED      -2.110  -1.332  -0.826  0.00  0.00     0.029 C 
ATOM     21  C   UNN dAMED      -0.870  -1.633  -1.627  0.00  0.00     0.038 C 
ATOM     22  C   UNN dAMED      -3.140  -2.553  -0.750  0.00  0.00     0.040 C 
ATOM     23  C   UNN dAMED      -1.576  -2.560  -0.538  0.00  0.00     0.251 C 
ATOM     24  C   UNN dAMED      -3.819  -1.590  -0.094  0.00  0.00     0.035 C 
ATOM     25  C   UNN dAMED      -3.093  -0.502   0.704  0.00  0.00     0.148 C 
ENDROOT
BRANCH  16  26
ATOM     26  C   UNN dAMED      -2.804   1.681   0.043  0.00  0.00     0.146 C 
BRANCH  26  27
ATOM     27  C   UNN dAMED      -2.322   3.050   0.441  0.00  0.00     0.279 C 
ATOM     28  O   UNN dAMED      -2.668   4.007  -0.241  0.00  0.00    -0.264 OA
BRANCH  27  29
ATOM     29  O   UNN dAMED      -1.508   3.171   1.520  0.00  0.00    -0.299 OA
ATOM     30  C   UNN dAMED      -0.956   4.451   1.413  0.00  0.00     0.184 C 
ENDBRANCH  27  29
ENDBRANCH  26  27
ENDBRANCH  16  26
BRANCH   9  31
ATOM     31  N   UNN dAMED       2.643   2.574   0.646  0.00  0.00    -0.109 N 
ATOM     32  O   UNN dAMED       2.947   2.810   1.822  0.00  0.00    -0.532 OA
ATOM     33  O   UNN dAMED       2.224   3.393  -0.180  0.00  0.00    -0.532 OA
ENDBRANCH   9  31
TORSDOF 4
