REMARK  4 active torsions:
REMARK  status: ('A' for Active; 'I' for Inactive)
REMARK    1  A    between atoms: C_6  and  S_7 
REMARK    2  A    between atoms: S_7  and  C_9 
REMARK    3  A    between atoms: C_10  and  O_11 
REMARK    4  A    between atoms: O_11  and  C_22 
ROOT
ATOM      1  C   UNN dAMED       0.988   1.953   0.881  0.00  0.00     0.015 A 
ATOM      2  C   UNN dAMED       2.270   2.212   0.340  0.00  0.00     0.027 A 
ATOM      3  C   UNN dAMED       0.389   0.681   0.897  0.00  0.00     0.110 A 
ATOM      4  C   UNN dAMED       3.061   1.208  -0.231  0.00  0.00     0.115 A 
ATOM      5  C   UNN dAMED       1.184  -0.319   0.328  0.00  0.00     0.150 A 
ATOM      6  C   UNN dAMED       2.505  -0.084  -0.237  0.00  0.00     0.153 A 
ATOM      7  N   UNN dAMED       3.007  -1.236  -0.701  0.00  0.00    -0.100 NA
ATOM      8  O   UNN dAMED       0.014  -2.412   0.475  0.00  0.00    -0.055 OA
ATOM      9  N   UNN dAMED       0.945  -1.628   0.188  0.00  0.00    -0.061 N 
ATOM     10  O   UNN dAMED       2.071  -2.224  -0.463  0.00  0.00    -0.100 OA
ENDROOT
BRANCH   3  11
ATOM     11  S   UNN dAMED      -1.181   0.485   1.647  0.00  0.00     0.211 S 
ATOM     12  O   UNN dAMED      -1.979  -0.329   0.751  0.00  0.00    -0.217 OA
ATOM     13  O   UNN dAMED      -1.642   1.801   2.050  0.00  0.00    -0.217 OA
BRANCH  11  14
ATOM     14  C   UNN dAMED      -0.930  -0.420   3.132  0.00  0.00     0.088 A 
ATOM     15  C   UNN dAMED      -0.061   0.097   4.087  0.00  0.00     0.011 A 
ATOM     16  C   UNN dAMED       0.157  -0.617   5.261  0.00  0.00    -0.004 A 
ATOM     17  C   UNN dAMED      -0.493  -1.833   5.465  0.00  0.00    -0.022 A 
ATOM     18  C   UNN dAMED      -1.368  -2.336   4.502  0.00  0.00    -0.004 A 
ATOM     19  C   UNN dAMED      -0.227  -2.620   6.717  0.00  0.00     0.031 C 
ATOM     20  C   UNN dAMED      -1.595  -1.625   3.328  0.00  0.00     0.011 A 
ENDBRANCH  11  14
ENDBRANCH   3  11
BRANCH   4  21
ATOM     21  O   UNN dAMED       4.296   1.490  -0.733  0.00  0.00    -0.329 OA
BRANCH  21  22
ATOM     22  C   UNN dAMED       4.800   2.503   0.086  0.00  0.00     0.149 C 
ATOM     23  C   UNN dAMED       5.297   2.172   1.497  0.00  0.00     0.035 C 
ENDBRANCH  21  22
ENDBRANCH   4  21
TORSDOF 4
