REMARK  3 active torsions:
REMARK  status: ('A' for Active; 'I' for Inactive)
REMARK    1  A    between atoms: C_5  and  S_18 
REMARK    2  A    between atoms: C_6  and  N_17 
REMARK    3  A    between atoms: N_17  and  S_18 
ROOT
ATOM      1  N   UNN dAMED       0.262   0.379   0.338  0.00  0.00    -0.137 NA
ENDROOT
BRANCH   1   2
ATOM      2  C   UNN dAMED      -1.062   0.164   0.376  0.00  0.00     0.194 A 
ATOM      3  N   UNN dAMED      -1.829   0.876  -0.478  0.00  0.00    -0.223 NA
ATOM      4  C   UNN dAMED      -3.148   0.628  -0.506  0.00  0.00     0.101 A 
ATOM      5  C   UNN dAMED      -3.972   1.346  -1.363  0.00  0.00     0.021 A 
ATOM      6  C   UNN dAMED      -3.713  -0.356   0.318  0.00  0.00     0.099 A 
ATOM      7  C   UNN dAMED      -5.341   1.108  -1.425  0.00  0.00     0.002 A 
ATOM      8  C   UNN dAMED      -5.899   0.131  -0.615  0.00  0.00     0.002 A 
ATOM      9  C   UNN dAMED      -5.080  -0.590   0.249  0.00  0.00     0.021 A 
ATOM     10  N   UNN dAMED      -2.950  -1.068   1.160  0.00  0.00    -0.239 NA
ATOM     11  C   UNN dAMED      -1.629  -0.802   1.177  0.00  0.00     0.138 A 
ENDBRANCH   1   2
BRANCH   1  12
ATOM     12  S   UNN dAMED       0.817   1.713   1.020  0.00  0.00     0.287 S 
ATOM     13  O   UNN dAMED       0.284   2.011   2.348  0.00  0.00    -0.198 OA
ATOM     14  O   UNN dAMED       0.909   2.854   0.112  0.00  0.00    -0.198 OA
BRANCH  12  15
ATOM     15  C   UNN dAMED       2.540   1.409   1.401  0.00  0.00     0.105 A 
ATOM     16  C   UNN dAMED       3.353   2.485   1.745  0.00  0.00     0.014 A 
ATOM     17  C   UNN dAMED       4.693   2.246   2.037  0.00  0.00     0.015 A 
ATOM     18  C   UNN dAMED       5.198   0.946   1.990  0.00  0.00     0.070 A 
ATOM     19  C   UNN dAMED       4.366  -0.123   1.661  0.00  0.00     0.015 A 
ATOM     20  N   UNN dAMED       6.584   0.716   2.214  0.00  0.00    -0.101 NA
ATOM     21  C   UNN dAMED       3.026   0.106   1.368  0.00  0.00     0.014 A 
ENDBRANCH  12  15
ENDBRANCH   1  12
TORSDOF 3
