REMARK  1 active torsions:
REMARK  status: ('A' for Active; 'I' for Inactive)
REMARK    1  A    between atoms: C_9  and  C_10 
ROOT
ATOM      1  O   UNN dAMED       1.488  -2.023  -0.066  0.00  0.00    -0.300 OA
ATOM      2  C   UNN dAMED       2.449  -1.226   0.522  0.00  0.00     0.299 C 
ATOM      3  C   UNN dAMED       0.521  -1.146  -0.610  0.00  0.00     0.157 C 
ATOM      4  C   UNN dAMED      -0.944  -1.376  -0.251  0.00  0.00     0.155 C 
ATOM      5  O   UNN dAMED       3.395  -1.631   1.180  0.00  0.00    -0.262 OA
ATOM      6  O   UNN dAMED      -1.828  -1.151  -1.322  0.00  0.00    -0.302 OA
ATOM      7  C   UNN dAMED       2.204   0.182   0.201  0.00  0.00     0.199 A 
ATOM      8  C   UNN dAMED       1.039   0.417  -0.705  0.00  0.00     0.088 A 
ATOM      9  C   UNN dAMED      -1.280  -0.419   0.858  0.00  0.00     0.070 C 
ATOM     10  C   UNN dAMED      -2.007   0.214  -1.226  0.00  0.00     0.274 C 
ATOM     11  O   UNN dAMED      -2.819   0.846  -1.883  0.00  0.00    -0.264 OA
ATOM     12  O   UNN dAMED       3.034   1.229   0.665  0.00  0.00    -0.346 OA
ATOM     13  C   UNN dAMED       0.045   1.437  -0.085  0.00  0.00     0.143 A 
ATOM     14  C   UNN dAMED       1.920   0.970   1.473  0.00  0.00     0.152 A 
ATOM     15  C   UNN dAMED      -1.351   0.797   0.017  0.00  0.00     0.119 C 
ATOM     16  C   UNN dAMED       0.639   1.756   1.288  0.00  0.00     0.064 A 
ATOM     17  C   UNN dAMED       0.253  -1.014  -0.796  0.00  0.00     0.008 C 
ATOM     18  O   UNN dAMED       0.023   2.524  -0.815  0.00  0.00    -0.225 OA
ENDROOT
BRANCH   9  19
ATOM     19  C   UNN dAMED      -2.755  -0.715   1.828  0.00  0.00     0.130 C 
ATOM     20  C   UNN dAMED      -1.224  -0.407   0.807  0.00  0.00     0.033 C 
ATOM     21  C   UNN dAMED      -1.219  -0.406   0.818  0.00  0.00     0.033 C 
ATOM     22  O   UNN dAMED      -2.539  -1.748   2.598  0.00  0.00    -0.226 OA
ENDBRANCH   9  19
TORSDOF 1
