REMARK  0 active torsions:
REMARK  status: ('A' for Active; 'I' for Inactive)
ROOT
ATOM      1  O   UNN dAMED      -0.420  -4.134   0.176  0.00  0.00    -0.259 OA
ATOM      2  O   UNN dAMED      -1.101  -1.975   0.015  0.00  0.00    -0.273 OA
ATOM      3  C   UNN dAMED      -0.146  -2.943   0.099  0.00  0.00     0.300 A 
ATOM      4  C   UNN dAMED       1.246  -2.470   0.088  0.00  0.00     0.064 A 
ATOM      5  C   UNN dAMED       2.268  -3.422   0.128  0.00  0.00     0.005 A 
ATOM      6  C   UNN dAMED       3.598  -3.015   0.134  0.00  0.00     0.000 A 
ATOM      7  C   UNN dAMED       1.538  -1.108   0.051  0.00  0.00     0.007 A 
ATOM      8  C   UNN dAMED       3.906  -1.659   0.105  0.00  0.00     0.000 A 
ATOM      9  C   UNN dAMED       2.881  -0.716   0.064  0.00  0.00     0.000 A 
ATOM     10  C   UNN dAMED       0.460  -0.103   0.001  0.00  0.00     0.023 A 
ATOM     11  C   UNN dAMED      -0.801  -0.591  -0.025  0.00  0.00     0.103 A 
ATOM     12  C   UNN dAMED      -2.020   0.225  -0.066  0.00  0.00     0.023 A 
ATOM     13  C   UNN dAMED      -2.835   0.312   1.066  0.00  0.00     0.002 A 
ATOM     14  C   UNN dAMED      -4.017   1.048   1.025  0.00  0.00     0.000 A 
ATOM     15  C   UNN dAMED      -4.386   1.706  -0.146  0.00  0.00     0.000 A 
ATOM     16  C   UNN dAMED      -2.406   0.870  -1.243  0.00  0.00     0.002 A 
ATOM     17  C   UNN dAMED       0.698   1.354  -0.016  0.00  0.00     0.002 A 
ATOM     18  C   UNN dAMED      -3.580   1.619  -1.278  0.00  0.00     0.000 A 
ATOM     19  C   UNN dAMED       0.514   2.107   1.147  0.00  0.00     0.000 A 
ATOM     20  C   UNN dAMED       1.160   1.979  -1.177  0.00  0.00     0.000 A 
ATOM     21  C   UNN dAMED       0.765   3.476   1.141  0.00  0.00     0.000 A 
ATOM     22  C   UNN dAMED       1.427   3.346  -1.176  0.00  0.00     0.000 A 
ATOM     23  C   UNN dAMED       1.226   4.094  -0.018  0.00  0.00     0.000 A 
ENDROOT
TORSDOF 0
