REMARK  3 active torsions:
REMARK  status: ('A' for Active; 'I' for Inactive)
REMARK    1  A    between atoms: N_1  and  P_8 
REMARK    2  A    between atoms: N_5  and  P_8 
REMARK    3  A    between atoms: P_8  and  N_9 
ROOT
ATOM      1  O   UNN dAMED       1.364  -0.865   0.129  0.00  0.00    -0.268 OA
ATOM      2  P   UNN dAMED       0.086  -0.154  -0.248  0.00  0.00     0.292 P 
ENDROOT
BRANCH   2   3
ATOM      3  N   UNN dAMED      -1.277  -0.812   0.441  0.00  0.00    -0.205 NA
ATOM      4  C   UNN dAMED      -2.183  -1.603  -0.371  0.00  0.00     0.099 A 
ATOM      5  C   UNN dAMED      -1.315  -2.236   0.718  0.00  0.00     0.099 A 
ENDBRANCH   2   3
BRANCH   2   6
ATOM      6  N   UNN dAMED      -0.226  -0.150  -1.881  0.00  0.00    -0.205 NA
ATOM      7  C   UNN dAMED       0.579   0.780  -2.807  0.00  0.00     0.099 C 
ATOM      8  C   UNN dAMED       0.579   0.780  -2.807  0.00  0.00     0.099 C 
ENDBRANCH   2   6
BRANCH   2   9
ATOM      9  N   UNN dAMED       0.060   1.447   0.200  0.00  0.00    -0.205 NA
ATOM     10  C   UNN dAMED       1.268   2.345  -0.125  0.00  0.00     0.099 C 
ATOM     11  C   UNN dAMED       1.268   2.345  -0.125  0.00  0.00     0.099 C 
ENDBRANCH   2   9
TORSDOF 3
