REMARK  2 active torsions:
REMARK  status: ('A' for Active; 'I' for Inactive)
REMARK    1  A    between atoms: C_5  and  N_22 
REMARK    2  A    between atoms: C_7  and  C_9 
REMARK       I    between atoms: C_7  and  N_22 
ROOT
ATOM      1  N   UNN dAMED      -2.158   0.061   1.470  0.00  0.00    -0.172 NA
ATOM      2  N   UNN dAMED      -0.819  -0.033   1.389  0.00  0.00    -0.260 N 
ATOM      3  C   UNN dAMED      -2.555   0.192   0.193  0.00  0.00     0.104 A 
ATOM      4  H   UNN dAMED      -0.295  -0.157   2.246  0.00  0.00     0.191 HD
ATOM      5  C   UNN dAMED      -0.331   0.033   0.117  0.00  0.00     0.161 A 
ATOM      6  C   UNN dAMED      -1.434   0.183  -0.689  0.00  0.00     0.059 A 
ATOM      7  C   UNN dAMED      -3.960   0.327  -0.168  0.00  0.00     0.019 A 
ATOM      8  C   UNN dAMED      -4.325   1.065  -1.296  0.00  0.00     0.002 A 
ATOM      9  C   UNN dAMED      -5.666   1.188  -1.658  0.00  0.00     0.000 A 
ATOM     10  C   UNN dAMED      -6.655   0.581  -0.889  0.00  0.00     0.000 A 
ATOM     11  C   UNN dAMED      -6.301  -0.155   0.239  0.00  0.00     0.000 A 
ATOM     12  C   UNN dAMED      -4.958  -0.286   0.595  0.00  0.00     0.002 A 
ENDROOT
BRANCH   5  13
ATOM     13  N   UNN dAMED       0.947  -0.039  -0.321  0.00  0.00    -0.189 NA
ATOM     14  C   UNN dAMED       1.867  -0.296   0.616  0.00  0.00     0.281 C 
ATOM     15  O   UNN dAMED       1.892  -1.218   1.428  0.00  0.00    -0.265 OA
BRANCH  14  16
ATOM     16  C   UNN dAMED       3.027   0.616   0.590  0.00  0.00     0.058 A 
ATOM     17  C   UNN dAMED       2.863   1.929   1.028  0.00  0.00     0.006 A 
ATOM     18  C   UNN dAMED       3.950   2.798   1.019  0.00  0.00     0.012 A 
ATOM     19  C   UNN dAMED       5.196   2.343   0.596  0.00  0.00     0.058 A 
ATOM     20  C   UNN dAMED       5.368   1.024   0.179  0.00  0.00     0.012 A 
ATOM     21 CL   UNN dAMED       6.529   3.426   0.598  0.00  0.00    -0.082 Cl
ATOM     22  C   UNN dAMED       4.278   0.152   0.176  0.00  0.00     0.006 A 
ENDBRANCH  14  16
ENDBRANCH   5  13
TORSDOF 2
