REMARK  3 active torsions:
REMARK  status: ('A' for Active; 'I' for Inactive)
REMARK    1  A    between atoms: P_2  and  O_10 
REMARK    2  A    between atoms: O_10  and  C_11 
REMARK    3  A    between atoms: C_11  and  C_12 
ROOT
ATOM      1  C   UNN dAMED       1.015  -3.498   0.227  0.00  0.00     0.138 C 
ATOM      2  C   UNN dAMED       2.138  -4.420   0.262  0.00  0.00     0.076 C 
ATOM      3  N   UNN dAMED       3.043  -5.143   0.283  0.00  0.00    -0.196 NA
ENDROOT
BRANCH   1   4
ATOM      4  C   UNN dAMED       1.169  -2.142  -0.477  0.00  0.00     0.170 C 
BRANCH   4   5
ATOM      5  O   UNN dAMED       1.253  -0.958   0.263  0.00  0.00    -0.272 OA
BRANCH   5   6
ATOM      6  P   UNN dAMED      -0.102  -0.154  -0.096  0.00  0.00     0.480 P 
ATOM      7  O   UNN dAMED       0.412   1.042  -1.069  0.00  0.00    -0.276 OA
ATOM      8  C   UNN dAMED       1.285   0.453  -1.992  0.00  0.00     0.129 C 
ATOM      9  C   UNN dAMED       1.443  -1.060  -1.947  0.00  0.00     0.060 C 
ATOM     10  C   UNN dAMED       1.560   1.174  -3.318  0.00  0.00     0.033 C 
ATOM     11  C   UNN dAMED       0.149  -1.835  -1.775  0.00  0.00     0.129 C 
ATOM     12  O   UNN dAMED      -0.874  -1.187  -1.081  0.00  0.00    -0.276 OA
ATOM     13  C   UNN dAMED       0.150  -3.360  -1.887  0.00  0.00     0.033 C 
ATOM     14  O   UNN dAMED      -0.890   0.296   1.099  0.00  0.00    -0.227 OA
ENDBRANCH   5   6
ENDBRANCH   4   5
ENDBRANCH   1   4
TORSDOF 3
