REMARK  2 active torsions:
REMARK  status: ('A' for Active; 'I' for Inactive)
REMARK    1  A    between atoms: C_7  and  N_8 
REMARK    2  A    between atoms: C_16  and  N_18 
ROOT
ATOM      1  C   UNN dAMED      -4.855   0.765  -0.589  0.00  0.00     0.103 C 
ATOM      2  C   UNN dAMED      -4.632  -0.448   0.312  0.00  0.00     0.034 C 
ATOM      3  N   UNN dAMED      -3.847   1.243  -1.159  0.00  0.00    -0.215 NA
ATOM      4  C   UNN dAMED      -3.422  -0.564   0.850  0.00  0.00     0.061 C 
ATOM      5  C   UNN dAMED      -2.623   0.932  -0.672  0.00  0.00     0.216 C 
ATOM      6  N   UNN dAMED      -2.494   0.486   0.615  0.00  0.00    -0.159 NA
ATOM      7  C   UNN dAMED      -1.224   0.041   0.811  0.00  0.00     0.177 C 
ATOM      8  N   UNN dAMED      -1.427   0.998  -1.230  0.00  0.00    -0.213 NA
ATOM      9  C   UNN dAMED      -0.540   0.439  -0.322  0.00  0.00     0.115 C 
ATOM     10  C   UNN dAMED       0.873   0.318  -0.620  0.00  0.00     0.022 A 
ATOM     11  C   UNN dAMED       1.664  -0.691  -0.072  0.00  0.00     0.025 A 
ATOM     12  C   UNN dAMED       1.458   1.229  -1.508  0.00  0.00     0.002 A 
ATOM     13  C   UNN dAMED       2.813   1.150  -1.835  0.00  0.00     0.002 A 
ATOM     14  C   UNN dAMED       3.020  -0.753  -0.394  0.00  0.00     0.127 A 
ATOM     15  C   UNN dAMED       3.606   0.157  -1.270  0.00  0.00     0.024 A 
ENDROOT
BRANCH   7  16
ATOM     16  N   UNN dAMED      -0.771  -0.620   1.951  0.00  0.00    -0.082 NA
ATOM     17  O   UNN dAMED      -1.032  -1.829   1.949  0.00  0.00    -0.060 OA
ENDBRANCH   7  16
BRANCH  14  18
ATOM     18  N   UNN dAMED       3.842  -1.791   0.198  0.00  0.00    -0.114 N 
ATOM     19  O   UNN dAMED       4.980  -1.956  -0.265  0.00  0.00    -0.532 OA
ATOM     20  O   UNN dAMED       3.356  -2.446   1.129  0.00  0.00    -0.532 OA
ENDBRANCH  14  18
TORSDOF 2
