REMARK  2 active torsions:
REMARK  status: ('A' for Active; 'I' for Inactive)
REMARK    1  A    between atoms: C_10  and  O_12 
REMARK    2  A    between atoms: O_12  and  C_13 
ROOT
ATOM      1  C   UNN dAMED      -4.396   1.065   0.562  0.00  0.00     0.119 C 
ATOM      2  C   UNN dAMED      -4.557  -0.445   0.515  0.00  0.00     0.041 C 
ATOM      3  N   UNN dAMED      -3.245   1.516   0.757  0.00  0.00    -0.059 NA
ATOM      4  C   UNN dAMED      -3.472  -1.135   0.182  0.00  0.00     0.104 C 
ATOM      5  C   UNN dAMED      -2.143   0.784   0.412  0.00  0.00     0.742 C 
ATOM      6  N   UNN dAMED      -2.299  -0.430  -0.200  0.00  0.00    -0.087 N 
ATOM      7  C   UNN dAMED      -1.245  -1.290  -0.416  0.00  0.00     0.371 C 
ATOM      8  N   UNN dAMED      -0.959   1.263   0.616  0.00  0.00    -0.017 NA
ATOM      9  O   UNN dAMED      -1.423  -2.487  -0.632  0.00  0.00    -0.243 OA
ATOM     10  C   UNN dAMED       0.094   0.483   0.190  0.00  0.00     0.295 C 
ATOM     11  N   UNN dAMED       0.010  -0.716  -0.310  0.00  0.00    -0.149 NA
ENDROOT
BRANCH  10  12
ATOM     12  O   UNN dAMED       1.289   1.182   0.307  0.00  0.00    -0.274 OA
BRANCH  12  13
ATOM     13  C   UNN dAMED       2.462   0.417   0.355  0.00  0.00     0.103 A 
ATOM     14  C   UNN dAMED       3.344   0.523  -0.716  0.00  0.00     0.025 A 
ATOM     15  C   UNN dAMED       4.596  -0.077  -0.622  0.00  0.00     0.002 A 
ATOM     16  C   UNN dAMED       4.957  -0.756   0.542  0.00  0.00     0.000 A 
ATOM     17  C   UNN dAMED       4.070  -0.834   1.616  0.00  0.00     0.002 A 
ATOM     18  C   UNN dAMED       2.820  -0.227   1.536  0.00  0.00     0.025 A 
ENDBRANCH  12  13
ENDBRANCH  10  12
TORSDOF 2
