REMARK  4 active torsions:
REMARK  status: ('A' for Active; 'I' for Inactive)
REMARK    1  A    between atoms: C_10  and  O_15 
REMARK    2  A    between atoms: O_15  and  C_16 
REMARK    3  A    between atoms: C_16  and  C_17 
REMARK    4  A    between atoms: C_17  and  C_18 
ROOT
ATOM      1  O   UNN dAMED      -3.035   1.628  -1.475  0.00  0.00    -0.246 OA
ATOM      2  N   UNN dAMED      -2.673  -0.449  -0.476  0.00  0.00    -0.246 N 
ATOM      3  N   UNN dAMED      -0.908   1.039  -0.774  0.00  0.00    -0.263 N 
ATOM      4  O   UNN dAMED      -2.544  -2.299   0.932  0.00  0.00    -0.266 OA
ATOM      5  N   UNN dAMED       0.357  -1.412   1.329  0.00  0.00    -0.189 NA
ATOM      6  N   UNN dAMED       1.170   0.444   0.391  0.00  0.00    -0.193 NA
ATOM      7  C   UNN dAMED      -2.017  -1.339   0.381  0.00  0.00     0.278 C 
ATOM      8  C   UNN dAMED      -0.660  -0.905   0.582  0.00  0.00     0.135 A 
ATOM      9  C   UNN dAMED      -0.134   0.250   0.039  0.00  0.00     0.166 A 
ATOM     10  C   UNN dAMED       1.449  -0.614   1.126  0.00  0.00     0.230 A 
ATOM     11  C   UNN dAMED      -2.269   0.813  -0.966  0.00  0.00     0.335 C 
ATOM     12  C   UNN dAMED      -4.085  -0.591  -0.434  0.00  0.00     0.138 C 
ATOM     13  C   UNN dAMED      -0.538   2.407  -0.797  0.00  0.00     0.137 C 
ATOM     14  C   UNN dAMED       0.660  -2.721   0.863  0.00  0.00     0.103 C 
ENDROOT
BRANCH  10  15
ATOM     15  O   UNN dAMED       2.644  -0.906   1.612  0.00  0.00    -0.306 OA
BRANCH  15  16
ATOM     16  C   UNN dAMED       3.529  -0.081   0.913  0.00  0.00     0.152 C 
BRANCH  16  17
ATOM     17  C   UNN dAMED       3.804  -0.329  -0.576  0.00  0.00     0.033 C 
BRANCH  17  18
ATOM     18  C   UNN dAMED       2.879  -1.235  -1.395  0.00  0.00     0.003 C 
ATOM     19  C   UNN dAMED       1.709  -0.635  -2.183  0.00  0.00     0.000 C 
ENDBRANCH  17  18
ENDBRANCH  16  17
ENDBRANCH  15  16
ENDBRANCH  10  15
TORSDOF 4
