REMARK  2 active torsions:
REMARK  status: ('A' for Active; 'I' for Inactive)
REMARK    1  A    between atoms: C_2  and  C_9 
REMARK    2  A    between atoms: C_4  and  C_9 
ROOT
ATOM      1  C   UNN dAMED       2.243   0.876  -0.075  0.00  0.00     0.312 A 
ATOM      2  C   UNN dAMED       0.084  -0.102   0.154  0.00  0.00     0.084 A 
ATOM      3  C   UNN dAMED       1.072  -0.983  -0.190  0.00  0.00     0.222 A 
ATOM      4  S   UNN dAMED       0.679   1.478   0.305  0.00  0.00    -0.022 SA
ATOM      5  N   UNN dAMED       2.329  -0.417  -0.315  0.00  0.00    -0.175 NA
ATOM      6  O   UNN dAMED       0.853  -2.266  -0.396  0.00  0.00    -0.169 OA
ATOM      7  O   UNN dAMED       3.209   1.604  -0.121  0.00  0.00    -0.258 OA
ENDROOT
BRANCH   2   8
ATOM      8  C   UNN dAMED      -1.375  -0.463   0.246  0.00  0.00     0.081 C 
BRANCH   8   9
ATOM      9  C   UNN dAMED      -2.045  -0.759   1.569  0.00  0.00     0.212 C 
ATOM     10  O   UNN dAMED      -2.194   0.217   2.365  0.00  0.00    -0.644 OA
ATOM     11  O   UNN dAMED      -2.456  -1.947   1.739  0.00  0.00    -0.644 OA
ENDBRANCH   8   9
ENDBRANCH   2   8
TORSDOF 2
