REMARK  3 active torsions:
REMARK  status: ('A' for Active; 'I' for Inactive)
REMARK    1  A    between atoms: C_5  and  N_7 
REMARK    2  A    between atoms: N_8  and  C_9 
REMARK    3  A    between atoms: C_14  and  N_15 
ROOT
ATOM      1  C   UNN dAMED       0.815  -0.423   0.365  0.00  0.00     0.103 A 
ATOM      2  C   UNN dAMED       1.394  -0.046  -0.854  0.00  0.00     0.022 A 
ATOM      3  C   UNN dAMED       1.655  -0.603   1.466  0.00  0.00     0.022 A 
ATOM      4  C   UNN dAMED       2.770   0.143  -0.969  0.00  0.00     0.018 A 
ATOM      5  C   UNN dAMED       3.033  -0.413   1.358  0.00  0.00     0.018 A 
ATOM      6  C   UNN dAMED       3.595  -0.037   0.139  0.00  0.00     0.056 A 
ENDROOT
BRANCH   1   7
ATOM      7  N   UNN dAMED      -0.570  -0.601   0.556  0.00  0.00    -0.146 NA
ATOM      8  N   UNN dAMED      -1.219  -0.483  -0.505  0.00  0.00    -0.121 NA
BRANCH   8   9
ATOM      9  C   UNN dAMED      -2.560  -0.631  -0.351  0.00  0.00     0.222 A 
ATOM     10  N   UNN dAMED      -3.402   0.357  -0.138  0.00  0.00    -0.164 N 
ATOM     11  C   UNN dAMED      -4.698  -0.016  -0.069  0.00  0.00     0.077 A 
ATOM     12  O   UNN dAMED      -2.944   1.526  -0.028  0.00  0.00    -0.078 OA
ATOM     13  C   UNN dAMED      -4.803  -1.373  -0.260  0.00  0.00     0.054 A 
ATOM     14  C   UNN dAMED      -5.849   0.922   0.129  0.00  0.00     0.053 C 
ATOM     15  S   UNN dAMED      -3.318  -2.183  -0.519  0.00  0.00    -0.045 SA
ENDBRANCH   8   9
ENDBRANCH   1   7
BRANCH   6  16
ATOM     16  N   UNN dAMED       4.982   0.163   0.027  0.00  0.00    -0.344 N 
ATOM     17  C   UNN dAMED       5.798   0.258   1.222  0.00  0.00     0.126 C 
ATOM     18  C   UNN dAMED       5.575   0.382  -1.278  0.00  0.00     0.126 C 
ENDBRANCH   6  16
TORSDOF 3
