REMARK  0 active torsions:
REMARK  status: ('A' for Active; 'I' for Inactive)
ROOT
ATOM      1  H   UNN dAMED      -1.998  -2.782  -0.324  0.00  0.00     0.166 HD
ATOM      2  N   UNN dAMED      -1.514  -1.895  -0.281  0.00  0.00    -0.352 N 
ATOM      3  N   UNN dAMED       3.183   1.882  -0.141  0.00  0.00    -0.363 N 
ATOM      4  C   UNN dAMED      -3.412  -0.415   0.458  0.00  0.00     0.017 A 
ATOM      5  C   UNN dAMED      -2.094  -0.697   0.083  0.00  0.00     0.057 A 
ATOM      6  C   UNN dAMED      -3.708   0.915   0.771  0.00  0.00     0.002 A 
ATOM      7  C   UNN dAMED      -1.103   0.285   0.016  0.00  0.00     0.017 A 
ATOM      8  C   UNN dAMED      -2.741   1.915   0.695  0.00  0.00     0.000 A 
ATOM      9  C   UNN dAMED      -1.431   1.615   0.315  0.00  0.00     0.002 A 
ATOM     10  C   UNN dAMED       0.075  -0.382  -0.366  0.00  0.00     0.012 A 
ATOM     11  C   UNN dAMED      -0.192  -1.706  -0.583  0.00  0.00     0.072 A 
ATOM     12  C   UNN dAMED       1.345   0.300  -0.764  0.00  0.00    -0.019 C 
ATOM     13  C   UNN dAMED       2.340   0.793   0.282  0.00  0.00     0.120 C 
ATOM     14  C   UNN dAMED       1.379   1.324  -1.860  0.00  0.00     0.048 C 
ATOM     15  C   UNN dAMED       2.536   2.233  -1.457  0.00  0.00     0.102 C 
ATOM     16  C   UNN dAMED       4.021   2.964  -0.561  0.00  0.00     0.121 C 
ENDROOT
TORSDOF 0
