REMARK  2 active torsions:
REMARK  status: ('A' for Active; 'I' for Inactive)
REMARK    1  A    between atoms: C_10  and  C_15 
REMARK    2  A    between atoms: C_11  and  C_12 
ROOT
ATOM      1  O   UNN dAMED       1.908   1.380  -0.215  0.00  0.00    -0.323 OA
ATOM      2  O   UNN dAMED       2.491  -0.911   0.467  0.00  0.00    -0.323 OA
ATOM      3  O   UNN dAMED      -1.966   0.664  -0.824  0.00  0.00    -0.323 OA
ATOM      4  O   UNN dAMED      -2.424  -0.211   1.429  0.00  0.00    -0.323 OA
ATOM      5  C   UNN dAMED      -1.491   0.197   0.436  0.00  0.00     0.153 C 
ATOM      6  C   UNN dAMED       0.017  -0.209   0.599  0.00  0.00     0.110 C 
ATOM      7  C   UNN dAMED       1.466   0.048   0.048  0.00  0.00     0.153 C 
ATOM      8  C   UNN dAMED      -1.487   0.196   0.436  0.00  0.00     0.153 C 
ATOM      9  C   UNN dAMED       1.472   0.000   0.066  0.00  0.00     0.153 C 
ATOM     10  C   UNN dAMED      -2.871   0.099   0.117  0.00  0.00     0.327 C 
ATOM     11  C   UNN dAMED       2.800   0.268  -0.267  0.00  0.00     0.327 C 
ENDROOT
BRANCH  10  12
ATOM     12  C   UNN dAMED      -4.285  -0.234  -0.291  0.00  0.00     0.245 C 
ATOM     13  O   UNN dAMED      -4.424  -0.974  -1.309  0.00  0.00    -0.644 OA
ATOM     14  O   UNN dAMED      -5.210   0.227   0.448  0.00  0.00    -0.644 OA
ENDBRANCH  10  12
BRANCH  11  15
ATOM     15  C   UNN dAMED       4.218   0.472  -0.734  0.00  0.00     0.245 C 
ATOM     16  O   UNN dAMED       5.060   0.825   0.147  0.00  0.00    -0.644 OA
ATOM     17  O   UNN dAMED       4.449   0.220  -1.954  0.00  0.00    -0.644 OA
ENDBRANCH  11  15
TORSDOF 2
