REMARK  0 active torsions:
REMARK  status: ('A' for Active; 'I' for Inactive)
ROOT
ATOM      1  C   UNN dAMED       2.577  -0.697  -0.441  0.00  0.00     0.256 A 
ATOM      2  C   UNN dAMED       0.583  -0.134  -0.061  0.00  0.00     0.159 A 
ATOM      3  H   UNN dAMED       1.213   1.002   1.664  0.00  0.00     0.191 HD
ATOM      4  N   UNN dAMED       1.302  -0.845  -0.910  0.00  0.00    -0.195 NA
ATOM      5  N   UNN dAMED       1.432   0.409   0.872  0.00  0.00    -0.257 N 
ATOM      6  N   UNN dAMED       2.709   0.060   0.649  0.00  0.00    -0.137 NA
ATOM      7  C   UNN dAMED      -0.858   0.071  -0.081  0.00  0.00     0.035 A 
ATOM      8  C   UNN dAMED      -1.579   0.276   1.099  0.00  0.00     0.003 A 
ATOM      9  C   UNN dAMED      -2.959   0.470   1.063  0.00  0.00     0.000 A 
ATOM     10  C   UNN dAMED      -3.633   0.454  -0.156  0.00  0.00     0.000 A 
ATOM     11  C   UNN dAMED      -2.925   0.246  -1.336  0.00  0.00     0.000 A 
ATOM     12  C   UNN dAMED      -1.545   0.056  -1.297  0.00  0.00     0.003 A 
ATOM     13  N   UNN dAMED       3.692  -1.311  -1.079  0.00  0.00    -0.058 NA
ENDROOT
TORSDOF 0
