REMARK  3 active torsions:
REMARK  status: ('A' for Active; 'I' for Inactive)
REMARK    1  A    between atoms: C_2  and  N_16 
REMARK    2  A    between atoms: C_6  and  O_11 
REMARK    3  A    between atoms: C_7  and  N_20 
REMARK       I    between atoms: C_13  and  N_16 
REMARK       I    between atoms: C_17  and  N_20 
ROOT
ATOM      1  N   UNN dAMED      -1.606   2.444  -0.362  0.00  0.00    -0.242 NA
ATOM      2  C   UNN dAMED      -1.516   0.109   0.138  0.00  0.00     0.104 A 
ATOM      3  C   UNN dAMED      -0.894   1.368   0.043  0.00  0.00     0.101 A 
ATOM      4  C   UNN dAMED      -0.757  -0.987   0.567  0.00  0.00     0.046 A 
ATOM      5  C   UNN dAMED       0.477   1.490   0.392  0.00  0.00     0.039 A 
ATOM      6  C   UNN dAMED       0.586  -0.856   0.890  0.00  0.00     0.113 A 
ATOM      7  C   UNN dAMED       1.248   0.374   0.816  0.00  0.00     0.108 A 
ATOM      8  C   UNN dAMED       1.044   2.772   0.311  0.00  0.00     0.005 A 
ATOM      9  C   UNN dAMED      -1.000   3.650  -0.434  0.00  0.00     0.099 A 
ATOM     10  C   UNN dAMED       0.316   3.872  -0.105  0.00  0.00     0.021 A 
ENDROOT
BRANCH   2  11
ATOM     11  N   UNN dAMED      -2.844  -0.060  -0.055  0.00  0.00    -0.210 NA
ATOM     12  C   UNN dAMED      -3.125  -0.316  -1.330  0.00  0.00     0.256 C 
ATOM     13  O   UNN dAMED      -4.121   0.055  -1.937  0.00  0.00    -0.270 OA
ATOM     14  C   UNN dAMED      -2.179  -1.227  -2.064  0.00  0.00     0.100 C 
ENDBRANCH   2  11
BRANCH   6  15
ATOM     15  O   UNN dAMED       1.246  -1.981   1.305  0.00  0.00    -0.327 OA
ATOM     16  C   UNN dAMED       0.499  -2.468   2.380  0.00  0.00     0.181 C 
ENDBRANCH   6  15
BRANCH   7  17
ATOM     17  N   UNN dAMED       2.547   0.487   1.192  0.00  0.00    -0.210 NA
ATOM     18  C   UNN dAMED       3.346   0.417   0.130  0.00  0.00     0.256 C 
ATOM     19  O   UNN dAMED       4.527   0.094   0.130  0.00  0.00    -0.270 OA
ATOM     20  C   UNN dAMED       2.751   0.842  -1.184  0.00  0.00     0.100 C 
ENDBRANCH   7  17
TORSDOF 3
