REMARK  6 active torsions:
REMARK  status: ('A' for Active; 'I' for Inactive)
REMARK    1  A    between atoms: C_6  and  C_7 
REMARK    2  A    between atoms: C_8  and  P_10 
REMARK    3  A    between atoms: P_10  and  O_14 
REMARK    4  A    between atoms: P_10  and  O_15 
REMARK    5  A    between atoms: O_14  and  C_18 
REMARK    6  A    between atoms: O_15  and  C_16 
ROOT
ATOM      1  C   UNN dAMED      -0.493  -0.072   0.559  0.00  0.00     0.018 C 
ATOM      2  C   UNN dAMED       0.440  -0.432  -0.335  0.00  0.00     0.148 C 
ATOM      3  C   UNN dAMED       0.131  -0.738  -1.686  0.00  0.00     0.108 C 
ATOM      4  N   UNN dAMED      -0.123  -0.984  -2.791  0.00  0.00    -0.191 NA
ENDROOT
BRANCH   2   5
ATOM      5  P   UNN dAMED       2.068  -0.700   0.220  0.00  0.00     0.375 P 
ATOM      6  O   UNN dAMED       2.553  -2.047   0.693  0.00  0.00    -0.252 OA
BRANCH   5   7
ATOM      7  O   UNN dAMED       3.035  -0.110  -0.948  0.00  0.00    -0.291 OA
BRANCH   7   8
ATOM      8  C   UNN dAMED       2.956  -1.038  -1.989  0.00  0.00     0.152 C 
ATOM      9  C   UNN dAMED       1.643  -1.213  -2.757  0.00  0.00     0.035 C 
ENDBRANCH   7   8
ENDBRANCH   5   7
BRANCH   5  10
ATOM     10  O   UNN dAMED       2.289   0.433   1.366  0.00  0.00    -0.291 OA
BRANCH  10  11
ATOM     11  C   UNN dAMED       1.703  -0.094   2.519  0.00  0.00     0.152 C 
ATOM     12  C   UNN dAMED       1.926   0.594   3.869  0.00  0.00     0.035 C 
ENDBRANCH  10  11
ENDBRANCH   5  10
ENDBRANCH   2   5
BRANCH   1  13
ATOM     13  C   UNN dAMED      -1.973   0.092   0.274  0.00  0.00     0.001 A 
ATOM     14  C   UNN dAMED      -2.842  -0.983   0.466  0.00  0.00     0.001 A 
ATOM     15  C   UNN dAMED      -4.210  -0.823   0.256  0.00  0.00     0.007 A 
ATOM     16  C   UNN dAMED      -4.702   0.418  -0.135  0.00  0.00     0.035 A 
ATOM     17  C   UNN dAMED      -3.847   1.500  -0.318  0.00  0.00     0.007 A 
ATOM     18 BR   UNN dAMED      -6.552   0.638  -0.413  0.00  0.00    -0.049 Br
ATOM     19  C   UNN dAMED      -2.479   1.336  -0.107  0.00  0.00     0.001 A 
ENDBRANCH   1  13
TORSDOF 6
