REMARK  6 active torsions:
REMARK  status: ('A' for Active; 'I' for Inactive)
REMARK    1  A    between atoms: O_1  and  C_2 
REMARK    2  A    between atoms: O_1  and  C_15 
REMARK    3  A    between atoms: C_7  and  N_19 
REMARK       I    between atoms: C_8  and  N_19 
REMARK       I    between atoms: C_8  and  N_20 
REMARK    4  A    between atoms: C_10  and  N_20 
REMARK    5  A    between atoms: C_15  and  C_16 
REMARK    6  A    between atoms: C_16  and  C_17 
ROOT
ATOM      1  C   UNN dAMED      -3.210   0.654  -0.913  0.00  0.00     0.094 A 
ATOM      2  C   UNN dAMED      -2.464   0.036   0.079  0.00  0.00     0.026 A 
ATOM      3  C   UNN dAMED      -2.596   1.227  -2.013  0.00  0.00     0.026 A 
ATOM      4  C   UNN dAMED      -1.072  -0.008  -0.038  0.00  0.00     0.021 A 
ATOM      5  C   UNN dAMED      -1.202   1.169  -2.106  0.00  0.00     0.021 A 
ATOM      6  C   UNN dAMED      -0.395   0.559  -1.127  0.00  0.00     0.086 A 
ENDROOT
BRANCH   6   7
ATOM      7  N   UNN dAMED       0.945   0.512  -1.343  0.00  0.00    -0.191 NA
ATOM      8  C   UNN dAMED       1.759   0.066  -0.349  0.00  0.00     0.370 C 
ATOM      9  O   UNN dAMED       1.672  -1.034   0.194  0.00  0.00    -0.242 OA
ATOM     10  N   UNN dAMED       2.767   0.960  -0.212  0.00  0.00    -0.164 NA
BRANCH  10  11
ATOM     11  C   UNN dAMED       3.632   0.853   0.826  0.00  0.00     0.220 A 
ATOM     12  N   UNN dAMED       3.474   0.312   2.022  0.00  0.00    -0.121 NA
ATOM     13  N   UNN dAMED       4.603   0.461   2.828  0.00  0.00    -0.144 NA
ATOM     14  C   UNN dAMED       5.538   1.131   2.201  0.00  0.00     0.113 A 
ATOM     15  S   UNN dAMED       5.173   1.626   0.626  0.00  0.00    -0.030 SA
ATOM     16  C   UNN dAMED       6.855   1.462   2.844  0.00  0.00     0.061 C 
ENDBRANCH  10  11
ENDBRANCH   6   7
BRANCH   1  17
ATOM     17  O   UNN dAMED      -4.565   0.699  -0.787  0.00  0.00    -0.331 OA
BRANCH  17  18
ATOM     18  C   UNN dAMED      -4.800   0.448   0.567  0.00  0.00     0.149 C 
BRANCH  18  19
ATOM     19  C   UNN dAMED      -4.540  -0.950   1.139  0.00  0.00     0.033 C 
BRANCH  19  20
ATOM     20  C   UNN dAMED      -3.369  -1.193   2.097  0.00  0.00     0.003 C 
ATOM     21  C   UNN dAMED      -3.003  -2.624   2.504  0.00  0.00     0.000 C 
ENDBRANCH  19  20
ENDBRANCH  18  19
ENDBRANCH  17  18
ENDBRANCH   1  17
TORSDOF 6
