REMARK  4 active torsions:
REMARK  status: ('A' for Active; 'I' for Inactive)
REMARK    1  A    between atoms: C_2  and  O_21 
REMARK    2  A    between atoms: C_7  and  N_24 
REMARK    3  A    between atoms: C_8  and  N_24 
REMARK    4  A    between atoms: O_21  and  C_22 
ROOT
ATOM      1  N   UNN dAMED      -3.431  -0.512  -0.897  0.00  0.00    -0.245 NA
ATOM      2  C   UNN dAMED      -1.152   0.147   0.618  0.00  0.00     0.084 A 
ATOM      3  C   UNN dAMED      -1.396  -1.188   0.201  0.00  0.00     0.035 A 
ATOM      4  C   UNN dAMED      -0.530  -2.255   0.516  0.00  0.00     0.003 A 
ATOM      5  C   UNN dAMED      -0.785  -3.556   0.096  0.00  0.00     0.000 A 
ATOM      6  C   UNN dAMED      -2.113   1.133   0.270  0.00  0.00     0.035 A 
ATOM      7  C   UNN dAMED      -1.993   2.483   0.658  0.00  0.00     0.003 A 
ATOM      8  C   UNN dAMED      -2.939   3.435   0.295  0.00  0.00     0.000 A 
ATOM      9  C   UNN dAMED      -1.923  -3.812  -0.650  0.00  0.00     0.002 A 
ATOM     10  C   UNN dAMED      -2.549  -1.461  -0.557  0.00  0.00     0.083 A 
ATOM     11  C   UNN dAMED      -3.229   0.750  -0.497  0.00  0.00     0.083 A 
ATOM     12  C   UNN dAMED      -4.030   3.047  -0.466  0.00  0.00     0.002 A 
ATOM     13  C   UNN dAMED      -2.787  -2.766  -0.966  0.00  0.00     0.019 A 
ATOM     14  C   UNN dAMED      -4.162   1.715  -0.851  0.00  0.00     0.019 A 
ENDROOT
BRANCH   2  15
ATOM     15  N   UNN dAMED      -0.066   0.455   1.381  0.00  0.00    -0.245 NA
BRANCH  15  16
ATOM     16  C   UNN dAMED       1.046   0.872   0.724  0.00  0.00     0.082 A 
ATOM     17  C   UNN dAMED       1.184   0.959  -0.674  0.00  0.00     0.021 A 
ATOM     18  C   UNN dAMED       2.358   1.405  -1.280  0.00  0.00     0.026 A 
ATOM     19  C   UNN dAMED       3.428   1.769  -0.479  0.00  0.00     0.094 A 
ATOM     20  C   UNN dAMED       3.347   1.695   0.903  0.00  0.00     0.026 A 
ATOM     21  C   UNN dAMED       2.161   1.250   1.487  0.00  0.00     0.021 A 
BRANCH  19  22
ATOM     22  O   UNN dAMED       4.578   2.211  -1.059  0.00  0.00    -0.331 OA
BRANCH  22  23
ATOM     23  C   UNN dAMED       5.295   2.818  -0.026  0.00  0.00     0.149 C 
ATOM     24  C   UNN dAMED       4.547   3.515   1.115  0.00  0.00     0.035 C 
ENDBRANCH  22  23
ENDBRANCH  19  22
ENDBRANCH  15  16
ENDBRANCH   2  15
TORSDOF 4
