REMARK  3 active torsions:
REMARK  status: ('A' for Active; 'I' for Inactive)
REMARK    1  A    between atoms: N_1  and  C_11 
REMARK    2  A    between atoms: N_2  and  C_4 
REMARK    3  A    between atoms: C_13  and  S_15 
ROOT
ATOM      1  C   UNN dAMED       1.030   1.601  -0.043  0.00  0.00     0.022 A 
ATOM      2  C   UNN dAMED       2.364   1.445  -0.409  0.00  0.00     0.015 A 
ATOM      3  C   UNN dAMED       0.372   0.609   0.695  0.00  0.00     0.103 A 
ATOM      4  C   UNN dAMED       1.082  -0.523   1.107  0.00  0.00     0.022 A 
ATOM      5  C   UNN dAMED       3.037   0.294  -0.017  0.00  0.00     0.104 A 
ATOM      6  C   UNN dAMED       2.418  -0.688   0.751  0.00  0.00     0.015 A 
ENDROOT
BRANCH   3   7
ATOM      7  N   UNN dAMED      -0.961   0.791   1.094  0.00  0.00    -0.148 NA
ATOM      8  N   UNN dAMED      -1.731   0.500   0.153  0.00  0.00    -0.148 NA
BRANCH   8   9
ATOM      9  C   UNN dAMED      -3.085   0.730   0.468  0.00  0.00     0.103 A 
ATOM     10  C   UNN dAMED      -3.520   1.342   1.650  0.00  0.00     0.021 A 
ATOM     11  C   UNN dAMED      -4.874   1.576   1.885  0.00  0.00     0.002 A 
ATOM     12  C   UNN dAMED      -5.816   1.205   0.931  0.00  0.00     0.000 A 
ATOM     13  C   UNN dAMED      -5.403   0.598  -0.251  0.00  0.00     0.002 A 
ATOM     14  C   UNN dAMED      -4.047   0.365  -0.477  0.00  0.00     0.021 A 
ENDBRANCH   8   9
ENDBRANCH   3   7
BRANCH   5  15
ATOM     15  S   UNN dAMED       4.738   0.062  -0.503  0.00  0.00     0.139 S 
ATOM     16  O   UNN dAMED       4.921   1.043  -1.569  0.00  0.00    -0.591 OA
ATOM     17  O   UNN dAMED       4.753  -1.333  -0.936  0.00  0.00    -0.591 OA
ATOM     18  O   UNN dAMED       5.449   0.346   0.739  0.00  0.00    -0.591 OA
ENDBRANCH   5  15
TORSDOF 3
