REMARK  0 active torsions:
REMARK  status: ('A' for Active; 'I' for Inactive)
ROOT
ATOM      1  N   UNN dAMED       2.034   0.990   0.000  0.00  0.00    -0.212 NA
ATOM      2  N   UNN dAMED      -0.262   1.751   0.000  0.00  0.00    -0.207 NA
ATOM      3 CL   UNN dAMED       2.782  -1.518   0.000  0.00  0.00    -0.061 Cl
ATOM      4  H   UNN dAMED      -2.702   0.540  -0.000  0.00  0.00     0.167 HD
ATOM      5  N   UNN dAMED      -1.872  -0.035  -0.000  0.00  0.00    -0.338 N 
ATOM      6  C   UNN dAMED      -1.839  -1.404  -0.000  0.00  0.00     0.074 A 
ATOM      7  C   UNN dAMED      -0.519  -1.797  -0.000  0.00  0.00     0.024 A 
ATOM      8  C   UNN dAMED       0.278  -0.626   0.000  0.00  0.00     0.064 A 
ATOM      9  C   UNN dAMED      -0.594   0.451  -0.000  0.00  0.00     0.145 A 
ATOM     10  C   UNN dAMED       1.619  -0.284   0.000  0.00  0.00     0.143 A 
ATOM     11  C   UNN dAMED       1.074   1.930   0.000  0.00  0.00     0.201 A 
ENDROOT
TORSDOF 0
