REMARK  1 active torsions:
REMARK  status: ('A' for Active; 'I' for Inactive)
REMARK    1  A    between atoms: C_4  and  N_24 
ROOT
ATOM      1  C   UNN dAMED      -4.334  -0.288  -1.346  0.00  0.00     0.002 A 
ATOM      2  C   UNN dAMED      -5.107   0.245  -0.317  0.00  0.00     0.024 A 
ATOM      3  C   UNN dAMED      -2.953  -0.421  -1.193  0.00  0.00     0.003 A 
ATOM      4  C   UNN dAMED      -4.466   0.632   0.857  0.00  0.00     0.127 A 
ATOM      5  C   UNN dAMED       0.063   3.096  -1.190  0.00  0.00    -0.004 C 
ATOM      6  C   UNN dAMED      -0.716   2.188  -0.614  0.00  0.00     0.079 C 
ATOM      7  C   UNN dAMED      -2.353  -0.019   0.002  0.00  0.00     0.038 A 
ATOM      8  C   UNN dAMED      -3.096   0.514   1.051  0.00  0.00     0.027 A 
ATOM      9  N   UNN dAMED      -0.140   0.914  -0.235  0.00  0.00    -0.274 N 
ATOM     10  C   UNN dAMED      -0.901  -0.163   0.158  0.00  0.00     0.178 C 
ATOM     11  C   UNN dAMED       1.506   2.808  -1.566  0.00  0.00     0.000 C 
ATOM     12  N   UNN dAMED      -0.472  -1.293   0.643  0.00  0.00    -0.087 NA
ATOM     13  C   UNN dAMED       1.283   0.763  -0.230  0.00  0.00     0.159 C 
ATOM     14  C   UNN dAMED       2.075   1.669  -1.172  0.00  0.00     0.038 C 
ATOM     15  O   UNN dAMED       0.925  -1.389   0.864  0.00  0.00    -0.119 OA
ATOM     16  N   UNN dAMED       1.752  -0.569   0.080  0.00  0.00    -0.158 N 
ATOM     17  C   UNN dAMED       3.151  -0.776   0.231  0.00  0.00     0.172 A 
ATOM     18  C   UNN dAMED       3.991   0.171  -0.351  0.00  0.00     0.039 A 
ATOM     19  C   UNN dAMED       5.368   0.026  -0.221  0.00  0.00     0.000 A 
ATOM     20  N   UNN dAMED       3.640  -1.842   0.916  0.00  0.00    -0.225 NA
ATOM     21  C   UNN dAMED       4.983  -1.954   1.028  0.00  0.00     0.096 A 
ATOM     22  C   UNN dAMED       5.878  -1.054   0.483  0.00  0.00    -0.003 A 
ATOM     23  C   UNN dAMED      -0.123   4.491  -1.715  0.00  0.00     0.033 C 
ATOM     24  C   UNN dAMED       7.354  -1.198   0.711  0.00  0.00     0.033 C 
ENDROOT
BRANCH   4  25
ATOM     25  N   UNN dAMED      -5.258   1.189   1.912  0.00  0.00    -0.114 N 
ATOM     26  O   UNN dAMED      -5.734   0.395   2.733  0.00  0.00    -0.532 OA
ATOM     27  O   UNN dAMED      -5.399   2.418   1.916  0.00  0.00    -0.532 OA
ENDBRANCH   4  25
TORSDOF 1
