REMARK  0 active torsions:
REMARK  status: ('A' for Active; 'I' for Inactive)
ROOT
ATOM      1  N   UNN dAMED       0.007  -0.006   0.133  0.00  0.00     0.235 N 
ATOM      2  C   UNN dAMED      -1.336  -2.463  -0.560  0.00  0.00     0.297 C 
ATOM      3  C   UNN dAMED      -2.168  -1.268  -0.128  0.00  0.00     0.110 C 
ATOM      4  C   UNN dAMED      -1.430   0.064  -0.136  0.00  0.00     0.477 C 
ATOM      5  C   UNN dAMED       0.649  -1.249  -0.293  0.00  0.00     0.477 C 
ATOM      6  C   UNN dAMED       2.171  -1.224  -0.338  0.00  0.00     0.110 C 
ATOM      7  C   UNN dAMED       2.778   0.133  -0.654  0.00  0.00     0.297 C 
ATOM      8  C   UNN dAMED      -1.519   2.395  -0.349  0.00  0.00     0.297 C 
ATOM      9  C   UNN dAMED      -0.029   2.514  -0.075  0.00  0.00     0.110 C 
ATOM     10  C   UNN dAMED       0.750   1.211  -0.195  0.00  0.00     0.477 C 
ATOM     11  N   UNN dAMED      -2.193   1.253   0.240  0.00  0.00     0.371 N 
ATOM     12  N   UNN dAMED       2.194   1.274   0.026  0.00  0.00     0.371 N 
ATOM     13  N   UNN dAMED       0.010  -2.537  -0.026  0.00  0.00     0.371 N 
ENDROOT
TORSDOF 0
