REMARK  1 active torsions:
REMARK  status: ('A' for Active; 'I' for Inactive)
REMARK    1  A    between atoms: C_8  and  N_18 
ROOT
ATOM      1 CL   UNN dAMED       1.814   3.892   0.278  0.00  0.00    -0.041 Cl
ATOM      2  N   UNN dAMED       0.974   3.028   2.579  0.00  0.00    -0.204 NA
ATOM      3  N   UNN dAMED       0.252   1.841   0.574  0.00  0.00    -0.203 NA
ATOM      4  N   UNN dAMED      -1.127   0.082   3.362  0.00  0.00    -0.218 NA
ATOM      5  N   UNN dAMED      -1.157  -0.057   1.132  0.00  0.00    -0.167 NA
ATOM      6 CL   UNN dAMED      -2.583  -1.937   2.313  0.00  0.00    -0.049 Cl
ATOM      7  O   UNN dAMED      -2.315   0.965  -0.790  0.00  0.00    -0.341 OA
ATOM      8  C   UNN dAMED       0.306   2.177   3.410  0.00  0.00     0.143 A 
ATOM      9  C   UNN dAMED      -0.390   1.111   2.820  0.00  0.00     0.141 A 
ATOM     10  C   UNN dAMED      -0.381   1.028   1.433  0.00  0.00     0.150 A 
ATOM     11  C   UNN dAMED      -1.546  -0.594   2.321  0.00  0.00     0.187 A 
ATOM     12  C   UNN dAMED       0.911   2.803   1.247  0.00  0.00     0.226 A 
ATOM     13  C   UNN dAMED      -3.495   1.299  -1.459  0.00  0.00     0.144 C 
ATOM     14  C   UNN dAMED      -4.692   1.752  -0.624  0.00  0.00     0.032 C 
ATOM     15  C   UNN dAMED      -4.888   0.948   0.652  0.00  0.00     0.007 C 
ATOM     16  C   UNN dAMED      -3.580   0.658   1.378  0.00  0.00     0.048 C 
ATOM     17  C   UNN dAMED      -2.354   0.392   0.492  0.00  0.00     0.187 C 
ENDROOT
BRANCH   8  18
ATOM     18  N   UNN dAMED       0.314   2.373   4.800  0.00  0.00    -0.233 NA
ATOM     19  C   UNN dAMED      -0.799   1.881   5.609  0.00  0.00     0.096 C 
ATOM     20  C   UNN dAMED       0.583   3.703   5.340  0.00  0.00     0.096 C 
ENDBRANCH   8  18
TORSDOF 1
