REMARK  3 active torsions:
REMARK  status: ('A' for Active; 'I' for Inactive)
REMARK    1  A    between atoms: O_1  and  C_3 
REMARK    2  A    between atoms: O_1  and  C_20 
REMARK       I    between atoms: C_3  and  N_22 
REMARK    3  A    between atoms: C_5  and  N_22 
ROOT
ATOM      1  C   UNN dAMED       2.216   1.178   0.085  0.00  0.00     0.021 A 
ATOM      2  C   UNN dAMED       2.555  -0.177   0.136  0.00  0.00     0.087 A 
ATOM      3  C   UNN dAMED       0.893   1.611  -0.052  0.00  0.00     0.021 A 
ATOM      4  C   UNN dAMED       1.519  -1.122   0.074  0.00  0.00     0.027 A 
ATOM      5  C   UNN dAMED       0.189  -0.691  -0.049  0.00  0.00     0.051 A 
ATOM      6  C   UNN dAMED      -0.143   0.660  -0.108  0.00  0.00     0.090 A 
ATOM      7  N   UNN dAMED      -1.502   0.927  -0.192  0.00  0.00    -0.222 NA
ATOM      8  C   UNN dAMED      -2.199  -0.191  -0.183  0.00  0.00     0.172 A 
ATOM      9  S   UNN dAMED      -1.247  -1.629  -0.135  0.00  0.00    -0.049 SA
ATOM     10  N   UNN dAMED      -3.559  -0.276  -0.197  0.00  0.00    -0.329 N 
ATOM     11  C   UNN dAMED      -4.201  -1.197   0.727  0.00  0.00     0.103 C 
ATOM     12  C   UNN dAMED      -4.290   0.461  -1.211  0.00  0.00     0.103 C 
ATOM     13  C   UNN dAMED      -5.673  -1.036   1.130  0.00  0.00     0.024 C 
ATOM     14  C   UNN dAMED      -5.498  -0.159  -1.924  0.00  0.00     0.024 C 
ATOM     15  C   UNN dAMED      -6.802  -0.369  -1.153  0.00  0.00     0.002 C 
ATOM     16  C   UNN dAMED      -6.780  -1.249   0.094  0.00  0.00     0.002 C 
ENDROOT
BRANCH   2  17
ATOM     17  N   UNN dAMED       3.837  -0.577   0.288  0.00  0.00    -0.186 NA
ATOM     18  C   UNN dAMED       4.517  -0.554  -0.859  0.00  0.00     0.388 C 
ATOM     19  O   UNN dAMED       4.194  -1.022  -1.947  0.00  0.00    -0.236 OA
BRANCH  18  20
ATOM     20  O   UNN dAMED       5.728   0.049  -0.688  0.00  0.00    -0.283 OA
BRANCH  20  21
ATOM     21  C   UNN dAMED       6.211   0.235  -1.986  0.00  0.00     0.154 C 
ATOM     22  C   UNN dAMED       7.662   0.666  -2.223  0.00  0.00     0.035 C 
ENDBRANCH  20  21
ENDBRANCH  18  20
ENDBRANCH   2  17
TORSDOF 3
