REMARK  15 active torsions:
REMARK  status: ('A' for Active; 'I' for Inactive)
REMARK    1  A    between atoms: C_1  and  O_3 
REMARK    2  A    between atoms: O_3  and  C_4 
REMARK    3  A    between atoms: C_4  and  C_6 
REMARK    4  A    between atoms: C_6  and  C_7 
REMARK       I    between atoms: C_7  and  N_9 
REMARK    5  A    between atoms: N_9  and  C_10 
REMARK    6  A    between atoms: C_10  and  C_13 
REMARK    7  A    between atoms: C_13  and  C_14 
REMARK    8  A    between atoms: C_14  and  C_15 
REMARK    9  A    between atoms: C_15  and  C_16 
REMARK   10  A    between atoms: C_16  and  C_17 
REMARK   11  A    between atoms: C_17  and  N_20 
REMARK       I    between atoms: N_20  and  C_21 
REMARK   12  A    between atoms: C_21  and  C_23 
REMARK   13  A    between atoms: C_23  and  C_24 
REMARK   14  A    between atoms: C_24  and  O_26 
REMARK   15  A    between atoms: O_26  and  C_27 
ROOT
ATOM      1  C   UNN dAMED      -7.840  -5.563  -0.628  0.00  0.00     0.002 C 
ENDROOT
BRANCH   1   2
ATOM      2  C   UNN dAMED      -7.410  -5.608   0.845  0.00  0.00     0.023 C 
BRANCH   2   3
ATOM      3  C   UNN dAMED      -8.096  -4.746   1.897  0.00  0.00     0.088 C 
ATOM      4  C   UNN dAMED      -9.585  -5.032   2.175  0.00  0.00     0.025 C 
ATOM      5  C   UNN dAMED      -7.754  -4.976   3.380  0.00  0.00     0.025 C 
BRANCH   3   6
ATOM      6  N   UNN dAMED      -7.933  -3.342   1.589  0.00  0.00    -0.241 NA
ATOM      7  C   UNN dAMED      -6.652  -2.982   1.667  0.00  0.00     0.261 C 
ATOM      8  O   UNN dAMED      -5.854  -3.273   2.552  0.00  0.00    -0.270 OA
BRANCH   7   9
ATOM      9  C   UNN dAMED      -6.220  -1.883   0.725  0.00  0.00     0.185 C 
BRANCH   9  10
ATOM     10  C   UNN dAMED      -6.198  -2.086  -0.767  0.00  0.00     0.281 C 
ATOM     11  O   UNN dAMED      -5.277  -2.725  -1.257  0.00  0.00    -0.264 OA
BRANCH  10  12
ATOM     12  O   UNN dAMED      -7.228  -1.589  -1.501  0.00  0.00    -0.301 OA
BRANCH  12  13
ATOM     13  C   UNN dAMED      -7.074  -2.156  -2.768  0.00  0.00     0.152 C 
ATOM     14  C   UNN dAMED      -7.984  -3.306  -3.208  0.00  0.00     0.035 C 
ENDBRANCH  12  13
ENDBRANCH  10  12
ENDBRANCH   9  10
ENDBRANCH   7   9
ENDBRANCH   3   6
ENDBRANCH   2   3
ENDBRANCH   1   2
BRANCH   1  15
ATOM     15  C   UNN dAMED      -7.057  -4.698  -1.626  0.00  0.00     0.002 C 
BRANCH  15  16
ATOM     16  C   UNN dAMED      -6.256  -5.333  -2.775  0.00  0.00     0.023 C 
BRANCH  16  17
ATOM     17  C   UNN dAMED      -4.829  -5.864  -2.542  0.00  0.00     0.088 C 
ATOM     18  C   UNN dAMED      -4.555  -7.353  -2.676  0.00  0.00     0.025 C 
ATOM     19  C   UNN dAMED      -4.802  -5.294  -1.112  0.00  0.00     0.025 C 
BRANCH  17  20
ATOM     20  N   UNN dAMED      -3.884  -5.128  -3.351  0.00  0.00    -0.241 NA
ATOM     21  C   UNN dAMED      -4.459  -4.712  -4.475  0.00  0.00     0.261 C 
ATOM     22  O   UNN dAMED      -5.213  -3.752  -4.592  0.00  0.00    -0.270 OA
BRANCH  21  23
ATOM     23  C   UNN dAMED      -3.962  -5.341  -5.761  0.00  0.00     0.185 C 
BRANCH  23  24
ATOM     24  C   UNN dAMED      -2.574  -5.070  -6.299  0.00  0.00     0.281 C 
ATOM     25  O   UNN dAMED      -1.920  -4.149  -5.826  0.00  0.00    -0.264 OA
BRANCH  24  26
ATOM     26  O   UNN dAMED      -2.069  -5.899  -7.251  0.00  0.00    -0.301 OA
BRANCH  26  27
ATOM     27  C   UNN dAMED      -0.716  -5.553  -7.326  0.00  0.00     0.152 C 
ATOM     28  C   UNN dAMED       0.195  -6.194  -8.377  0.00  0.00     0.035 C 
ENDBRANCH  26  27
ENDBRANCH  24  26
ENDBRANCH  23  24
ENDBRANCH  21  23
ENDBRANCH  17  20
ENDBRANCH  16  17
ENDBRANCH  15  16
ENDBRANCH   1  15
TORSDOF 15
