REMARK  4 active torsions:
REMARK  status: ('A' for Active; 'I' for Inactive)
REMARK    1  A    between atoms: C_3  and  C_10 
REMARK    2  A    between atoms: C_6  and  N_7 
REMARK       I    between atoms: C_10  and  N_12 
REMARK    3  A    between atoms: N_12  and  C_13 
REMARK    4  A    between atoms: N_12  and  C_16 
ROOT
ATOM      1  C   UNN dAMED      -0.154  -1.354  -0.081  0.00  0.00     0.005 A 
ATOM      2  C   UNN dAMED      -1.357  -2.049  -0.207  0.00  0.00     0.002 A 
ATOM      3  C   UNN dAMED      -0.169   0.041  -0.008  0.00  0.00     0.058 A 
ATOM      4  C   UNN dAMED      -1.359   0.761  -0.031  0.00  0.00     0.028 A 
ATOM      5  C   UNN dAMED      -2.565  -1.356  -0.256  0.00  0.00     0.024 A 
ATOM      6  C   UNN dAMED      -2.534   0.033  -0.161  0.00  0.00     0.127 A 
ENDROOT
BRANCH   3   7
ATOM      7  C   UNN dAMED       1.091   0.757   0.169  0.00  0.00     0.264 C 
ATOM      8  O   UNN dAMED       1.518   0.979   1.295  0.00  0.00    -0.267 OA
ATOM      9  N   UNN dAMED       1.691   1.119  -1.013  0.00  0.00    -0.290 N 
BRANCH   9  10
ATOM     10  C   UNN dAMED       2.940   1.677  -0.672  0.00  0.00     0.022 C 
ATOM     11  C   UNN dAMED       3.585   1.312   0.669  0.00  0.00     0.046 C 
ATOM     12  C   UNN dAMED       3.492   2.859  -1.476  0.00  0.00     0.046 C 
ENDBRANCH   9  10
BRANCH   9  13
ATOM     13  C   UNN dAMED       0.885   0.604  -2.048  0.00  0.00     0.022 C 
ATOM     14  C   UNN dAMED       1.332   0.756  -3.506  0.00  0.00     0.046 C 
ATOM     15  C   UNN dAMED      -0.243  -0.373  -1.705  0.00  0.00     0.046 C 
ENDBRANCH   9  13
ENDBRANCH   3   7
BRANCH   6  16
ATOM     16  N   UNN dAMED      -3.777   0.746  -0.210  0.00  0.00    -0.114 N 
ATOM     17  O   UNN dAMED      -4.498   0.684   0.793  0.00  0.00    -0.532 OA
ATOM     18  O   UNN dAMED      -4.028   1.363  -1.252  0.00  0.00    -0.532 OA
ENDBRANCH   6  16
TORSDOF 4
