REMARK  0 active torsions:
REMARK  status: ('A' for Active; 'I' for Inactive)
ROOT
ATOM      1  N   UNN dAMED       3.108   0.024   0.049  0.00  0.00    -0.215 NA
ATOM      2  C   UNN dAMED       2.814   0.512   1.296  0.00  0.00     0.120 A 
ATOM      3  C   UNN dAMED       1.949  -0.211  -0.541  0.00  0.00     0.206 A 
ATOM      4  C   UNN dAMED       1.454   0.581   1.484  0.00  0.00     0.103 A 
ATOM      5  N   UNN dAMED       0.904   0.121   0.312  0.00  0.00    -0.279 N 
ATOM      6  C   UNN dAMED      -0.484   0.035   0.090  0.00  0.00     0.087 A 
ATOM      7 CL   UNN dAMED      -0.410  -2.527   1.099  0.00  0.00    -0.081 Cl
ATOM      8 CL   UNN dAMED      -0.410   2.614  -0.877  0.00  0.00    -0.081 Cl
ATOM      9  C   UNN dAMED      -1.176  -1.137   0.424  0.00  0.00     0.075 A 
ATOM     10  C   UNN dAMED      -1.176   1.129  -0.448  0.00  0.00     0.075 A 
ATOM     11  C   UNN dAMED      -2.551  -1.211   0.209  0.00  0.00     0.013 A 
ATOM     12  C   UNN dAMED      -2.551   1.040  -0.657  0.00  0.00     0.013 A 
ATOM     13  C   UNN dAMED      -3.237  -0.126  -0.331  0.00  0.00     0.002 A 
ATOM     14  S   UNN dAMED       1.766  -0.831  -2.116  0.00  0.00    -0.038 SA
ENDROOT
TORSDOF 0
