REMARK  0 active torsions:
REMARK  status: ('A' for Active; 'I' for Inactive)
ROOT
ATOM      1  C   UNN dAMED       0.666   1.091  -1.101  0.00  0.00     0.007 A 
ATOM      2  C   UNN dAMED       1.969   1.546  -1.234  0.00  0.00     0.000 A 
ATOM      3  C   UNN dAMED      -2.881  -1.054  -0.809  0.00  0.00     0.248 A 
ATOM      4  C   UNN dAMED      -1.083  -0.220  -0.050  0.00  0.00     0.208 A 
ATOM      5  C   UNN dAMED       0.314   0.171  -0.098  0.00  0.00     0.082 A 
ATOM      6  C   UNN dAMED       2.932   1.087  -0.354  0.00  0.00     0.003 A 
ATOM      7  C   UNN dAMED       1.270  -0.329   0.827  0.00  0.00     0.199 A 
ATOM      8  C   UNN dAMED       2.573   0.174   0.641  0.00  0.00     0.042 A 
ATOM      9  N   UNN dAMED      -2.006   0.014   0.857  0.00  0.00    -0.121 NA
ATOM     10  O   UNN dAMED      -1.559  -0.904  -1.135  0.00  0.00    -0.265 OA
ATOM     11  N   UNN dAMED      -3.175  -0.530   0.364  0.00  0.00    -0.117 NA
ATOM     12  O   UNN dAMED       1.017  -1.160   1.764  0.00  0.00    -0.286 OA
ENDROOT
TORSDOF 0
