REMARK  3 active torsions:
REMARK  status: ('A' for Active; 'I' for Inactive)
REMARK    1  A    between atoms: C_2  and  N_13 
REMARK    2  A    between atoms: C_5  and  S_6 
REMARK    3  A    between atoms: S_6  and  C_8 
ROOT
ATOM      1  C   UNN dAMED       1.930  -1.009  -0.390  0.00  0.00     0.130 A 
ATOM      2  C   UNN dAMED       2.655   0.014   0.155  0.00  0.00     0.177 A 
ATOM      3  N   UNN dAMED       0.706  -0.626  -0.902  0.00  0.00    -0.229 NA
ATOM      4  S   UNN dAMED       1.832   1.486   0.082  0.00  0.00    -0.036 SA
ATOM      5  C   UNN dAMED       0.541   0.671  -0.727  0.00  0.00     0.143 A 
ENDROOT
BRANCH   5   6
ATOM      6  S   UNN dAMED      -0.871   1.553  -1.294  0.00  0.00    -0.042 SA
BRANCH   6   7
ATOM      7  C   UNN dAMED      -1.913   0.187  -1.764  0.00  0.00     0.116 A 
ATOM      8  C   UNN dAMED      -2.157  -0.030  -3.108  0.00  0.00     0.047 A 
ATOM      9  C   UNN dAMED      -2.989  -1.093  -3.400  0.00  0.00     0.103 A 
ATOM     10  N   UNN dAMED      -3.548  -1.889  -2.468  0.00  0.00    -0.223 NA
ATOM     11  C   UNN dAMED      -3.245  -1.578  -1.194  0.00  0.00     0.200 A 
ATOM     12  N   UNN dAMED      -2.454  -0.567  -0.782  0.00  0.00    -0.217 NA
ENDBRANCH   6   7
ENDBRANCH   5   6
BRANCH   2  13
ATOM     13  N   UNN dAMED       3.955  -0.047   0.702  0.00  0.00    -0.106 N 
ATOM     14  O   UNN dAMED       4.879   0.336  -0.025  0.00  0.00    -0.531 OA
ATOM     15  O   UNN dAMED       4.051  -0.499   1.848  0.00  0.00    -0.531 OA
ENDBRANCH   2  13
TORSDOF 3
