REMARK  6 active torsions:
REMARK  status: ('A' for Active; 'I' for Inactive)
REMARK    1  A    between atoms: O_2  and  C_18 
REMARK    2  A    between atoms: O_2  and  C_20 
REMARK    3  A    between atoms: O_3  and  C_12 
REMARK    4  A    between atoms: O_3  and  C_21 
REMARK    5  A    between atoms: C_7  and  N_17 
REMARK       I    between atoms: N_17  and  C_18 
REMARK    6  A    between atoms: C_20  and  C_21 
ROOT
ATOM      1  O   UNN dAMED      -2.589   2.079  -1.249  0.00  0.00    -0.281 OA
ENDROOT
BRANCH   1   2
ATOM      2  C   UNN dAMED      -1.611   1.603  -0.423  0.00  0.00     0.388 C 
ATOM      3  N   UNN dAMED      -2.073   1.085   0.720  0.00  0.00    -0.186 NA
ATOM      4  O   UNN dAMED      -0.429   1.750  -0.721  0.00  0.00    -0.236 OA
BRANCH   3   5
ATOM      5  C   UNN dAMED      -3.214   0.367   0.623  0.00  0.00     0.087 A 
ATOM      6  C   UNN dAMED      -3.205  -1.027   0.508  0.00  0.00     0.022 A 
ATOM      7  C   UNN dAMED      -4.394  -1.762   0.482  0.00  0.00     0.031 A 
ATOM      8  C   UNN dAMED      -5.614  -1.101   0.573  0.00  0.00     0.140 A 
ATOM      9  F   UNN dAMED      -6.760  -1.801   0.561  0.00  0.00    -0.204 F 
ATOM     10  C   UNN dAMED      -5.658   0.278   0.691  0.00  0.00     0.031 A 
ATOM     11  C   UNN dAMED      -4.465   0.995   0.730  0.00  0.00     0.022 A 
ENDBRANCH   3   5
ENDBRANCH   1   2
BRANCH   1  12
ATOM     12  C   UNN dAMED      -1.930   2.372  -2.440  0.00  0.00     0.186 C 
BRANCH  12  13
ATOM     13  C   UNN dAMED      -1.657   3.832  -2.779  0.00  0.00     0.182 C 
BRANCH  13  14
ATOM     14  O   UNN dAMED      -0.523   4.176  -3.512  0.00  0.00    -0.328 OA
BRANCH  14  15
ATOM     15  C   UNN dAMED      -0.734   5.468  -3.884  0.00  0.00     0.094 A 
ATOM     16  C   UNN dAMED      -1.597   6.260  -3.135  0.00  0.00     0.025 A 
ATOM     17  C   UNN dAMED      -1.837   7.570  -3.539  0.00  0.00     0.009 A 
ATOM     18  C   UNN dAMED      -1.210   8.062  -4.681  0.00  0.00     0.035 A 
ATOM     19 BR   UNN dAMED      -1.564   9.821  -5.254  0.00  0.00    -0.049 Br
ATOM     20  C   UNN dAMED      -0.340   7.264  -5.420  0.00  0.00     0.009 A 
ATOM     21  C   UNN dAMED      -0.100   5.955  -5.019  0.00  0.00     0.025 A 
ENDBRANCH  14  15
ENDBRANCH  13  14
ENDBRANCH  12  13
ENDBRANCH   1  12
TORSDOF 6
