REMARK  2 active torsions:
REMARK  status: ('A' for Active; 'I' for Inactive)
REMARK       I    between atoms: N_2  and  C_14 
REMARK    1  A    between atoms: C_5  and  N_16 
REMARK    2  A    between atoms: C_6  and  N_17 
REMARK       I    between atoms: C_14  and  N_16 
ROOT
ATOM      1  N   UNN dAMED      -4.719   0.429  -1.380  0.00  0.00    -0.365 N 
ATOM      2  N   UNN dAMED      -2.246  -0.622   0.319  0.00  0.00    -0.200 NA
ATOM      3  C   UNN dAMED      -2.317  -0.539  -1.118  0.00  0.00     0.105 C 
ATOM      4  C   UNN dAMED      -3.682  -0.528  -1.817  0.00  0.00     0.115 C 
ATOM      5  C   UNN dAMED      -2.870   0.675   0.412  0.00  0.00     0.105 C 
ATOM      6  C   UNN dAMED      -3.695   1.227  -0.761  0.00  0.00     0.115 C 
ATOM      7  C   UNN dAMED      -5.772   0.023  -2.259  0.00  0.00     0.121 C 
ATOM      8  C   UNN dAMED      -0.905  -0.463   0.659  0.00  0.00     0.325 C 
ATOM      9  O   UNN dAMED      -0.015  -0.859  -0.096  0.00  0.00    -0.251 OA
ATOM     10  N   UNN dAMED      -0.782   0.132   1.860  0.00  0.00    -0.198 NA
ENDROOT
BRANCH  10  11
ATOM     11  C   UNN dAMED       0.483   0.454   2.205  0.00  0.00     0.086 A 
ATOM     12  C   UNN dAMED       1.165  -0.280   3.188  0.00  0.00     0.021 A 
ATOM     13  C   UNN dAMED       2.417   0.111   3.663  0.00  0.00     0.025 A 
ATOM     14  C   UNN dAMED       3.001   1.251   3.125  0.00  0.00     0.127 A 
ATOM     15  C   UNN dAMED       2.375   2.001   2.137  0.00  0.00     0.025 A 
ATOM     16  C   UNN dAMED       1.111   1.605   1.701  0.00  0.00     0.021 A 
BRANCH  14  17
ATOM     17  N   UNN dAMED       4.284   1.685   3.623  0.00  0.00    -0.114 N 
ATOM     18  O   UNN dAMED       4.436   2.898   3.818  0.00  0.00    -0.532 OA
ATOM     19  O   UNN dAMED       5.141   0.814   3.819  0.00  0.00    -0.532 OA
ENDBRANCH  14  17
ENDBRANCH  10  11
TORSDOF 2
