REMARK  3 active torsions:
REMARK  status: ('A' for Active; 'I' for Inactive)
REMARK    1  A    between atoms: O_2  and  C_7 
REMARK    2  A    between atoms: O_2  and  C_9 
REMARK    3  A    between atoms: C_10  and  N_14 
ROOT
ATOM      1  N   UNN dAMED       0.298  -1.478  -0.253  0.00  0.00    -0.219 NA
ATOM      2  C   UNN dAMED       0.731  -0.216  -0.041  0.00  0.00     0.205 A 
ATOM      3  C   UNN dAMED       2.079   0.107   0.015  0.00  0.00     0.168 A 
ATOM      4  C   UNN dAMED       3.045  -0.880  -0.111  0.00  0.00     0.029 A 
ATOM      5  C   UNN dAMED       2.622  -2.188  -0.306  0.00  0.00     0.022 A 
ATOM      6  C   UNN dAMED       1.255  -2.430  -0.371  0.00  0.00     0.101 A 
ENDROOT
BRANCH   2   7
ATOM      7  O   UNN dAMED      -0.226   0.776   0.024  0.00  0.00    -0.286 OA
BRANCH   7   8
ATOM      8  C   UNN dAMED      -0.866   0.927   1.227  0.00  0.00     0.121 A 
ATOM      9  C   UNN dAMED      -1.994   1.738   1.242  0.00  0.00     0.028 A 
ATOM     10  C   UNN dAMED      -2.644   1.999   2.442  0.00  0.00     0.023 A 
ATOM     11  C   UNN dAMED      -2.124   1.430   3.593  0.00  0.00     0.099 A 
ATOM     12  N   UNN dAMED      -1.027   0.642   3.621  0.00  0.00    -0.240 NA
ATOM     13  C   UNN dAMED      -0.419   0.418   2.437  0.00  0.00     0.124 A 
ENDBRANCH   7   8
ENDBRANCH   2   7
BRANCH   3  14
ATOM     14  N   UNN dAMED       2.513   1.463   0.185  0.00  0.00    -0.110 N 
ATOM     15  O   UNN dAMED       2.598   1.882   1.346  0.00  0.00    -0.532 OA
ATOM     16  O   UNN dAMED       2.765   2.103  -0.843  0.00  0.00    -0.532 OA
ENDBRANCH   3  14
TORSDOF 3
