REMARK  4 active torsions:
REMARK  status: ('A' for Active; 'I' for Inactive)
REMARK    1  A    between atoms: C_2  and  O_24 
REMARK    2  A    between atoms: C_4  and  N_23 
REMARK    3  A    between atoms: C_7  and  O_26 
REMARK    4  A    between atoms: C_9  and  C_21 
REMARK       I    between atoms: C_21  and  N_23 
ROOT
ATOM      1  O   UNN dAMED      -3.461  -1.711  -0.355  0.00  0.00    -0.307 OA
ATOM      2  C   UNN dAMED      -1.169  -0.852  -0.456  0.00  0.00     0.033 A 
ATOM      3  C   UNN dAMED      -0.401   0.310  -0.220  0.00  0.00     0.099 A 
ATOM      4  C   UNN dAMED      -2.531  -0.725  -0.217  0.00  0.00     0.100 A 
ATOM      5  C   UNN dAMED      -0.918   1.560   0.216  0.00  0.00     0.200 A 
ATOM      6  C   UNN dAMED      -3.133   0.452   0.197  0.00  0.00     0.028 A 
ATOM      7  C   UNN dAMED      -2.314   1.573   0.406  0.00  0.00     0.044 A 
ATOM      8  C   UNN dAMED      -4.524   0.178   0.287  0.00  0.00     0.025 A 
ATOM      9  C   UNN dAMED      -5.893  -1.836  -0.078  0.00  0.00     0.025 A 
ATOM     10  C   UNN dAMED      -4.672  -1.163  -0.049  0.00  0.00     0.100 A 
ATOM     11  C   UNN dAMED      -7.014  -1.065   0.245  0.00  0.00     0.002 A 
ATOM     12  C   UNN dAMED      -6.910   0.284   0.578  0.00  0.00     0.000 A 
ATOM     13  C   UNN dAMED      -5.668   0.925   0.611  0.00  0.00     0.002 A 
ATOM     14  O   UNN dAMED      -0.219   2.609   0.422  0.00  0.00    -0.286 OA
ENDROOT
BRANCH   3  15
ATOM     15  C   UNN dAMED       1.043   0.169  -0.523  0.00  0.00     0.282 C 
ATOM     16  O   UNN dAMED       1.429   0.621  -1.600  0.00  0.00    -0.265 OA
ATOM     17  N   UNN dAMED       1.719  -0.507   0.414  0.00  0.00    -0.206 NA
BRANCH  17  18
ATOM     18  C   UNN dAMED       3.053  -0.293   0.387  0.00  0.00     0.109 A 
ATOM     19  C   UNN dAMED       3.705   0.586   1.267  0.00  0.00     0.112 A 
ATOM     20  C   UNN dAMED       5.089   0.767   1.250  0.00  0.00     0.028 A 
ATOM     21  C   UNN dAMED       5.865   0.059   0.340  0.00  0.00     0.026 A 
ATOM     22  C   UNN dAMED       5.242  -0.828  -0.526  0.00  0.00     0.096 A 
ATOM     23  C   UNN dAMED       3.865  -1.014  -0.501  0.00  0.00     0.045 A 
BRANCH  19  24
ATOM     24  O   UNN dAMED       2.991   1.298   2.194  0.00  0.00    -0.327 OA
ATOM     25  C   UNN dAMED       3.943   1.765   3.104  0.00  0.00     0.181 C 
ENDBRANCH  19  24
BRANCH  22  26
ATOM     26  O   UNN dAMED       5.989  -1.521  -1.428  0.00  0.00    -0.328 OA
ATOM     27  C   UNN dAMED       6.528  -0.553  -2.278  0.00  0.00     0.181 C 
ENDBRANCH  22  26
ENDBRANCH  17  18
ENDBRANCH   3  15
TORSDOF 4
