REMARK  4 active torsions:
REMARK  status: ('A' for Active; 'I' for Inactive)
REMARK    1  A    between atoms: N_2  and  C_23 
REMARK    2  A    between atoms: C_10  and  N_20 
REMARK    3  A    between atoms: C_13  and  C_16 
REMARK       I    between atoms: N_20  and  C_21 
REMARK    4  A    between atoms: C_21  and  C_23 
ROOT
ATOM      1  N   UNN dAMED      -0.332   0.096  -0.019  0.00  0.00    -0.210 NA
ATOM      2  C   UNN dAMED       0.505  -0.202   0.975  0.00  0.00     0.273 C 
ATOM      3  O   UNN dAMED       0.241  -0.880   1.962  0.00  0.00    -0.269 OA
ENDROOT
BRANCH   2   4
ATOM      4  C   UNN dAMED       1.830   0.519   0.998  0.00  0.00     0.175 C 
BRANCH   4   5
ATOM      5  N   UNN dAMED       3.013  -0.183   0.621  0.00  0.00    -0.173 NA
ATOM      6  C   UNN dAMED       2.860  -0.668  -0.717  0.00  0.00     0.060 C 
ATOM      7  C   UNN dAMED       3.902  -1.114  -1.409  0.00  0.00     0.073 C 
ATOM      8  C   UNN dAMED       5.247  -0.636  -0.975  0.00  0.00     0.262 C 
ATOM      9  N   UNN dAMED       5.232   0.299   0.041  0.00  0.00    -0.279 N 
ATOM     10  O   UNN dAMED       6.220  -0.923  -1.659  0.00  0.00    -0.267 OA
ATOM     11  C   UNN dAMED       4.086   0.677   0.732  0.00  0.00     0.309 C 
ATOM     12  H   UNN dAMED       6.079   0.838   0.196  0.00  0.00     0.173 HD
ATOM     13  O   UNN dAMED       4.050   1.688   1.437  0.00  0.00    -0.253 OA
ENDBRANCH   4   5
ENDBRANCH   2   4
BRANCH   1  14
ATOM     14  C   UNN dAMED       0.069  -0.427  -1.197  0.00  0.00     0.088 A 
ATOM     15  C   UNN dAMED      -0.665  -1.450  -1.819  0.00  0.00     0.061 A 
ATOM     16  C   UNN dAMED      -0.406  -2.003  -3.095  0.00  0.00     0.203 A 
ATOM     17  C   UNN dAMED       0.707  -1.432  -3.763  0.00  0.00     0.103 A 
ATOM     18  O   UNN dAMED      -1.144  -2.930  -3.571  0.00  0.00    -0.286 OA
ATOM     19  C   UNN dAMED       1.458  -0.399  -3.182  0.00  0.00     0.011 A 
ATOM     20  C   UNN dAMED       1.126   0.107  -1.930  0.00  0.00     0.020 A 
BRANCH  17  21
ATOM     21  C   UNN dAMED       1.127  -1.886  -5.131  0.00  0.00     0.214 C 
ATOM     22  O   UNN dAMED       0.321  -1.637  -6.079  0.00  0.00    -0.644 OA
ATOM     23  O   UNN dAMED       2.259  -2.455  -5.219  0.00  0.00    -0.644 OA
ENDBRANCH  17  21
ENDBRANCH   1  14
TORSDOF 4
