REMARK  3 active torsions:
REMARK  status: ('A' for Active; 'I' for Inactive)
REMARK    1  A    between atoms: C_9  and  C_11 
REMARK    2  A    between atoms: C_11  and  O_12 
REMARK    3  A    between atoms: O_12  and  C_13 
REMARK       I    between atoms: C_13  and  N_15 
ROOT
ATOM      1  O   UNN dAMED      -0.405   0.160  -0.315  0.00  0.00    -0.326 OA
ATOM      2  O   UNN dAMED      -2.014  -1.242   1.784  0.00  0.00    -0.326 OA
ATOM      3  C   UNN dAMED      -2.417   0.905  -1.200  0.00  0.00     0.026 A 
ATOM      4  C   UNN dAMED      -3.806   1.002  -1.219  0.00  0.00     0.002 A 
ATOM      5  C   UNN dAMED      -1.765   0.167  -0.209  0.00  0.00     0.116 A 
ATOM      6  C   UNN dAMED      -2.514  -0.488   0.763  0.00  0.00     0.116 A 
ATOM      7  C   UNN dAMED      -4.554   0.354  -0.244  0.00  0.00     0.002 A 
ATOM      8  C   UNN dAMED      -3.907  -0.387   0.741  0.00  0.00     0.026 A 
ATOM      9  C   UNN dAMED       0.119  -0.335   0.873  0.00  0.00     0.182 C 
ATOM     10  C   UNN dAMED      -0.662  -1.441   1.545  0.00  0.00     0.181 C 
ENDROOT
BRANCH   9  11
ATOM     11  C   UNN dAMED       1.643  -0.323   1.055  0.00  0.00     0.186 C 
BRANCH  11  12
ATOM     12  O   UNN dAMED       2.378   0.838   0.797  0.00  0.00    -0.282 OA
BRANCH  12  13
ATOM     13  C   UNN dAMED       1.733   1.814   1.486  0.00  0.00     0.365 C 
ATOM     14  O   UNN dAMED       1.086   1.601   2.503  0.00  0.00    -0.238 OA
ATOM     15  N   UNN dAMED       1.890   3.035   0.880  0.00  0.00    -0.293 N 
ATOM     16  C   UNN dAMED       1.136   3.962   1.626  0.00  0.00     0.131 C 
ATOM     17  C   UNN dAMED       2.574   2.810  -0.332  0.00  0.00     0.131 C 
ENDBRANCH  12  13
ENDBRANCH  11  12
ENDBRANCH   9  11
TORSDOF 3
