REMARK  0 active torsions:
REMARK  status: ('A' for Active; 'I' for Inactive)
ROOT
ATOM      1  O   UNN dAMED      -1.670  -1.844  -1.342  0.00  0.00    -0.283 OA
ATOM      2  C   UNN dAMED       1.031  -1.180   0.440  0.00  0.00     0.163 A 
ATOM      3  C   UNN dAMED      -0.074  -0.458  -0.154  0.00  0.00     0.070 A 
ATOM      4  C   UNN dAMED       2.387  -0.452   0.505  0.00  0.00     0.195 A 
ATOM      5  C   UNN dAMED      -1.460  -1.058  -0.413  0.00  0.00     0.236 C 
ATOM      6  C   UNN dAMED      -2.626  -0.376   0.346  0.00  0.00     0.234 C 
ATOM      7  C   UNN dAMED       2.494   0.955   0.003  0.00  0.00     0.223 A 
ATOM      8  C   UNN dAMED       0.082   0.849  -0.617  0.00  0.00     0.009 A 
ATOM      9  C   UNN dAMED      -2.316   0.804   0.879  0.00  0.00     0.045 C 
ATOM     10  C   UNN dAMED       1.306   1.497  -0.512  0.00  0.00     0.044 A 
ATOM     11  C   UNN dAMED      -1.099   1.664  -1.028  0.00  0.00     0.000 C 
ATOM     12  C   UNN dAMED      -2.033   1.915  -0.120  0.00  0.00     0.003 C 
ATOM     13  O   UNN dAMED      -3.853  -0.604   0.123  0.00  0.00    -0.283 OA
ATOM     14  O   UNN dAMED       0.844  -2.383   0.904  0.00  0.00    -0.188 OA
ATOM     15  O   UNN dAMED       3.442  -1.049   0.993  0.00  0.00    -0.185 OA
ATOM     16  O   UNN dAMED       3.543   1.721  -0.007  0.00  0.00    -0.284 OA
ENDROOT
TORSDOF 0
