REMARK  2 active torsions:
REMARK  status: ('A' for Active; 'I' for Inactive)
REMARK    1  A    between atoms: C_3  and  N_17 
REMARK    2  A    between atoms: C_9  and  N_17 
ROOT
ATOM      1  C   UNN dAMED      -0.731   0.153   0.345  0.00  0.00     0.019 A 
ATOM      2  C   UNN dAMED      -2.085   0.411   0.106  0.00  0.00     0.002 A 
ATOM      3  C   UNN dAMED      -0.222  -1.153   0.442  0.00  0.00     0.081 A 
ATOM      4  C   UNN dAMED      -2.563   1.719   0.011  0.00  0.00     0.000 A 
ATOM      5  C   UNN dAMED      -3.916   1.955  -0.224  0.00  0.00     0.000 A 
ATOM      6  C   UNN dAMED      -1.146  -2.197   0.289  0.00  0.00     0.019 A 
ATOM      7  C   UNN dAMED      -2.980  -0.667  -0.038  0.00  0.00     0.000 A 
ATOM      8  C   UNN dAMED      -4.800   0.887  -0.364  0.00  0.00     0.000 A 
ATOM      9  C   UNN dAMED      -2.502  -1.969   0.053  0.00  0.00     0.002 A 
ATOM     10  C   UNN dAMED      -4.333  -0.422  -0.271  0.00  0.00     0.000 A 
ENDROOT
BRANCH   3  11
ATOM     11  N   UNN dAMED       1.065  -1.485   0.708  0.00  0.00    -0.246 NA
BRANCH  11  12
ATOM     12  C   UNN dAMED       1.968  -0.485   0.730  0.00  0.00     0.082 A 
ATOM     13  C   UNN dAMED       2.747  -0.183  -0.387  0.00  0.00     0.022 A 
ATOM     14  C   UNN dAMED       3.759   0.782  -0.322  0.00  0.00     0.044 A 
ATOM     15  C   UNN dAMED       4.076   1.493   0.845  0.00  0.00     0.196 A 
ATOM     16  C   UNN dAMED       3.284   1.158   1.953  0.00  0.00     0.044 A 
ATOM     17  O   UNN dAMED       5.004   2.363   0.896  0.00  0.00    -0.287 OA
ATOM     18  C   UNN dAMED       2.271   0.194   1.912  0.00  0.00     0.022 A 
ENDBRANCH  11  12
ENDBRANCH   3  11
TORSDOF 2
