REMARK  6 active torsions:
REMARK  status: ('A' for Active; 'I' for Inactive)
REMARK    1  A    between atoms: O_1  and  C_9 
REMARK    2  A    between atoms: O_1  and  C_20 
REMARK    3  A    between atoms: C_4  and  N_17 
REMARK    4  A    between atoms: C_5  and  N_14 
REMARK    5  A    between atoms: C_6  and  O_18 
REMARK    6  A    between atoms: C_12  and  O_22 
REMARK       I    between atoms: N_17  and  C_20 
ROOT
ATOM      1  N   UNN dAMED      -0.917  -1.515  -0.307  0.00  0.00    -0.184 NA
ATOM      2  C   UNN dAMED       0.054  -1.315   0.583  0.00  0.00     0.392 C 
ATOM      3  O   UNN dAMED       0.046  -1.619   1.773  0.00  0.00    -0.236 OA
ENDROOT
BRANCH   1   4
ATOM      4  C   UNN dAMED      -2.040  -0.761  -0.257  0.00  0.00     0.109 A 
ATOM      5  C   UNN dAMED      -2.921  -0.933  -1.344  0.00  0.00     0.023 A 
ATOM      6  C   UNN dAMED      -4.160  -0.300  -1.440  0.00  0.00     0.025 A 
ATOM      7  C   UNN dAMED      -4.527   0.538  -0.402  0.00  0.00     0.129 A 
ATOM      8  C   UNN dAMED      -3.715   0.769   0.695  0.00  0.00     0.049 A 
ATOM      9  C   UNN dAMED      -2.481   0.120   0.752  0.00  0.00     0.114 A 
BRANCH   7  10
ATOM     10  N   UNN dAMED      -5.809   1.177  -0.445  0.00  0.00    -0.114 N 
ATOM     11  O   UNN dAMED      -6.792   0.483  -0.159  0.00  0.00    -0.532 OA
ATOM     12  O   UNN dAMED      -5.826   2.376  -0.754  0.00  0.00    -0.532 OA
ENDBRANCH   7  10
BRANCH   9  13
ATOM     13  O   UNN dAMED      -1.743   0.390   1.871  0.00  0.00    -0.327 OA
ATOM     14  C   UNN dAMED      -0.798  -0.637   1.941  0.00  0.00     0.181 C 
ENDBRANCH   9  13
ENDBRANCH   1   4
BRANCH   2  15
ATOM     15  O   UNN dAMED       1.214  -0.813  -0.017  0.00  0.00    -0.258 OA
BRANCH  15  16
ATOM     16  C   UNN dAMED       1.980  -1.878  -0.507  0.00  0.00     0.105 A 
ATOM     17  C   UNN dAMED       2.131  -1.991  -1.889  0.00  0.00     0.027 A 
ATOM     18  C   UNN dAMED       2.824  -3.080  -2.405  0.00  0.00     0.026 A 
ATOM     19  C   UNN dAMED       3.351  -4.028  -1.532  0.00  0.00     0.094 A 
ATOM     20  C   UNN dAMED       3.231  -3.900  -0.152  0.00  0.00     0.026 A 
ATOM     21  C   UNN dAMED       2.552  -2.804   0.368  0.00  0.00     0.027 A 
BRANCH  19  22
ATOM     22  O   UNN dAMED       3.986  -5.118  -2.046  0.00  0.00    -0.328 OA
ATOM     23  C   UNN dAMED       3.341  -5.374  -3.259  0.00  0.00     0.181 C 
ENDBRANCH  19  22
ENDBRANCH  15  16
ENDBRANCH   2  15
TORSDOF 6
