REMARK  1 active torsions:
REMARK  status: ('A' for Active; 'I' for Inactive)
REMARK    1  A    between atoms: S_9  and  C_10 
ROOT
ATOM      1 CL   UNN dAMED      -4.947  -0.249   0.027  0.00  0.00    -0.082 Cl
ATOM      2  C   UNN dAMED      -3.236  -0.103   0.033  0.00  0.00     0.058 A 
ATOM      3  C   UNN dAMED      -2.447  -1.211  -0.271  0.00  0.00     0.013 A 
ATOM      4  C   UNN dAMED      -2.653   1.125   0.339  0.00  0.00     0.013 A 
ATOM      5  C   UNN dAMED      -1.266   1.252   0.341  0.00  0.00     0.018 A 
ATOM      6  C   UNN dAMED      -1.059  -1.086  -0.291  0.00  0.00     0.018 A 
ATOM      7  C   UNN dAMED      -0.482   0.150   0.003  0.00  0.00     0.068 A 
ATOM      8  N   UNN dAMED       0.912   0.257   0.052  0.00  0.00    -0.258 N 
ATOM      9  C   UNN dAMED       1.781   1.013  -0.700  0.00  0.00     0.194 A 
ATOM     10  C   UNN dAMED       1.732  -0.405   0.922  0.00  0.00     0.243 A 
ATOM     11  N   UNN dAMED       3.020   0.816  -0.302  0.00  0.00    -0.121 NA
ATOM     12  N   UNN dAMED       2.989  -0.096   0.730  0.00  0.00    -0.113 NA
ATOM     13  N   UNN dAMED       1.285  -1.322   1.909  0.00  0.00    -0.059 NA
ENDROOT
BRANCH   9  14
ATOM     14  S   UNN dAMED       1.319   2.064  -1.989  0.00  0.00    -0.103 SA
ATOM     15  H   UNN dAMED       2.507   2.085  -2.613  0.00  0.00     0.110 HD
ENDBRANCH   9  14
TORSDOF 1
