REMARK  0 active torsions:
REMARK  status: ('A' for Active; 'I' for Inactive)
ROOT
ATOM      1  C   UNN dAMED      -2.931  -0.088  -0.243  0.00  0.00     0.023 A 
ATOM      2  C   UNN dAMED      -2.375  -1.331   0.002  0.00  0.00     0.101 A 
ATOM      3  C   UNN dAMED      -2.071   0.998  -0.307  0.00  0.00     0.029 A 
ATOM      4  N   UNN dAMED      -1.053  -1.552   0.180  0.00  0.00    -0.225 NA
ATOM      5  C   UNN dAMED      -0.227  -0.482   0.099  0.00  0.00     0.165 A 
ATOM      6  C   UNN dAMED      -0.704   0.804  -0.147  0.00  0.00     0.129 A 
ATOM      7  O   UNN dAMED       0.090   1.918  -0.155  0.00  0.00    -0.318 OA
ATOM      8  N   UNN dAMED       1.145  -0.715   0.294  0.00  0.00    -0.306 N 
ATOM      9  H   UNN dAMED       1.462  -1.652   0.518  0.00  0.00     0.170 HD
ATOM     10  C   UNN dAMED       1.395   1.539  -0.500  0.00  0.00     0.236 C 
ATOM     11  C   UNN dAMED       2.025   0.317   0.098  0.00  0.00     0.266 C 
ATOM     12  O   UNN dAMED       3.244   0.243   0.161  0.00  0.00    -0.269 OA
ENDROOT
TORSDOF 0
