REMARK  4 active torsions:
REMARK  status: ('A' for Active; 'I' for Inactive)
REMARK    1  A    between atoms: C_3  and  N_12 
REMARK    2  A    between atoms: C_10  and  C_11 
REMARK    3  A    between atoms: C_10  and  N_12 
REMARK    4  A    between atoms: C_11  and  C_13 
ROOT
ATOM      1  C   UNN dAMED       3.956  -0.975   0.200  0.00  0.00     0.227 A 
ATOM      2  N   UNN dAMED       2.852  -1.766   0.071  0.00  0.00    -0.198 NA
ATOM      3  C   UNN dAMED       1.655  -1.144  -0.129  0.00  0.00     0.165 A 
ATOM      4  C   UNN dAMED       1.649   0.242  -0.186  0.00  0.00     0.094 A 
ATOM      5  C   UNN dAMED       2.814   0.969  -0.045  0.00  0.00     0.191 A 
ATOM      6  N   UNN dAMED       4.054   0.380   0.160  0.00  0.00    -0.196 NA
ATOM      7  C   UNN dAMED       0.734   1.238  -0.357  0.00  0.00     0.128 A 
ATOM      8  N   UNN dAMED       1.282   2.467  -0.326  0.00  0.00    -0.145 NA
ATOM      9  N   UNN dAMED       2.621   2.295  -0.126  0.00  0.00    -0.128 NA
ATOM     10 CL   UNN dAMED       5.431  -1.812   0.445  0.00  0.00    -0.041 Cl
ENDROOT
BRANCH   3  11
ATOM     11  N   UNN dAMED       0.543  -1.872  -0.247  0.00  0.00    -0.252 NA
BRANCH  11  12
ATOM     12  C   UNN dAMED       0.587  -3.201  -0.842  0.00  0.00     0.132 C 
BRANCH  12  13
ATOM     13  C   UNN dAMED      -0.489  -4.252  -0.516  0.00  0.00     0.053 C 
BRANCH  13  14
ATOM     14  C   UNN dAMED      -1.953  -3.903  -0.559  0.00  0.00    -0.020 A 
ATOM     15  C   UNN dAMED      -2.614  -3.827  -1.783  0.00  0.00    -0.004 A 
ATOM     16  C   UNN dAMED      -3.921  -3.347  -1.837  0.00  0.00    -0.000 A 
ATOM     17  C   UNN dAMED      -4.562  -2.937  -0.670  0.00  0.00    -0.000 A 
ATOM     18  C   UNN dAMED      -3.901  -3.014   0.553  0.00  0.00    -0.000 A 
ATOM     19  C   UNN dAMED      -2.596  -3.497   0.608  0.00  0.00    -0.004 A 
ENDBRANCH  13  14
ENDBRANCH  12  13
ENDBRANCH  11  12
ENDBRANCH   3  11
TORSDOF 4
