REMARK  0 active torsions:
REMARK  status: ('A' for Active; 'I' for Inactive)
ROOT
ATOM      1  C   UNN dAMED      -4.561  -0.304  -0.879  0.00  0.00     0.020 A 
ATOM      2  C   UNN dAMED      -5.763  -0.076  -0.210  0.00  0.00     0.013 A 
ATOM      3  N   UNN dAMED      -2.207  -1.061  -2.137  0.00  0.00    -0.162 NA
ATOM      4  C   UNN dAMED      -3.343  -0.233  -0.193  0.00  0.00     0.085 A 
ATOM      5  C   UNN dAMED      -5.741   0.234   1.145  0.00  0.00     0.058 A 
ATOM      6 CL   UNN dAMED      -7.213   0.533   1.976  0.00  0.00    -0.082 Cl
ATOM      7  N   UNN dAMED      -2.141  -0.498  -0.894  0.00  0.00    -0.214 N 
ATOM      8  C   UNN dAMED      -3.337   0.054   1.169  0.00  0.00     0.020 A 
ATOM      9  C   UNN dAMED      -4.536   0.301   1.838  0.00  0.00     0.013 A 
ATOM     10  C   UNN dAMED      -0.936  -1.166  -2.534  0.00  0.00     0.128 A 
ATOM     11  C   UNN dAMED      -0.821  -0.273  -0.535  0.00  0.00     0.152 A 
ATOM     12  C   UNN dAMED      -0.035  -0.698  -1.570  0.00  0.00     0.112 A 
ATOM     13  O   UNN dAMED       2.104  -0.994  -2.447  0.00  0.00    -0.266 OA
ATOM     14  N   UNN dAMED      -0.324   0.266   0.623  0.00  0.00    -0.291 N 
ATOM     15  H   UNN dAMED      -0.954   0.562   1.359  0.00  0.00     0.172 HD
ATOM     16  C   UNN dAMED       1.403  -0.612  -1.516  0.00  0.00     0.273 A 
ATOM     17  C   UNN dAMED       1.061   0.405   0.791  0.00  0.00     0.335 A 
ATOM     18  N   UNN dAMED       1.874  -0.049  -0.299  0.00  0.00    -0.227 N 
ATOM     19  O   UNN dAMED       1.521   0.888   1.830  0.00  0.00    -0.246 OA
ATOM     20  C   UNN dAMED       3.291   0.082  -0.153  0.00  0.00     0.072 A 
ATOM     21  C   UNN dAMED       3.990  -0.747   0.729  0.00  0.00     0.029 A 
ATOM     22  C   UNN dAMED       3.979   1.052  -0.888  0.00  0.00     0.018 A 
ATOM     23  C   UNN dAMED       5.363   1.181  -0.755  0.00  0.00     0.002 A 
ATOM     24  C   UNN dAMED       5.369  -0.592   0.871  0.00  0.00     0.059 A 
ATOM     25  C   UNN dAMED       6.060   0.362   0.129  0.00  0.00     0.011 A 
ATOM     26 CL   UNN dAMED       6.234  -1.583   1.973  0.00  0.00    -0.082 Cl
ENDROOT
TORSDOF 0
