REMARK  2 active torsions:
REMARK  status: ('A' for Active; 'I' for Inactive)
REMARK    1  A    between atoms: N_2  and  C_23 
REMARK    2  A    between atoms: C_22  and  C_23 
ROOT
ATOM      1  O   UNN dAMED       1.863   1.361  -0.691  0.00  0.00    -0.305 OA
ATOM      2  N   UNN dAMED      -2.538  -2.496  -0.861  0.00  0.00     0.142 N 
ATOM      3  O   UNN dAMED       3.934  -0.617  -0.069  0.00  0.00    -0.290 OA
ATOM      4  C   UNN dAMED      -2.189  -1.133  -1.522  0.00  0.00     0.252 C 
ATOM      5  C   UNN dAMED      -1.721  -1.559   0.151  0.00  0.00     0.252 C 
ATOM      6  C   UNN dAMED      -0.161  -1.582   0.184  0.00  0.00     0.166 C 
ATOM      7  C   UNN dAMED      -2.389  -0.227   0.542  0.00  0.00     0.062 C 
ATOM      8  C   UNN dAMED      -1.578   1.006   0.287  0.00  0.00    -0.022 A 
ATOM      9  C   UNN dAMED       0.590  -1.291   1.471  0.00  0.00     0.041 C 
ATOM     10  C   UNN dAMED       2.015  -0.750   1.335  0.00  0.00     0.074 C 
ATOM     11  C   UNN dAMED       0.212  -0.473  -0.790  0.00  0.00     0.093 C 
ATOM     12  C   UNN dAMED      -0.316   0.806  -0.215  0.00  0.00     0.007 A 
ATOM     13  C   UNN dAMED      -1.903   2.265   0.747  0.00  0.00    -0.001 A 
ATOM     14  C   UNN dAMED      -0.943   3.292   0.655  0.00  0.00     0.044 A 
ATOM     15  C   UNN dAMED      -0.745  -0.760  -1.926  0.00  0.00     0.048 C 
ATOM     16  C   UNN dAMED       2.746  -0.904   0.007  0.00  0.00     0.192 C 
ATOM     17  C   UNN dAMED       1.692  -0.050  -0.724  0.00  0.00     0.118 C 
ATOM     18  C   UNN dAMED       0.636   1.821  -0.247  0.00  0.00     0.135 A 
ATOM     19  C   UNN dAMED       0.374   3.130   0.162  0.00  0.00     0.218 A 
ATOM     20  O   UNN dAMED       1.207   4.092   0.110  0.00  0.00    -0.284 OA
ATOM     21  O   UNN dAMED       0.293  -2.714  -0.306  0.00  0.00    -0.223 OA
ENDROOT
BRANCH   2  22
ATOM     22  C   UNN dAMED      -1.777  -1.271  -0.184  0.00  0.00     0.277 C 
BRANCH  22  23
ATOM     23  C   UNN dAMED      -0.325  -0.975  -0.571  0.00  0.00     0.009 C 
ATOM     24  C   UNN dAMED       0.536  -1.974  -0.736  0.00  0.00    -0.003 C 
ENDBRANCH  22  23
ENDBRANCH   2  22
TORSDOF 2
