REMARK  0 active torsions:
REMARK  status: ('A' for Active; 'I' for Inactive)
ROOT
ATOM      1  O   UNN dAMED       3.381   0.769  -0.569  0.00  0.00    -0.281 OA
ATOM      2  N   UNN dAMED       2.594  -0.918   0.793  0.00  0.00    -0.324 N 
ATOM      3  H   UNN dAMED       2.570  -1.703   1.432  0.00  0.00     0.169 HD
ATOM      4  S   UNN dAMED       5.298  -0.621   0.595  0.00  0.00    -0.033 SA
ATOM      5  C   UNN dAMED       1.149   1.558  -1.245  0.00  0.00     0.026 A 
ATOM      6  C   UNN dAMED      -0.224   1.342  -1.087  0.00  0.00     0.002 A 
ATOM      7  C   UNN dAMED       1.993   0.720  -0.552  0.00  0.00     0.118 A 
ATOM      8  C   UNN dAMED       1.503  -0.286   0.256  0.00  0.00     0.082 A 
ATOM      9  C   UNN dAMED      -0.733   0.309  -0.264  0.00  0.00     0.002 A 
ATOM     10  C   UNN dAMED       0.157  -0.528   0.425  0.00  0.00     0.019 A 
ATOM     11  C   UNN dAMED      -2.173   0.120  -0.136  0.00  0.00     0.000 A 
ATOM     12  C   UNN dAMED      -2.847   0.518   1.024  0.00  0.00     0.000 A 
ATOM     13  C   UNN dAMED      -4.223   0.335   1.151  0.00  0.00     0.000 A 
ATOM     14  C   UNN dAMED      -2.914  -0.460  -1.172  0.00  0.00     0.000 A 
ATOM     15  C   UNN dAMED      -4.945  -0.242   0.110  0.00  0.00     0.000 A 
ATOM     16  C   UNN dAMED      -4.292  -0.637  -1.053  0.00  0.00     0.000 A 
ATOM     17  C   UNN dAMED       3.707  -0.279   0.292  0.00  0.00     0.220 A 
ENDROOT
TORSDOF 0
