REMARK  2 active torsions:
REMARK  status: ('A' for Active; 'I' for Inactive)
REMARK    1  A    between atoms: N_3  and  C_8 
REMARK    2  A    between atoms: C_8  and  C_9 
ROOT
ATOM      1  H   UNN dAMED      -2.603   0.175   1.865  0.00  0.00     0.318 HD
ATOM      2  N   UNN dAMED      -1.637   0.163   2.191  0.00  0.00     0.120 N 
ATOM      3  N   UNN dAMED       0.661  -0.270  -0.234  0.00  0.00     0.143 N 
ATOM      4  C   UNN dAMED      -0.328  -1.163   0.371  0.00  0.00     0.285 C 
ATOM      5  C   UNN dAMED      -0.767  -0.963   1.826  0.00  0.00     0.281 C 
ATOM      6  C   UNN dAMED      -0.213   0.846   0.116  0.00  0.00     0.285 C 
ATOM      7  C   UNN dAMED      -0.655   1.062   1.568  0.00  0.00     0.281 C 
ENDROOT
BRANCH   3   8
ATOM      8  C   UNN dAMED       2.037  -0.375   0.180  0.00  0.00     0.291 C 
BRANCH   8   9
ATOM      9  C   UNN dAMED       2.959  -1.403  -0.487  0.00  0.00     0.373 C 
ATOM     10  N   UNN dAMED       4.339  -1.538  -0.052  0.00  0.00     0.620 N 
ENDBRANCH   8   9
ENDBRANCH   3   8
TORSDOF 2
