REMARK  4 active torsions:
REMARK  status: ('A' for Active; 'I' for Inactive)
REMARK    1  A    between atoms: O_1  and  C_7 
REMARK    2  A    between atoms: O_1  and  C_19 
REMARK    3  A    between atoms: C_11  and  C_15 
REMARK    4  A    between atoms: C_12  and  C_19 
ROOT
ATOM      1  C   UNN dAMED      -1.686   2.542   0.504  0.00  0.00     0.024 A 
ATOM      2  C   UNN dAMED      -0.841   1.534   0.060  0.00  0.00     0.095 A 
ATOM      3  C   UNN dAMED      -3.052   2.292   0.590  0.00  0.00     0.002 A 
ATOM      4  C   UNN dAMED      -1.330   0.283  -0.300  0.00  0.00     0.028 A 
ATOM      5  C   UNN dAMED      -3.555   1.041   0.232  0.00  0.00     0.004 A 
ATOM      6  C   UNN dAMED      -2.699   0.031  -0.217  0.00  0.00     0.073 A 
ENDROOT
BRANCH   2   7
ATOM      7  O   UNN dAMED       0.497   1.773  -0.017  0.00  0.00    -0.324 OA
BRANCH   7   8
ATOM      8  C   UNN dAMED       1.060   1.018   1.016  0.00  0.00     0.201 C 
BRANCH   8   9
ATOM      9  C   UNN dAMED       1.937  -0.196   0.693  0.00  0.00     0.128 C 
ATOM     10  O   UNN dAMED       2.840  -0.168  -0.372  0.00  0.00    -0.283 OA
ATOM     11  C   UNN dAMED       3.862  -0.989   0.047  0.00  0.00     0.220 C 
ATOM     12  N   UNN dAMED       3.626  -1.651   1.229  0.00  0.00    -0.323 N 
ATOM     13  S   UNN dAMED       5.245  -1.056  -0.859  0.00  0.00    -0.033 SA
ATOM     14  C   UNN dAMED       2.477  -1.067   1.784  0.00  0.00     0.098 C 
ATOM     15  H   UNN dAMED       4.231  -2.161   1.854  0.00  0.00     0.169 HD
ENDBRANCH   8   9
ENDBRANCH   7   8
ENDBRANCH   2   7
BRANCH   6  16
ATOM     16  C   UNN dAMED      -3.260  -1.305  -0.592  0.00  0.00     0.419 C 
ATOM     17  F   UNN dAMED      -2.337  -2.154  -1.124  0.00  0.00    -0.166 F 
ATOM     18  F   UNN dAMED      -4.254  -1.214  -1.519  0.00  0.00    -0.166 F 
ATOM     19  F   UNN dAMED      -3.798  -1.962   0.472  0.00  0.00    -0.166 F 
ENDBRANCH   6  16
TORSDOF 4
