REMARK  3 active torsions:
REMARK  status: ('A' for Active; 'I' for Inactive)
REMARK    1  A    between atoms: C_4  and  N_15 
REMARK    2  A    between atoms: C_6  and  S_13 
REMARK    3  A    between atoms: C_12  and  N_18 
REMARK       I    between atoms: N_15  and  C_16 
REMARK       I    between atoms: C_16  and  N_18 
ROOT
ATOM      1  N   UNN dAMED       1.954   0.474   3.231  0.00  0.00    -0.191 NA
ATOM      2  C   UNN dAMED       1.700   0.762   1.932  0.00  0.00     0.370 C 
ATOM      3  O   UNN dAMED       1.324   1.837   1.468  0.00  0.00    -0.242 OA
ATOM      4  N   UNN dAMED       1.826  -0.357   1.187  0.00  0.00    -0.172 NA
ENDROOT
BRANCH   1   5
ATOM      5  C   UNN dAMED       1.926   1.484   4.131  0.00  0.00     0.086 A 
ATOM      6  C   UNN dAMED       2.237   2.823   3.851  0.00  0.00     0.020 A 
ATOM      7  C   UNN dAMED       2.264   3.801   4.844  0.00  0.00     0.008 A 
ATOM      8  C   UNN dAMED       2.003   3.453   6.164  0.00  0.00     0.025 A 
ATOM      9  C   UNN dAMED       1.724   2.129   6.482  0.00  0.00     0.008 A 
ATOM     10  C   UNN dAMED       1.684   1.166   5.473  0.00  0.00     0.020 A 
BRANCH   8  11
ATOM     11  S   UNN dAMED       1.966   4.701   7.419  0.00  0.00    -0.113 SA
ATOM     12  C   UNN dAMED       0.947   3.755   8.546  0.00  0.00     0.074 C 
ENDBRANCH   8  11
ENDBRANCH   1   5
BRANCH   4  13
ATOM     13  C   UNN dAMED       2.970  -0.401   0.468  0.00  0.00     0.167 A 
ATOM     14  N   UNN dAMED       3.695  -1.535   0.636  0.00  0.00    -0.225 NA
ATOM     15  C   UNN dAMED       4.823  -1.672  -0.098  0.00  0.00     0.100 A 
ATOM     16  C   UNN dAMED       5.279  -0.736  -1.008  0.00  0.00     0.017 A 
ATOM     17  C   UNN dAMED       4.518   0.411  -1.181  0.00  0.00    -0.017 A 
ATOM     18  C   UNN dAMED       3.340   0.574  -0.459  0.00  0.00     0.035 A 
ATOM     19  C   UNN dAMED       4.878   1.395  -2.258  0.00  0.00     0.031 C 
ENDBRANCH   4  13
TORSDOF 3
