REMARK  3 active torsions:
REMARK  status: ('A' for Active; 'I' for Inactive)
REMARK    1  A    between atoms: C_5  and  N_15 
REMARK    2  A    between atoms: C_11  and  N_19 
REMARK    3  A    between atoms: C_14  and  N_18 
REMARK       I    between atoms: N_15  and  C_16 
REMARK       I    between atoms: C_16  and  N_18 
ROOT
ATOM      1  N   UNN dAMED      -1.539  -1.039  -1.693  0.00  0.00    -0.191 NA
ATOM      2  C   UNN dAMED      -1.298  -2.373  -1.630  0.00  0.00     0.370 C 
ATOM      3  O   UNN dAMED      -1.917  -3.194  -0.957  0.00  0.00    -0.242 OA
ATOM      4  N   UNN dAMED      -0.337  -2.730  -2.512  0.00  0.00    -0.172 NA
ENDROOT
BRANCH   1   5
ATOM      5  C   UNN dAMED      -2.626  -0.620  -1.012  0.00  0.00     0.087 A 
ATOM      6  C   UNN dAMED      -2.567  -0.322   0.357  0.00  0.00     0.032 A 
ATOM      7  C   UNN dAMED      -3.666   0.198   1.043  0.00  0.00     0.070 A 
ATOM      8 CL   UNN dAMED      -3.477   0.507   2.727  0.00  0.00    -0.081 Cl
ATOM      9  C   UNN dAMED      -4.852   0.454   0.356  0.00  0.00     0.068 A 
ATOM     10 CL   UNN dAMED      -6.248   1.121   1.113  0.00  0.00    -0.082 Cl
ATOM     11  C   UNN dAMED      -4.930   0.178  -1.006  0.00  0.00     0.014 A 
ATOM     12  C   UNN dAMED      -3.826  -0.348  -1.678  0.00  0.00     0.020 A 
ENDBRANCH   1   5
BRANCH   4  13
ATOM     13  C   UNN dAMED       0.925  -2.397  -2.153  0.00  0.00     0.167 A 
ATOM     14  N   UNN dAMED       1.519  -1.488  -2.974  0.00  0.00    -0.223 NA
ATOM     15  C   UNN dAMED       2.795  -1.132  -2.710  0.00  0.00     0.124 A 
ATOM     16  C   UNN dAMED       3.516  -1.675  -1.667  0.00  0.00     0.146 A 
ATOM     17  C   UNN dAMED       2.929  -2.620  -0.840  0.00  0.00     0.028 A 
ATOM     18  C   UNN dAMED       1.610  -2.992  -1.091  0.00  0.00     0.041 A 
BRANCH  16  19
ATOM     19  N   UNN dAMED       4.861  -1.217  -1.417  0.00  0.00    -0.112 N 
ATOM     20  O   UNN dAMED       5.242  -1.182  -0.239  0.00  0.00    -0.532 OA
ATOM     21  O   UNN dAMED       5.539  -0.878  -2.396  0.00  0.00    -0.532 OA
ENDBRANCH  16  19
ENDBRANCH   4  13
TORSDOF 3
