REMARK  3 active torsions:
REMARK  status: ('A' for Active; 'I' for Inactive)
REMARK    1  A    between atoms: O_2  and  C_9 
REMARK    2  A    between atoms: O_2  and  S_19 
REMARK    3  A    between atoms: C_10  and  S_19 
ROOT
ATOM      1  S   UNN dAMED       0.057   1.479   0.068  0.00  0.00     0.306 S 
ATOM      2  O   UNN dAMED       0.365   1.381  -1.347  0.00  0.00    -0.193 OA
ATOM      3  O   UNN dAMED       0.728   0.640   1.042  0.00  0.00    -0.193 OA
ENDROOT
BRANCH   1   4
ATOM      4  O   UNN dAMED       0.191   3.034   0.573  0.00  0.00    -0.227 OA
BRANCH   4   5
ATOM      5  C   UNN dAMED       0.809   3.947  -0.240  0.00  0.00     0.114 A 
ATOM      6  C   UNN dAMED       0.068   5.035  -0.692  0.00  0.00     0.026 A 
ATOM      7  C   UNN dAMED       0.685   6.002  -1.482  0.00  0.00     0.013 A 
ATOM      8  C   UNN dAMED       2.033   5.868  -1.807  0.00  0.00     0.058 A 
ATOM      9 CL   UNN dAMED       2.795   7.064  -2.772  0.00  0.00    -0.082 Cl
ATOM     10  C   UNN dAMED       2.776   4.788  -1.338  0.00  0.00     0.013 A 
ATOM     11  C   UNN dAMED       2.166   3.830  -0.534  0.00  0.00     0.026 A 
ENDBRANCH   4   5
ENDBRANCH   1   4
BRANCH   1  12
ATOM     12  C   UNN dAMED      -1.668   1.106   0.201  0.00  0.00     0.128 A 
ATOM     13  C   UNN dAMED      -2.533   2.149   0.530  0.00  0.00     0.015 A 
ATOM     14  C   UNN dAMED      -3.898   1.908   0.593  0.00  0.00     0.001 A 
ATOM     15  C   UNN dAMED      -4.382   0.634   0.318  0.00  0.00     0.002 A 
ATOM     16  C   UNN dAMED      -3.503  -0.399  -0.015  0.00  0.00     0.018 A 
ATOM     17  C   UNN dAMED      -2.113  -0.189  -0.082  0.00  0.00     0.094 A 
ATOM     18  C   UNN dAMED      -4.009  -1.665  -0.295  0.00  0.00     0.003 A 
ATOM     19  N   UNN dAMED      -1.276  -1.198  -0.411  0.00  0.00    -0.243 NA
ATOM     20  C   UNN dAMED      -1.803  -2.415  -0.674  0.00  0.00     0.099 A 
ATOM     21  C   UNN dAMED      -3.153  -2.702  -0.631  0.00  0.00     0.021 A 
ENDBRANCH   1  12
TORSDOF 3
