REMARK  0 active torsions:
REMARK  status: ('A' for Active; 'I' for Inactive)
ROOT
ATOM      1  C   UNN dAMED       1.606   0.711  -0.005  0.00  0.00     0.192 A 
ATOM      2  C   UNN dAMED       0.285   0.171  -0.001  0.00  0.00     0.039 A 
ATOM      3  C   UNN dAMED       2.645  -0.244   0.016  0.00  0.00     0.017 A 
ATOM      4  C   UNN dAMED      -0.857   0.994  -0.020  0.00  0.00     0.013 A 
ATOM      5  C   UNN dAMED      -2.148   0.467  -0.017  0.00  0.00     0.068 A 
ATOM      6  C   UNN dAMED       2.426  -1.622   0.037  0.00  0.00    -0.001 A 
ATOM      7  C   UNN dAMED       0.062  -1.232   0.021  0.00  0.00     0.003 A 
ATOM      8  C   UNN dAMED      -2.336  -0.909   0.005  0.00  0.00     0.010 A 
ATOM      9  C   UNN dAMED       1.132  -2.113   0.040  0.00  0.00    -0.000 A 
ATOM     10  C   UNN dAMED      -1.231  -1.754   0.024  0.00  0.00     0.001 A 
ATOM     11  C   UNN dAMED      -3.274   1.342  -0.037  0.00  0.00     0.101 C 
ATOM     12  N   UNN dAMED      -4.190   2.054  -0.054  0.00  0.00    -0.191 NA
ATOM     13  O   UNN dAMED       1.877   1.961  -0.024  0.00  0.00    -0.287 OA
ATOM     14  C   UNN dAMED       4.063   0.254   0.013  0.00  0.00     0.034 C 
ENDROOT
TORSDOF 0
