REMARK  1 active torsions:
REMARK  status: ('A' for Active; 'I' for Inactive)
REMARK    1  A    between atoms: C_5  and  N_15 
ROOT
ATOM      1  O   UNN dAMED      -0.765  -2.898   0.012  0.00  0.00    -0.247 OA
ATOM      2  S   UNN dAMED      -0.890  -1.761   0.984  0.00  0.00     0.088 S 
ATOM      3  C   UNN dAMED       1.698  -0.689   0.599  0.00  0.00     0.033 A 
ATOM      4  C   UNN dAMED       0.331  -0.549   0.427  0.00  0.00     0.062 A 
ATOM      5  C   UNN dAMED       2.507   0.338   0.116  0.00  0.00     0.127 A 
ATOM      6  C   UNN dAMED       1.976   1.467  -0.522  0.00  0.00     0.024 A 
ATOM      7  C   UNN dAMED      -0.227   0.573  -0.210  0.00  0.00     0.009 A 
ATOM      8  C   UNN dAMED       0.597   1.585  -0.690  0.00  0.00     0.002 A 
ATOM      9  C   UNN dAMED      -1.668   0.491  -0.294  0.00  0.00     0.009 A 
ATOM     10  C   UNN dAMED      -3.520  -0.981   0.293  0.00  0.00     0.009 A 
ATOM     11  C   UNN dAMED      -2.165  -0.692   0.278  0.00  0.00     0.060 A 
ATOM     12  C   UNN dAMED      -4.393  -0.060  -0.281  0.00  0.00     0.001 A 
ATOM     13  C   UNN dAMED      -3.910   1.122  -0.855  0.00  0.00     0.000 A 
ATOM     14  C   UNN dAMED      -2.543   1.403  -0.866  0.00  0.00     0.001 A 
ENDROOT
BRANCH   5  15
ATOM     15  N   UNN dAMED       3.945   0.238   0.283  0.00  0.00    -0.114 N 
ATOM     16  O   UNN dAMED       4.381  -0.716   0.942  0.00  0.00    -0.532 OA
ATOM     17  O   UNN dAMED       4.647   1.113  -0.242  0.00  0.00    -0.532 OA
ENDBRANCH   5  15
TORSDOF 1
