REMARK  0 active torsions:
REMARK  status: ('A' for Active; 'I' for Inactive)
ROOT
ATOM      1  O   UNN dAMED       1.211   4.038  -0.470  0.00  0.00    -0.270 OA
ATOM      2  N   UNN dAMED      -1.085   1.745   0.630  0.00  0.00    -0.259 NA
ATOM      3  N   UNN dAMED      -2.334  -0.871  -1.143  0.00  0.00    -0.351 N 
ATOM      4  N   UNN dAMED       1.776   1.818  -0.593  0.00  0.00    -0.323 N 
ATOM      5  H   UNN dAMED       2.630   2.052  -1.092  0.00  0.00     0.169 HD
ATOM      6  H   UNN dAMED      -1.736  -0.820  -1.956  0.00  0.00     0.166 HD
ATOM      7 CL   UNN dAMED       1.749  -3.801   1.242  0.00  0.00    -0.082 Cl
ATOM      8  C   UNN dAMED      -3.546  -1.507  -1.101  0.00  0.00     0.073 A 
ATOM      9  C   UNN dAMED      -4.060  -1.355   0.165  0.00  0.00     0.020 A 
ATOM     10  C   UNN dAMED      -3.122  -0.604   0.909  0.00  0.00     0.020 A 
ATOM     11  C   UNN dAMED      -2.056  -0.307   0.081  0.00  0.00     0.074 A 
ATOM     12  C   UNN dAMED      -0.892   0.497   0.365  0.00  0.00     0.093 C 
ATOM     13  C   UNN dAMED       0.458  -0.119   0.342  0.00  0.00     0.035 A 
ATOM     14  C   UNN dAMED       0.516  -1.456   0.762  0.00  0.00     0.014 A 
ATOM     15  C   UNN dAMED       1.697  -2.185   0.673  0.00  0.00     0.058 A 
ATOM     16  C   UNN dAMED       2.832  -1.616   0.122  0.00  0.00     0.013 A 
ATOM     17  C   UNN dAMED       1.623   0.485  -0.166  0.00  0.00     0.060 A 
ATOM     18  C   UNN dAMED       2.783  -0.293  -0.304  0.00  0.00     0.018 A 
ATOM     19  C   UNN dAMED      -0.000   2.605   0.908  0.00  0.00     0.213 C 
ATOM     20  C   UNN dAMED       0.999   2.868  -0.169  0.00  0.00     0.259 C 
ENDROOT
TORSDOF 0
