REMARK  2 active torsions:
REMARK  status: ('A' for Active; 'I' for Inactive)
REMARK    1  A    between atoms: N_1  and  C_5 
REMARK    2  A    between atoms: C_2  and  C_9 
ROOT
ATOM      1  N   UNN dAMED       1.367  -1.136  -0.932  0.00  0.00     0.133 N 
ATOM      2  C   UNN dAMED       1.369   0.145  -0.210  0.00  0.00     0.260 C 
ATOM      3  C   UNN dAMED       0.406   0.660  -1.262  0.00  0.00     0.071 C 
ATOM      4  C   UNN dAMED       1.150  -0.324  -2.145  0.00  0.00     0.252 C 
ENDROOT
BRANCH   1   5
ATOM      5  C   UNN dAMED       0.369  -2.131  -0.554  0.00  0.00     0.192 C 
ATOM      6  C   UNN dAMED       0.403  -3.474  -1.815  0.00  0.00     0.033 C 
ATOM      7  C   UNN dAMED       0.403  -3.475  -1.815  0.00  0.00     0.033 C 
ATOM      8  C   UNN dAMED       0.403  -3.480  -1.820  0.00  0.00     0.033 C 
ENDBRANCH   1   5
BRANCH   2   9
ATOM      9  C   UNN dAMED       0.975   0.177   1.267  0.00  0.00     0.371 C 
ATOM     10  N   UNN dAMED      -0.366  -0.228   1.649  0.00  0.00     0.620 N 
ENDBRANCH   2   9
TORSDOF 2
