REMARK  4 active torsions:
REMARK  status: ('A' for Active; 'I' for Inactive)
REMARK    1  A    between atoms: C_3  and  S_11 
REMARK    2  A    between atoms: C_5  and  N_10 
REMARK       I    between atoms: C_7  and  N_10 
REMARK    3  A    between atoms: S_11  and  N_14 
REMARK    4  A    between atoms: C_15  and  S_16 
ROOT
ATOM      1  C   UNN dAMED      -0.465   0.194  -0.634  0.00  0.00     0.015 A 
ATOM      2  C   UNN dAMED      -1.833   0.386  -0.473  0.00  0.00     0.020 A 
ATOM      3  C   UNN dAMED       0.144  -0.851   0.045  0.00  0.00     0.105 A 
ATOM      4  C   UNN dAMED      -0.566  -1.677   0.908  0.00  0.00     0.015 A 
ATOM      5  C   UNN dAMED      -2.597  -0.449   0.355  0.00  0.00     0.084 A 
ATOM      6  C   UNN dAMED      -1.933  -1.464   1.061  0.00  0.00     0.020 A 
ENDROOT
BRANCH   3   7
ATOM      7  S   UNN dAMED       1.904  -1.118  -0.179  0.00  0.00     0.287 S 
ATOM      8  O   UNN dAMED       2.426  -0.528   1.051  0.00  0.00    -0.198 OA
ATOM      9  O   UNN dAMED       2.189  -0.357  -1.394  0.00  0.00    -0.198 OA
BRANCH   7  10
ATOM     10  N   UNN dAMED       2.125  -2.700  -0.293  0.00  0.00    -0.131 NA
ATOM     11  C   UNN dAMED       1.942  -3.202  -1.489  0.00  0.00     0.222 C 
ATOM     12  N   UNN dAMED       0.763  -3.622  -1.868  0.00  0.00    -0.119 N 
BRANCH  11  13
ATOM     13  S   UNN dAMED       3.312  -3.647  -2.434  0.00  0.00    -0.072 SA
ATOM     14  C   UNN dAMED       4.134  -2.064  -2.293  0.00  0.00     0.077 C 
ENDBRANCH  11  13
ENDBRANCH   7  10
ENDBRANCH   3   7
BRANCH   5  15
ATOM     15  N   UNN dAMED      -3.926  -0.262   0.471  0.00  0.00    -0.212 NA
ATOM     16  C   UNN dAMED      -4.645  -1.174  -0.193  0.00  0.00     0.256 C 
ATOM     17  O   UNN dAMED      -4.311  -1.868  -1.150  0.00  0.00    -0.270 OA
ATOM     18  C   UNN dAMED      -6.068  -1.328   0.269  0.00  0.00     0.100 C 
ENDBRANCH   5  15
TORSDOF 4
