REMARK  4 active torsions:
REMARK  status: ('A' for Active; 'I' for Inactive)
REMARK    1  A    between atoms: C_4  and  O_8 
REMARK    2  A    between atoms: C_5  and  C_10 
REMARK    3  A    between atoms: C_10  and  C_11 
REMARK    4  A    between atoms: C_11  and  C_13 
ROOT
ATOM      1  O   UNN dAMED      -2.345   2.320   0.871  0.00  0.00    -0.259 OA
ATOM      2  O   UNN dAMED      -0.581   1.506  -0.276  0.00  0.00    -0.296 OA
ATOM      3  C   UNN dAMED      -0.718  -0.877  -0.313  0.00  0.00     0.028 C 
ATOM      4  C   UNN dAMED      -2.205  -0.985  -0.412  0.00  0.00     0.098 C 
ATOM      5  C   UNN dAMED      -0.156   0.267  -0.729  0.00  0.00     0.156 C 
ATOM      6  C   UNN dAMED      -2.697   0.175   0.025  0.00  0.00     0.092 C 
ATOM      7  C   UNN dAMED      -1.809   1.366   0.316  0.00  0.00     0.298 C 
ENDROOT
BRANCH   5   8
ATOM      8  C   UNN dAMED       1.136  -0.363  -0.204  0.00  0.00     0.111 C 
BRANCH   8   9
ATOM      9  C   UNN dAMED       1.357  -0.570   1.272  0.00  0.00     0.239 C 
ATOM     10  O   UNN dAMED       0.544  -1.202   1.934  0.00  0.00    -0.285 OA
BRANCH   9  11
ATOM     11  C   UNN dAMED       2.040   0.495   2.054  0.00  0.00     0.247 C 
ATOM     12  O   UNN dAMED       1.902   1.657   1.581  0.00  0.00    -0.642 OA
ATOM     13  O   UNN dAMED       2.694   0.099   3.059  0.00  0.00    -0.642 OA
ENDBRANCH   9  11
ENDBRANCH   8   9
ENDBRANCH   5   8
BRANCH   4  14
ATOM     14  O   UNN dAMED      -2.878  -2.165  -0.268  0.00  0.00    -0.328 OA
ATOM     15  C   UNN dAMED      -4.227  -1.813  -0.346  0.00  0.00     0.181 C 
ENDBRANCH   4  14
TORSDOF 4
