REMARK  2 active torsions:
REMARK  status: ('A' for Active; 'I' for Inactive)
REMARK    1  A    between atoms: C_13  and  N_22 
REMARK    2  A    between atoms: C_15  and  N_22 
ROOT
ATOM      1  N   UNN dAMED      -0.404   1.968  -5.578  0.00  0.00    -0.242 NA
ATOM      2  C   UNN dAMED       0.175   2.475  -4.469  0.00  0.00     0.099 A 
ATOM      3  C   UNN dAMED      -1.305   0.978  -5.390  0.00  0.00     0.099 A 
ATOM      4  C   UNN dAMED      -0.101   2.042  -3.185  0.00  0.00     0.023 A 
ATOM      5  C   UNN dAMED      -1.040   1.025  -3.029  0.00  0.00     0.025 A 
ATOM      6  C   UNN dAMED      -1.658   0.477  -4.150  0.00  0.00     0.023 A 
ATOM      7  H   UNN dAMED      -2.617   1.757  -0.810  0.00  0.00     0.170 HD
ATOM      8  C   UNN dAMED      -1.313   0.445  -1.654  0.00  0.00     0.091 C 
ATOM      9  N   UNN dAMED      -1.760   1.266  -0.590  0.00  0.00    -0.316 N 
ATOM     10  S   UNN dAMED      -0.597  -1.112  -1.195  0.00  0.00    -0.050 SA
ATOM     11  C   UNN dAMED      -0.740   1.700   0.212  0.00  0.00     0.270 C 
ATOM     12  O   UNN dAMED      -0.837   2.720   0.896  0.00  0.00    -0.266 OA
ATOM     13  C   UNN dAMED       0.734  -0.340  -0.341  0.00  0.00     0.126 C 
ATOM     14  C   UNN dAMED       0.531   0.874   0.241  0.00  0.00     0.148 C 
ATOM     15  C   UNN dAMED       1.606   1.471   0.984  0.00  0.00     0.108 C 
ATOM     16  N   UNN dAMED       2.462   1.979   1.579  0.00  0.00    -0.191 NA
ENDROOT
BRANCH  13  17
ATOM     17  N   UNN dAMED       1.820  -1.165  -0.362  0.00  0.00    -0.237 NA
BRANCH  17  18
ATOM     18  C   UNN dAMED       2.804  -0.779  -1.217  0.00  0.00     0.092 A 
ATOM     19  C   UNN dAMED       4.128  -0.544  -0.795  0.00  0.00     0.075 A 
ATOM     20 CL   UNN dAMED       4.614  -0.727   0.856  0.00  0.00    -0.081 Cl
ATOM     21  C   UNN dAMED       5.133  -0.186  -1.699  0.00  0.00     0.013 A 
ATOM     22  C   UNN dAMED       4.852  -0.066  -3.054  0.00  0.00     0.001 A 
ATOM     23  C   UNN dAMED       3.568  -0.326  -3.511  0.00  0.00     0.002 A 
ATOM     24  C   UNN dAMED       2.573  -0.687  -2.603  0.00  0.00     0.020 A 
ENDBRANCH  17  18
ENDBRANCH  13  17
TORSDOF 2
