REMARK  0 active torsions:
REMARK  status: ('A' for Active; 'I' for Inactive)
ROOT
ATOM      1  N   UNN dAMED      -0.777  -3.200  -0.929  0.00  0.00     0.018 NA
ATOM      2  N   UNN dAMED       0.408  -2.704  -0.609  0.00  0.00     0.003 NA
ATOM      3  N   UNN dAMED      -1.756  -2.248  -0.825  0.00  0.00    -0.141 NA
ATOM      4  N   UNN dAMED       0.197  -1.400  -0.324  0.00  0.00    -0.220 N 
ATOM      5  N   UNN dAMED      -3.357   1.239   1.449  0.00  0.00    -0.242 NA
ATOM      6  C   UNN dAMED      -3.133   2.364   0.737  0.00  0.00     0.099 A 
ATOM      7  C   UNN dAMED      -2.306   2.430  -0.373  0.00  0.00     0.021 A 
ATOM      8  C   UNN dAMED      -1.668   1.263  -0.775  0.00  0.00     0.006 A 
ATOM      9  C   UNN dAMED      -1.839   0.090  -0.049  0.00  0.00     0.056 A 
ATOM     10  C   UNN dAMED      -2.705   0.129   1.035  0.00  0.00     0.102 A 
ATOM     11  C   UNN dAMED      -1.165  -1.142  -0.407  0.00  0.00     0.178 A 
ATOM     12  C   UNN dAMED       1.270  -0.546  -0.030  0.00  0.00     0.080 A 
ATOM     13  C   UNN dAMED       2.072  -0.815   1.077  0.00  0.00     0.018 A 
ATOM     14  C   UNN dAMED       1.598   0.480  -0.915  0.00  0.00     0.018 A 
ATOM     15  C   UNN dAMED       2.708   1.286  -0.651  0.00  0.00    -0.003 A 
ATOM     16  C   UNN dAMED       3.190  -0.015   1.325  0.00  0.00    -0.003 A 
ATOM     17  C   UNN dAMED       3.503   1.040   0.468  0.00  0.00    -0.022 A 
ATOM     18  C   UNN dAMED       4.714   1.895   0.740  0.00  0.00     0.031 C 
ENDROOT
TORSDOF 0
