REMARK  0 active torsions:
REMARK  status: ('A' for Active; 'I' for Inactive)
ROOT
ATOM      1  O   UNN dAMED       1.886   1.274   1.969  0.00  0.00    -0.302 OA
ATOM      2  O   UNN dAMED       3.485   0.647   3.501  0.00  0.00    -0.264 OA
ATOM      3  C   UNN dAMED      -0.810   1.285   0.285  0.00  0.00    -0.002 A 
ATOM      4  C   UNN dAMED      -2.095   0.770   0.120  0.00  0.00    -0.000 A 
ATOM      5  C   UNN dAMED       0.283   0.425   0.404  0.00  0.00     0.003 A 
ATOM      6  C   UNN dAMED      -3.194   1.621   0.009  0.00  0.00    -0.000 A 
ATOM      7  C   UNN dAMED      -4.474   1.095  -0.153  0.00  0.00    -0.000 A 
ATOM      8  C   UNN dAMED       1.657   0.980   0.569  0.00  0.00     0.120 A 
ATOM      9  C   UNN dAMED       2.694  -0.068   0.148  0.00  0.00     0.043 A 
ATOM     10  C   UNN dAMED       0.093  -0.955   0.342  0.00  0.00    -0.002 A 
ATOM     11  C   UNN dAMED      -2.285  -0.628   0.066  0.00  0.00    -0.000 A 
ATOM     12  C   UNN dAMED      -4.661  -0.284  -0.206  0.00  0.00    -0.000 A 
ATOM     13  C   UNN dAMED       3.606  -0.268   1.326  0.00  0.00     0.099 A 
ATOM     14  C   UNN dAMED       3.015   0.607   2.375  0.00  0.00     0.272 A 
ATOM     15  C   UNN dAMED      -1.187  -1.480   0.176  0.00  0.00    -0.000 A 
ATOM     16  C   UNN dAMED      -3.570  -1.144  -0.098  0.00  0.00    -0.000 A 
ATOM     17  C   UNN dAMED       1.786   2.272  -0.240  0.00  0.00     0.035 C 
ENDROOT
TORSDOF 0
