REMARK  4 active torsions:
REMARK  status: ('A' for Active; 'I' for Inactive)
REMARK    1  A    between atoms: C_5  and  C_22 
REMARK    2  A    between atoms: C_9  and  C_21 
REMARK    3  A    between atoms: C_12  and  C_20 
REMARK    4  A    between atoms: C_14  and  C_19 
ROOT
ATOM      1  N   UNN dAMED       0.587   0.985  -0.367  0.00  0.00    -0.148 NA
ATOM      2  N   UNN dAMED      -0.741   0.771  -0.583  0.00  0.00    -0.148 NA
ATOM      3  C   UNN dAMED      -1.281  -0.425  -0.269  0.00  0.00     0.103 A 
ATOM      4  C   UNN dAMED      -0.531  -1.453   0.269  0.00  0.00     0.022 A 
ATOM      5  C   UNN dAMED       0.818  -1.235   0.488  0.00  0.00     0.022 A 
ATOM      6  C   UNN dAMED       1.344  -0.002   0.157  0.00  0.00     0.103 A 
ENDROOT
BRANCH   3   7
ATOM      7  C   UNN dAMED      -2.727  -0.673  -0.589  0.00  0.00     0.021 C 
ATOM      8  C   UNN dAMED      -3.499   0.326  -1.013  0.00  0.00     0.002 C 
BRANCH   8   9
ATOM      9  C   UNN dAMED      -4.922   0.046  -1.401  0.00  0.00     0.000 A 
ATOM     10  C   UNN dAMED      -5.940   0.204  -0.463  0.00  0.00     0.000 A 
ATOM     11  C   UNN dAMED      -7.236  -0.203  -0.769  0.00  0.00     0.000 A 
ATOM     12  C   UNN dAMED      -7.512  -0.773  -2.010  0.00  0.00     0.000 A 
ATOM     13  C   UNN dAMED      -6.494  -0.930  -2.947  0.00  0.00     0.000 A 
ATOM     14  C   UNN dAMED      -5.198  -0.523  -2.642  0.00  0.00     0.000 A 
ENDBRANCH   8   9
ENDBRANCH   3   7
BRANCH   6  15
ATOM     15  C   UNN dAMED       2.791   0.274   0.453  0.00  0.00     0.021 C 
ATOM     16  C   UNN dAMED       3.392   1.332  -0.088  0.00  0.00     0.002 C 
BRANCH  16  17
ATOM     17  C   UNN dAMED       4.812   1.653   0.281  0.00  0.00     0.000 A 
ATOM     18  C   UNN dAMED       5.530   0.779   1.093  0.00  0.00     0.000 A 
ATOM     19  C   UNN dAMED       6.805   1.127   1.532  0.00  0.00     0.000 A 
ATOM     20  C   UNN dAMED       7.360   2.349   1.161  0.00  0.00     0.000 A 
ATOM     21  C   UNN dAMED       6.642   3.222   0.346  0.00  0.00     0.000 A 
ATOM     22  C   UNN dAMED       5.366   2.875  -0.093  0.00  0.00     0.000 A 
ENDBRANCH  16  17
ENDBRANCH   6  15
TORSDOF 4
