REMARK  2 active torsions:
REMARK  status: ('A' for Active; 'I' for Inactive)
REMARK    1  A    between atoms: C_4  and  C_21 
REMARK    2  A    between atoms: O_20  and  C_21 
ROOT
ATOM      1  N   UNN dAMED      -2.913   0.497   0.172  0.00  0.00    -0.353 N 
ATOM      2  H   UNN dAMED      -3.809   0.959   0.250  0.00  0.00     0.166 HD
ATOM      3  N   UNN dAMED       2.145   2.582   0.182  0.00  0.00    -0.250 NA
ATOM      4  C   UNN dAMED       1.852  -0.138  -0.218  0.00  0.00     0.066 A 
ATOM      5  C   UNN dAMED       3.124   0.430  -0.204  0.00  0.00     0.020 A 
ATOM      6  C   UNN dAMED       3.221   1.784   0.025  0.00  0.00     0.060 A 
ATOM      7  C   UNN dAMED       0.683   0.644  -0.016  0.00  0.00     0.024 A 
ATOM      8  C   UNN dAMED       0.922   2.034   0.154  0.00  0.00     0.077 A 
ATOM      9  C   UNN dAMED      -0.691   0.184   0.035  0.00  0.00     0.019 A 
ATOM     10  C   UNN dAMED      -0.128   2.916   0.293  0.00  0.00    -0.003 A 
ATOM     11  C   UNN dAMED      -1.701   1.142   0.170  0.00  0.00     0.057 A 
ATOM     12  C   UNN dAMED      -1.368  -1.094   0.021  0.00  0.00     0.017 A 
ATOM     13  C   UNN dAMED      -0.954  -2.440  -0.021  0.00  0.00     0.002 A 
ATOM     14  C   UNN dAMED      -1.888  -3.476  -0.006  0.00  0.00     0.000 A 
ATOM     15  C   UNN dAMED      -2.741  -0.859   0.103  0.00  0.00     0.057 A 
ATOM     16  C   UNN dAMED      -3.244  -3.193   0.061  0.00  0.00     0.002 A 
ATOM     17  C   UNN dAMED      -1.457   2.507   0.285  0.00  0.00     0.014 A 
ATOM     18  C   UNN dAMED      -3.701  -1.877   0.121  0.00  0.00     0.017 A 
ATOM     19  C   UNN dAMED       0.181   4.377   0.462  0.00  0.00     0.033 C 
ATOM     20  C   UNN dAMED       4.587   2.408   0.084  0.00  0.00     0.052 C 
ENDROOT
BRANCH   4  21
ATOM     21  C   UNN dAMED       1.835  -1.548  -0.605  0.00  0.00     0.296 C 
ATOM     22  O   UNN dAMED       1.472  -1.959  -1.692  0.00  0.00    -0.259 OA
BRANCH  21  23
ATOM     23  O   UNN dAMED       2.382  -2.279   0.390  0.00  0.00    -0.296 OA
ATOM     24  C   UNN dAMED       2.720  -1.349   1.377  0.00  0.00     0.185 C 
ENDBRANCH  21  23
ENDBRANCH   4  21
TORSDOF 2
