REMARK  0 active torsions:
REMARK  status: ('A' for Active; 'I' for Inactive)
ROOT
ATOM      1  O   UNN dAMED       2.281   1.924  -0.507  0.00  0.00    -0.267 OA
ATOM      2  C   UNN dAMED       1.809  -0.346   0.019  0.00  0.00     0.095 A 
ATOM      3  C   UNN dAMED       1.404   1.097  -0.292  0.00  0.00     0.274 A 
ATOM      4  C   UNN dAMED       0.899  -1.296   0.263  0.00  0.00     0.175 A 
ATOM      5  N   UNN dAMED       0.068   1.406  -0.319  0.00  0.00    -0.151 N 
ATOM      6  H   UNN dAMED      -0.257   2.342  -0.519  0.00  0.00     0.188 HD
ATOM      7  C   UNN dAMED      -0.823   0.395  -0.062  0.00  0.00     0.734 A 
ATOM      8  N   UNN dAMED      -0.428  -0.909   0.218  0.00  0.00    -0.044 N 
ATOM      9  N   UNN dAMED      -1.522  -1.666   0.424  0.00  0.00    -0.126 NA
ATOM     10  N   UNN dAMED      -2.127   0.490  -0.041  0.00  0.00    -0.037 NA
ATOM     11  C   UNN dAMED      -2.516  -0.787   0.259  0.00  0.00     0.239 A 
ATOM     12  N   UNN dAMED       1.211  -2.649   0.557  0.00  0.00    -0.079 NA
ENDROOT
TORSDOF 0
