REMARK  3 active torsions:
REMARK  status: ('A' for Active; 'I' for Inactive)
REMARK    1  A    between atoms: O_1  and  C_3 
REMARK    2  A    between atoms: O_1  and  C_15 
REMARK       I    between atoms: C_3  and  N_17 
REMARK    3  A    between atoms: C_5  and  N_17 
ROOT
ATOM      1  N   UNN dAMED      -2.038  -0.980  -0.547  0.00  0.00    -0.211 NA
ATOM      2  C   UNN dAMED      -2.416   0.316  -0.693  0.00  0.00     0.170 A 
ATOM      3  C   UNN dAMED      -0.733  -1.242  -0.308  0.00  0.00     0.171 A 
ATOM      4  C   UNN dAMED      -1.519   1.368  -0.547  0.00  0.00     0.057 A 
ATOM      5  C   UNN dAMED       0.237  -0.258  -0.187  0.00  0.00     0.127 A 
ATOM      6  C   UNN dAMED      -0.177   1.074  -0.318  0.00  0.00     0.077 A 
ATOM      7  N   UNN dAMED       1.564  -0.670   0.043  0.00  0.00    -0.244 NA
ATOM      8  N   UNN dAMED       0.780   2.087  -0.150  0.00  0.00    -0.367 N 
ATOM      9  H   UNN dAMED       0.459   3.013  -0.417  0.00  0.00     0.161 HD
ATOM     10  C   UNN dAMED       2.165   1.680  -0.228  0.00  0.00     0.144 C 
ATOM     11  C   UNN dAMED       2.492   0.234   0.036  0.00  0.00     0.081 C 
ATOM     12  N   UNN dAMED      -0.323  -2.604  -0.226  0.00  0.00    -0.078 NA
ATOM     13  C   UNN dAMED       3.887  -0.148   0.213  0.00  0.00     0.015 A 
ATOM     14  C   UNN dAMED       4.614   0.484   1.214  0.00  0.00     0.001 A 
ATOM     15  C   UNN dAMED       5.969   0.196   1.340  0.00  0.00     0.000 A 
ATOM     16  C   UNN dAMED       6.578  -0.708   0.469  0.00  0.00     0.000 A 
ATOM     17  C   UNN dAMED       5.833  -1.327  -0.536  0.00  0.00     0.000 A 
ATOM     18  C   UNN dAMED       4.479  -1.041  -0.675  0.00  0.00     0.001 A 
ENDROOT
BRANCH   2  19
ATOM     19  N   UNN dAMED      -3.710   0.504  -1.029  0.00  0.00    -0.167 NA
ATOM     20  C   UNN dAMED      -3.872   0.671  -2.345  0.00  0.00     0.389 C 
ATOM     21  O   UNN dAMED      -4.377   1.639  -2.902  0.00  0.00    -0.236 OA
BRANCH  20  22
ATOM     22  O   UNN dAMED      -3.444  -0.413  -3.059  0.00  0.00    -0.283 OA
BRANCH  22  23
ATOM     23  C   UNN dAMED      -2.394  -0.925  -2.287  0.00  0.00     0.154 C 
ATOM     24  C   UNN dAMED      -1.529  -2.076  -2.811  0.00  0.00     0.035 C 
ENDBRANCH  22  23
ENDBRANCH  20  22
ENDBRANCH   2  19
TORSDOF 3
