REMARK  1 active torsions:
REMARK  status: ('A' for Active; 'I' for Inactive)
REMARK    1  A    between atoms: C_9  and  C_13 
ROOT
ATOM      1  C   UNN dAMED       1.476  -0.271   0.845  0.00  0.00    -0.000 A 
ATOM      2  C   UNN dAMED       2.792   0.182   0.871  0.00  0.00    -0.004 A 
ATOM      3  C   UNN dAMED       0.698  -0.091  -0.299  0.00  0.00    -0.000 A 
ATOM      4  C   UNN dAMED       3.334   0.805  -0.252  0.00  0.00    -0.022 A 
ATOM      5  C   UNN dAMED       1.248   0.520  -1.425  0.00  0.00    -0.000 A 
ATOM      6  C   UNN dAMED       2.565   0.970  -1.401  0.00  0.00    -0.004 A 
ATOM      7  C   UNN dAMED       4.755   1.289  -0.227  0.00  0.00     0.031 C 
ENDROOT
BRANCH   3   8
ATOM      8  C   UNN dAMED      -0.716  -0.613  -0.351  0.00  0.00     0.001 C 
ATOM      9  C   UNN dAMED      -1.714   0.025   0.255  0.00  0.00     0.043 A 
ATOM     10  C   UNN dAMED      -3.099  -0.490   0.112  0.00  0.00     0.292 A 
ATOM     11  C   UNN dAMED      -1.753   1.225   1.100  0.00  0.00     0.065 A 
ATOM     12  O   UNN dAMED      -3.976   0.308   0.806  0.00  0.00    -0.298 OA
ATOM     13  O   UNN dAMED      -3.401  -1.478  -0.536  0.00  0.00    -0.260 OA
ATOM     14  C   UNN dAMED      -3.220   1.332   1.409  0.00  0.00     0.157 A 
ENDBRANCH   3   8
TORSDOF 1
