REMARK  2 active torsions:
REMARK  status: ('A' for Active; 'I' for Inactive)
REMARK    1  A    between atoms: C_12  and  N_15 
REMARK    2  A    between atoms: N_15  and  N_16 
ROOT
ATOM      1  N   UNN dAMED       0.018   1.574  -0.317  0.00  0.00    -0.204 NA
ATOM      2  N   UNN dAMED      -2.382   1.360  -0.417  0.00  0.00    -0.320 N 
ATOM      3  H   UNN dAMED      -3.294   1.791  -0.541  0.00  0.00     0.169 HD
ATOM      4  N   UNN dAMED      -1.267  -1.809   0.277  0.00  0.00    -0.331 N 
ATOM      5  H   UNN dAMED      -0.575  -2.523   0.460  0.00  0.00     0.168 HD
ATOM      6  N   UNN dAMED      -3.274  -0.865  -0.005  0.00  0.00    -0.207 NA
ATOM      7  C   UNN dAMED       0.209   0.226  -0.083  0.00  0.00     0.203 A 
ATOM      8  C   UNN dAMED      -1.026  -0.488   0.015  0.00  0.00     0.130 A 
ATOM      9  C   UNN dAMED      -2.278   0.048  -0.148  0.00  0.00     0.162 A 
ATOM     10  C   UNN dAMED      -2.631  -1.988   0.255  0.00  0.00     0.177 A 
ATOM     11  C   UNN dAMED      -1.120   2.113  -0.448  0.00  0.00     0.178 A 
ATOM     12  N   UNN dAMED       1.358  -0.359   0.025  0.00  0.00    -0.132 NA
ENDROOT
BRANCH  12  13
ATOM     13  N   UNN dAMED       2.418   0.528  -0.115  0.00  0.00    -0.175 NA
BRANCH  13  14
ATOM     14  C   UNN dAMED       3.235   0.064  -1.000  0.00  0.00     0.125 C 
ATOM     15  C   UNN dAMED       4.522   0.935  -1.413  0.00  0.00     0.028 C 
ATOM     16  C   UNN dAMED       4.522   0.935  -1.413  0.00  0.00     0.028 C 
ENDBRANCH  13  14
ENDBRANCH  12  13
TORSDOF 2
