REMARK  2 active torsions:
REMARK  status: ('A' for Active; 'I' for Inactive)
REMARK    1  A    between atoms: N_2  and  C_23 
REMARK    2  A    between atoms: N_3  and  C_21 
ROOT
ATOM      1  C   UNN dAMED       0.289  -0.903  -1.532  0.00  0.00     0.021 A 
ATOM      2  C   UNN dAMED      -1.062  -0.990  -1.200  0.00  0.00     0.021 A 
ATOM      3  C   UNN dAMED       1.261  -1.401  -0.660  0.00  0.00     0.081 A 
ATOM      4  C   UNN dAMED       0.865  -1.898   0.583  0.00  0.00     0.021 A 
ATOM      5  C   UNN dAMED      -1.460  -1.491   0.043  0.00  0.00     0.081 A 
ATOM      6  C   UNN dAMED      -0.483  -1.946   0.930  0.00  0.00     0.021 A 
ENDROOT
BRANCH   3   7
ATOM      7  N   UNN dAMED       2.623  -1.358  -0.978  0.00  0.00    -0.247 NA
ATOM      8  C   UNN dAMED       3.117  -2.217  -1.805  0.00  0.00     0.093 C 
ATOM      9  C   UNN dAMED       2.403  -3.215  -2.685  0.00  0.00     0.186 C 
ATOM     10  C   UNN dAMED       4.482  -2.138  -2.389  0.00  0.00     0.044 C 
ATOM     11  O   UNN dAMED       1.332  -3.719  -2.440  0.00  0.00    -0.290 OA
ATOM     12  C   UNN dAMED       3.389  -3.594  -3.795  0.00  0.00     0.057 C 
ATOM     13  C   UNN dAMED       4.180  -2.223  -3.868  0.00  0.00     0.012 C 
ATOM     14  C   UNN dAMED       4.448  -4.428  -3.065  0.00  0.00     0.008 C 
ATOM     15  C   UNN dAMED       2.618  -3.766  -5.088  0.00  0.00     0.008 C 
ATOM     16  C   UNN dAMED       5.205  -2.327  -4.998  0.00  0.00     0.001 C 
ATOM     17  C   UNN dAMED       3.284  -1.179  -4.542  0.00  0.00     0.001 C 
ATOM     18  C   UNN dAMED       5.189  -3.461  -2.136  0.00  0.00     0.006 C 
ENDBRANCH   3   7
BRANCH   5  19
ATOM     19  N   UNN dAMED      -2.807  -1.727   0.341  0.00  0.00    -0.247 NA
ATOM     20  C   UNN dAMED      -3.638  -0.758   0.536  0.00  0.00     0.093 C 
ATOM     21  C   UNN dAMED      -3.384   0.716   0.286  0.00  0.00     0.186 C 
ATOM     22  C   UNN dAMED      -5.080  -0.913   0.192  0.00  0.00     0.044 C 
ATOM     23  O   UNN dAMED      -2.356   1.295   0.556  0.00  0.00    -0.290 OA
ATOM     24  C   UNN dAMED      -4.694   1.308  -0.236  0.00  0.00     0.057 C 
ATOM     25  C   UNN dAMED      -4.912   0.636  -1.600  0.00  0.00     0.008 C 
ATOM     26  C   UNN dAMED      -5.662   0.412   0.634  0.00  0.00     0.012 C 
ATOM     27  C   UNN dAMED      -4.810   2.744   0.236  0.00  0.00     0.008 C 
ATOM     28  C   UNN dAMED      -5.214  -0.838  -1.317  0.00  0.00     0.006 C 
ATOM     29  C   UNN dAMED      -7.093   0.896   0.411  0.00  0.00     0.001 C 
ATOM     30  C   UNN dAMED      -5.491   0.810   2.105  0.00  0.00     0.001 C 
ENDBRANCH   5  19
TORSDOF 2
