REMARK  6 active torsions:
REMARK  status: ('A' for Active; 'I' for Inactive)
REMARK    1  A    between atoms: C_10  and  C_12 
REMARK       I    between atoms: C_12  and  N_14 
REMARK    2  A    between atoms: N_14  and  C_15 
REMARK    3  A    between atoms: C_15  and  C_16 
REMARK    4  A    between atoms: C_16  and  N_17 
REMARK    5  A    between atoms: N_17  and  C_18 
REMARK    6  A    between atoms: N_17  and  C_20 
ROOT
ATOM      1 CL   UNN dAMED      -4.799  -1.271   1.486  0.00  0.00    -0.081 Cl
ATOM      2 CL   UNN dAMED      -5.108   1.837   0.320  0.00  0.00    -0.081 Cl
ATOM      3 CL   UNN dAMED      -1.720  -2.408   0.909  0.00  0.00    -0.081 Cl
ATOM      4 CL   UNN dAMED      -2.286   2.807  -1.134  0.00  0.00    -0.081 Cl
ATOM      5  C   UNN dAMED      -2.331  -0.915   0.367  0.00  0.00     0.071 A 
ATOM      6  C   UNN dAMED      -1.618   0.117  -0.418  0.00  0.00     0.038 A 
ATOM      7  C   UNN dAMED      -3.567  -0.456   0.637  0.00  0.00     0.080 A 
ATOM      8  C   UNN dAMED      -2.556   1.263  -0.468  0.00  0.00     0.071 A 
ATOM      9  C   UNN dAMED      -3.701   0.892   0.129  0.00  0.00     0.080 A 
ATOM     10  C   UNN dAMED      -0.409   0.004  -1.019  0.00  0.00     0.117 C 
ATOM     11 CL   UNN dAMED       0.297   1.221  -2.045  0.00  0.00    -0.077 Cl
ENDROOT
BRANCH  10  12
ATOM     12  C   UNN dAMED       0.427  -1.239  -1.002  0.00  0.00     0.290 C 
ATOM     13  O   UNN dAMED       0.113  -2.220  -1.662  0.00  0.00    -0.264 OA
ATOM     14  N   UNN dAMED       1.544  -1.093  -0.294  0.00  0.00    -0.208 NA
BRANCH  14  15
ATOM     15  C   UNN dAMED       2.485  -2.206  -0.195  0.00  0.00     0.111 C 
BRANCH  15  16
ATOM     16  C   UNN dAMED       2.891  -3.077  -1.413  0.00  0.00     0.297 C 
BRANCH  16  17
ATOM     17  N   UNN dAMED       4.032  -4.342  -1.184  0.00  0.00     0.143 N 
BRANCH  17  18
ATOM     18  C   UNN dAMED       2.827  -3.242  -1.563  0.00  0.00     0.251 C 
ATOM     19  C   UNN dAMED       3.028  -1.737  -1.415  0.00  0.00     0.037 C 
ENDBRANCH  17  18
BRANCH  17  20
ATOM     20  C   UNN dAMED       2.927  -3.117  -1.406  0.00  0.00     0.251 C 
ATOM     21  C   UNN dAMED       2.817  -2.026  -0.342  0.00  0.00     0.037 C 
ENDBRANCH  17  20
ENDBRANCH  16  17
ENDBRANCH  15  16
ENDBRANCH  14  15
ENDBRANCH  10  12
TORSDOF 6
