REMARK  4 active torsions:
REMARK  status: ('A' for Active; 'I' for Inactive)
REMARK    1  A    between atoms: C_5  and  N_8 
REMARK    2  A    between atoms: N_8  and  N_9 
REMARK    3  A    between atoms: N_8  and  C_15 
REMARK    4  A    between atoms: C_10  and  C_21 
ROOT
ATOM      1  N   UNN dAMED       0.010   0.241  -0.103  0.00  0.00    -0.237 N 
ENDROOT
BRANCH   1   2
ATOM      2  C   UNN dAMED      -1.180   0.943   0.340  0.00  0.00     0.056 C 
ATOM      3  C   UNN dAMED      -2.567   0.342   0.237  0.00  0.00     0.059 C 
ATOM      4  C   UNN dAMED      -3.594   1.440   0.504  0.00  0.00     0.129 C 
ATOM      5  S   UNN dAMED      -2.931   3.121   0.456  0.00  0.00     0.176 S 
ATOM      6  O   UNN dAMED      -3.120   3.769   1.738  0.00  0.00    -0.226 OA
ATOM      7  C   UNN dAMED      -1.257   2.464   0.334  0.00  0.00     0.164 C 
ATOM      8  O   UNN dAMED      -3.297   3.767  -0.789  0.00  0.00    -0.226 OA
ENDBRANCH   1   2
BRANCH   1   9
ATOM      9  N   UNN dAMED       0.315   0.090  -1.409  0.00  0.00    -0.162 NA
ATOM     10  C   UNN dAMED      -0.258   0.782  -2.285  0.00  0.00     0.145 C 
BRANCH  10  11
ATOM     11  C   UNN dAMED       0.118   0.652  -3.737  0.00  0.00     0.121 A 
ATOM     12  C   UNN dAMED       1.398   0.441  -4.191  0.00  0.00     0.029 A 
ATOM     13  C   UNN dAMED       1.264   0.083  -5.552  0.00  0.00     0.029 A 
ATOM     14  C   UNN dAMED      -0.087   0.094  -5.831  0.00  0.00     0.123 A 
ATOM     15  O   UNN dAMED      -0.794   0.430  -4.715  0.00  0.00    -0.303 OA
ENDBRANCH  10  11
ENDBRANCH   1   9
BRANCH   1  16
ATOM     16  C   UNN dAMED       0.863  -0.416   0.799  0.00  0.00     0.082 A 
ATOM     17  C   UNN dAMED       2.079   0.161   1.175  0.00  0.00     0.019 A 
ATOM     18  C   UNN dAMED       2.898  -0.467   2.110  0.00  0.00     0.002 A 
ATOM     19  C   UNN dAMED       2.501  -1.672   2.683  0.00  0.00     0.000 A 
ATOM     20  C   UNN dAMED       1.289  -2.252   2.317  0.00  0.00     0.002 A 
ATOM     21  C   UNN dAMED       0.472  -1.625   1.380  0.00  0.00     0.019 A 
ENDBRANCH   1  16
TORSDOF 4
