REMARK  1 active torsions:
REMARK  status: ('A' for Active; 'I' for Inactive)
REMARK    1  A    between atoms: C_3  and  C_22 
ROOT
ATOM      1  O   UNN dAMED      -5.429  -0.926   1.525  0.00  0.00    -0.287 OA
ATOM      2  O   UNN dAMED      -0.531   2.992  -0.066  0.00  0.00    -0.297 OA
ATOM      3  C   UNN dAMED       3.524  -0.170   0.507  0.00  0.00    -0.010 C 
ATOM      4  C   UNN dAMED       2.141   0.480   0.108  0.00  0.00     0.019 C 
ATOM      5  C   UNN dAMED       3.407  -1.679   0.402  0.00  0.00     0.024 C 
ATOM      6  C   UNN dAMED       1.480   1.798  -0.091  0.00  0.00     0.067 C 
ATOM      7  C   UNN dAMED      -0.026   1.893  -0.173  0.00  0.00     0.144 C 
ATOM      8  C   UNN dAMED       2.045  -1.951  -0.226  0.00  0.00    -0.001 C 
ATOM      9  C   UNN dAMED       1.420  -0.615  -0.705  0.00  0.00     0.017 C 
ATOM     10  C   UNN dAMED      -0.717   0.729  -0.855  0.00  0.00     0.076 C 
ATOM     11  C   UNN dAMED      -0.064  -0.586  -0.411  0.00  0.00     0.015 C 
ATOM     12  C   UNN dAMED      -2.199   0.769  -0.506  0.00  0.00     0.023 C 
ATOM     13  C   UNN dAMED      -2.347   0.818   1.023  0.00  0.00    -0.023 C 
ATOM     14  C   UNN dAMED      -3.344   0.201   1.650  0.00  0.00     0.037 C 
ATOM     15  C   UNN dAMED      -0.751  -1.708  -1.199  0.00  0.00    -0.006 C 
ATOM     16  C   UNN dAMED      -2.959  -0.403  -1.016  0.00  0.00     0.029 C 
ATOM     17  C   UNN dAMED      -4.555  -0.354   0.909  0.00  0.00     0.191 C 
ATOM     18  C   UNN dAMED      -2.263  -1.762  -1.016  0.00  0.00     0.004 C 
ATOM     19  C   UNN dAMED      -3.822  -1.059  -0.221  0.00  0.00     0.016 C 
ATOM     20  C   UNN dAMED      -2.814   2.061  -1.051  0.00  0.00     0.005 C 
ATOM     21  C   UNN dAMED       3.596  -0.067   0.500  0.00  0.00     0.004 C 
ENDROOT
BRANCH   3  22
ATOM     22  C   UNN dAMED       4.400   0.500   1.626  0.00  0.00     0.166 C 
ATOM     23  O   UNN dAMED       4.227   0.249   2.815  0.00  0.00    -0.292 OA
ATOM     24  C   UNN dAMED       3.363  -0.218   0.556  0.00  0.00     0.077 C 
ENDBRANCH   3  22
TORSDOF 1
