REMARK  2 active torsions:
REMARK  status: ('A' for Active; 'I' for Inactive)
REMARK    1  A    between atoms: C_8  and  S_11 
REMARK    2  A    between atoms: S_11  and  C_12 
ROOT
ATOM      1  N   UNN dAMED       0.265  -0.680  -0.161  0.00  0.00    -0.337 N 
ATOM      2  H   UNN dAMED       0.797  -1.518  -0.360  0.00  0.00     0.168 HD
ATOM      3  O   UNN dAMED      -1.857   2.604   0.572  0.00  0.00    -0.265 OA
ATOM      4  N   UNN dAMED       0.225   1.635   0.335  0.00  0.00    -0.185 NA
ATOM      5  C   UNN dAMED      -1.100  -0.766  -0.179  0.00  0.00     0.036 A 
ATOM      6  C   UNN dAMED      -1.851   0.316   0.058  0.00  0.00     0.048 A 
ATOM      7  C   UNN dAMED      -1.164   1.616   0.346  0.00  0.00     0.278 A 
ATOM      8  C   UNN dAMED       0.861   0.527   0.090  0.00  0.00     0.171 A 
ATOM      9  C   UNN dAMED      -1.761  -2.081  -0.480  0.00  0.00     0.050 C 
ATOM     10  C   UNN dAMED      -3.350   0.236   0.029  0.00  0.00     0.037 C 
ENDROOT
BRANCH   8  11
ATOM     11  S   UNN dAMED       2.615   0.552   0.068  0.00  0.00    -0.077 SA
BRANCH  11  12
ATOM     12  C   UNN dAMED       2.770  -0.783  -1.116  0.00  0.00     0.065 C 
ATOM     13  C   UNN dAMED       4.150  -1.359  -1.447  0.00  0.00     0.013 C 
ENDBRANCH  11  12
ENDBRANCH   8  11
TORSDOF 2
