REMARK  2 active torsions:
REMARK  status: ('A' for Active; 'I' for Inactive)
REMARK    1  A    between atoms: C_6  and  N_17 
REMARK       I    between atoms: C_9  and  N_17 
REMARK       I    between atoms: C_9  and  N_18 
REMARK    2  A    between atoms: C_11  and  N_18 
ROOT
ATOM      1  C   UNN dAMED      -1.199  -0.030  -2.421  0.00  0.00     0.369 C 
ATOM      2  O   UNN dAMED      -2.159  -0.337  -3.129  0.00  0.00    -0.242 OA
ATOM      3  N   UNN dAMED      -1.226   0.186  -1.081  0.00  0.00    -0.189 NA
ATOM      4  N   UNN dAMED       0.067   0.204  -2.849  0.00  0.00    -0.189 NA
ENDROOT
BRANCH   3   5
ATOM      5  C   UNN dAMED      -2.422  -0.043  -0.483  0.00  0.00     0.107 A 
ATOM      6  C   UNN dAMED      -2.789  -1.324  -0.013  0.00  0.00     0.076 A 
ATOM      7  C   UNN dAMED      -3.987  -1.541   0.672  0.00  0.00     0.013 A 
ATOM      8 CL   UNN dAMED      -1.780  -2.713  -0.245  0.00  0.00    -0.081 Cl
ATOM      9  C   UNN dAMED      -4.855  -0.486   0.918  0.00  0.00     0.002 A 
ATOM     10  C   UNN dAMED      -4.528   0.786   0.472  0.00  0.00     0.013 A 
ATOM     11  C   UNN dAMED      -3.331   1.006  -0.215  0.00  0.00     0.076 A 
ATOM     12 CL   UNN dAMED      -3.024   2.638  -0.708  0.00  0.00    -0.081 Cl
ENDBRANCH   3   5
BRANCH   4  13
ATOM     13  C   UNN dAMED       0.352  -0.288  -4.070  0.00  0.00     0.105 A 
ATOM     14  C   UNN dAMED       0.209   0.484  -5.218  0.00  0.00     0.118 A 
ATOM     15  N   UNN dAMED       0.555   0.097  -6.466  0.00  0.00    -0.247 NA
ATOM     16  C   UNN dAMED       1.098  -1.133  -6.590  0.00  0.00     0.060 A 
ATOM     17  C   UNN dAMED       1.302  -1.986  -5.517  0.00  0.00     0.016 A 
ATOM     18  C   UNN dAMED       1.516  -1.591  -7.959  0.00  0.00     0.052 C 
ATOM     19  C   UNN dAMED       0.928  -1.545  -4.251  0.00  0.00     0.022 A 
ENDBRANCH   4  13
TORSDOF 2
