REMARK  3 active torsions:
REMARK  status: ('A' for Active; 'I' for Inactive)
REMARK    1  A    between atoms: C_7  and  N_18 
REMARK    2  A    between atoms: C_10  and  N_13 
REMARK       I    between atoms: N_16  and  C_17 
REMARK    3  A    between atoms: C_17  and  C_21 
ROOT
ATOM      1  C   UNN dAMED       2.034  -0.017  -0.787  0.00  0.00     0.020 A 
ATOM      2  C   UNN dAMED      -2.740  -0.942  -0.247  0.00  0.00     0.020 A 
ATOM      3  C   UNN dAMED       3.147   0.827  -0.788  0.00  0.00     0.018 A 
ATOM      4  C   UNN dAMED       0.788   0.369  -0.262  0.00  0.00     0.073 A 
ATOM      5  C   UNN dAMED      -1.647  -0.100  -0.006  0.00  0.00     0.073 A 
ATOM      6  C   UNN dAMED      -4.065  -0.528  -0.162  0.00  0.00     0.018 A 
ATOM      7  C   UNN dAMED       3.047   2.100  -0.245  0.00  0.00     0.057 A 
ATOM      8  C   UNN dAMED       0.707   1.654   0.285  0.00  0.00     0.047 A 
ATOM      9  C   UNN dAMED      -1.948   1.179   0.468  0.00  0.00     0.047 A 
ATOM     10  C   UNN dAMED      -4.342   0.765   0.242  0.00  0.00     0.057 A 
ATOM     11  C   UNN dAMED       1.830   2.497   0.295  0.00  0.00     0.025 A 
ATOM     12  C   UNN dAMED      -3.283   1.599   0.585  0.00  0.00     0.025 A 
ATOM     13  S   UNN dAMED      -0.743   2.346   1.007  0.00  0.00    -0.084 SA
ATOM     14  O   UNN dAMED       0.894  -2.579  -0.340  0.00  0.00    -0.267 OA
ATOM     15  N   UNN dAMED      -0.317  -0.562  -0.332  0.00  0.00    -0.274 N 
ATOM     16  C   UNN dAMED      -0.051  -1.896  -0.742  0.00  0.00     0.265 C 
ENDROOT
BRANCH  16  17
ATOM     17  C   UNN dAMED      -0.946  -2.547  -1.721  0.00  0.00     0.057 A 
ATOM     18  C   UNN dAMED      -1.439  -3.820  -1.414  0.00  0.00     0.005 A 
ATOM     19  C   UNN dAMED      -2.352  -4.433  -2.268  0.00  0.00     0.000 A 
ATOM     20  C   UNN dAMED      -2.797  -3.759  -3.402  0.00  0.00     0.000 A 
ATOM     21  C   UNN dAMED      -2.308  -2.486  -3.699  0.00  0.00     0.000 A 
ATOM     22  C   UNN dAMED      -1.361  -1.883  -2.873  0.00  0.00     0.005 A 
ENDBRANCH  16  17
BRANCH   7  23
ATOM     23  N   UNN dAMED       4.145   2.975  -0.241  0.00  0.00    -0.344 N 
ATOM     24  C   UNN dAMED       5.491   2.453  -0.379  0.00  0.00     0.126 C 
ATOM     25  C   UNN dAMED       3.938   4.402  -0.080  0.00  0.00     0.126 C 
ENDBRANCH   7  23
BRANCH  10  26
ATOM     26  N   UNN dAMED      -5.670   1.207   0.339  0.00  0.00    -0.344 N 
ATOM     27  C   UNN dAMED      -6.695   0.567  -0.464  0.00  0.00     0.126 C 
ATOM     28  C   UNN dAMED      -5.997   2.296   1.236  0.00  0.00     0.126 C 
ENDBRANCH  10  26
TORSDOF 3
