REMARK  4 active torsions:
REMARK  status: ('A' for Active; 'I' for Inactive)
REMARK    1  A    between atoms: N_10  and  N_23 
REMARK    2  A    between atoms: S_11  and  C_14 
REMARK    3  A    between atoms: S_11  and  N_23 
REMARK    4  A    between atoms: C_19  and  N_25 
REMARK       I    between atoms: C_20  and  N_25 
ROOT
ATOM      1  S   UNN dAMED       0.048  -0.564   0.056  0.00  0.00     0.302 S 
ATOM      2  O   UNN dAMED       0.002  -0.345  -1.388  0.00  0.00    -0.197 OA
ATOM      3  O   UNN dAMED       1.377  -0.868   0.583  0.00  0.00    -0.197 OA
ENDROOT
BRANCH   1   4
ATOM      4  C   UNN dAMED      -0.786  -2.143   0.241  0.00  0.00     0.108 A 
ATOM      5  C   UNN dAMED      -0.742  -2.763   1.485  0.00  0.00     0.015 A 
ATOM      6  C   UNN dAMED      -1.505  -3.910   1.689  0.00  0.00     0.021 A 
ATOM      7  C   UNN dAMED      -2.337  -4.428   0.683  0.00  0.00     0.097 A 
ATOM      8  C   UNN dAMED      -2.343  -3.779  -0.562  0.00  0.00     0.088 A 
ATOM      9  C   UNN dAMED      -1.586  -2.629  -0.786  0.00  0.00     0.029 A 
ATOM     10  N   UNN dAMED      -3.139  -4.311  -1.616  0.00  0.00    -0.099 NA
BRANCH   7  11
ATOM     11  N   UNN dAMED      -3.070  -5.541   0.881  0.00  0.00    -0.211 NA
ATOM     12  C   UNN dAMED      -4.169  -5.252   1.576  0.00  0.00     0.256 C 
ATOM     13  O   UNN dAMED      -5.271  -5.770   1.447  0.00  0.00    -0.270 OA
ATOM     14  C   UNN dAMED      -4.023  -4.207   2.650  0.00  0.00     0.100 C 
ENDBRANCH   7  11
ENDBRANCH   1   4
BRANCH   1  15
ATOM     15  N   UNN dAMED      -0.808   0.443   0.959  0.00  0.00    -0.052 NA
BRANCH  15  16
ATOM     16  N   UNN dAMED      -1.331   1.437   0.221  0.00  0.00    -0.112 NA
ATOM     17  C   UNN dAMED      -2.581   1.266  -0.074  0.00  0.00     0.197 A 
ATOM     18  S   UNN dAMED      -3.429   2.595  -0.937  0.00  0.00    -0.047 SA
ATOM     19  N   UNN dAMED      -3.447   0.200   0.158  0.00  0.00    -0.304 N 
ATOM     20  C   UNN dAMED      -4.952   1.679  -0.908  0.00  0.00     0.048 A 
ATOM     21  C   UNN dAMED      -6.186   2.064  -1.400  0.00  0.00     0.008 A 
ATOM     22  C   UNN dAMED      -4.757   0.428  -0.310  0.00  0.00     0.068 A 
ATOM     23  C   UNN dAMED      -7.242   1.159  -1.288  0.00  0.00     0.001 A 
ATOM     24  C   UNN dAMED      -7.051  -0.099  -0.700  0.00  0.00     0.002 A 
ATOM     25  C   UNN dAMED      -5.802  -0.474  -0.205  0.00  0.00     0.018 A 
ATOM     26  C   UNN dAMED      -2.965  -1.116   0.535  0.00  0.00     0.133 C 
ENDBRANCH  15  16
ENDBRANCH   1  15
TORSDOF 4
