REMARK  0 active torsions:
REMARK  status: ('A' for Active; 'I' for Inactive)
ROOT
ATOM      1  O   UNN dAMED      -0.418   2.634  -0.563  0.00  0.00    -0.286 OA
ATOM      2  O   UNN dAMED      -0.148  -2.663   0.561  0.00  0.00    -0.286 OA
ATOM      3  C   UNN dAMED       2.071   1.553  -0.239  0.00  0.00     0.051 C 
ATOM      4  C   UNN dAMED       0.992   0.760  -0.141  0.00  0.00     0.052 A 
ATOM      5  C   UNN dAMED       3.403   0.937   0.065  0.00  0.00     0.047 C 
ATOM      6  C   UNN dAMED      -0.321   1.438  -0.310  0.00  0.00     0.196 A 
ATOM      7  C   UNN dAMED      -1.526   0.604  -0.151  0.00  0.00     0.042 A 
ATOM      8  C   UNN dAMED      -2.771   1.219  -0.299  0.00  0.00     0.003 A 
ATOM      9  C   UNN dAMED      -3.942   0.479  -0.155  0.00  0.00     0.000 A 
ATOM     10  C   UNN dAMED       3.482  -0.585  -0.050  0.00  0.00     0.047 C 
ATOM     11  C   UNN dAMED       1.065  -0.654   0.145  0.00  0.00     0.052 A 
ATOM     12  C   UNN dAMED      -1.456  -0.757   0.144  0.00  0.00     0.042 A 
ATOM     13  C   UNN dAMED      -3.873  -0.880   0.139  0.00  0.00     0.000 A 
ATOM     14  C   UNN dAMED       2.218  -1.334   0.248  0.00  0.00     0.051 C 
ATOM     15  C   UNN dAMED      -0.173  -1.463   0.309  0.00  0.00     0.196 A 
ATOM     16  C   UNN dAMED      -2.633  -1.496   0.288  0.00  0.00     0.003 A 
ATOM     17  N   UNN dAMED       1.870   2.945  -0.458  0.00  0.00    -0.105 NA
ATOM     18  N   UNN dAMED       2.158  -2.738   0.468  0.00  0.00    -0.105 NA
ENDROOT
TORSDOF 0
