REMARK  3 active torsions:
REMARK  status: ('A' for Active; 'I' for Inactive)
REMARK    1  A    between atoms: C_3  and  C_14 
REMARK    2  A    between atoms: C_7  and  C_14 
REMARK    3  A    between atoms: C_14  and  C_15 
ROOT
ATOM      1  C   UNN dAMED      -1.135   0.488  -0.913  0.00  0.00     0.070 C 
ENDROOT
BRANCH   1   2
ATOM      2  C   UNN dAMED      -2.419   1.266  -1.159  0.00  0.00     0.004 A 
ATOM      3  C   UNN dAMED      -2.620   2.491  -0.518  0.00  0.00    -0.000 A 
ATOM      4  C   UNN dAMED      -3.788   3.214  -0.740  0.00  0.00    -0.000 A 
ATOM      5  C   UNN dAMED      -4.754   2.715  -1.611  0.00  0.00    -0.000 A 
ATOM      6  C   UNN dAMED      -4.556   1.496  -2.257  0.00  0.00    -0.000 A 
ATOM      7  C   UNN dAMED      -3.388   0.770  -2.031  0.00  0.00    -0.000 A 
ENDBRANCH   1   2
BRANCH   1   8
ATOM      8  C   UNN dAMED      -1.044  -0.705   0.082  0.00  0.00     0.151 C 
ATOM      9  C   UNN dAMED       0.383  -1.113   0.468  0.00  0.00     0.035 C 
ATOM     10  C   UNN dAMED       1.229  -1.864  -0.563  0.00  0.00     0.003 C 
ATOM     11  C   UNN dAMED       0.544  -3.057  -1.220  0.00  0.00     0.000 C 
ATOM     12  C   UNN dAMED      -0.961  -3.133  -0.972  0.00  0.00     0.003 C 
ATOM     13  C   UNN dAMED      -1.687  -1.789  -0.817  0.00  0.00     0.035 C 
ATOM     14  O   UNN dAMED      -1.757  -0.527   1.166  0.00  0.00    -0.221 OA
ENDBRANCH   1   8
BRANCH   1  15
ATOM     15  C   UNN dAMED       0.033   0.709  -1.844  0.00  0.00     0.209 C 
ATOM     16  O   UNN dAMED       0.060   0.010  -2.902  0.00  0.00    -0.644 OA
ATOM     17  O   UNN dAMED       0.904   1.555  -1.478  0.00  0.00    -0.644 OA
ENDBRANCH   1  15
TORSDOF 3
