REMARK  2 active torsions:
REMARK  status: ('A' for Active; 'I' for Inactive)
REMARK    1  A    between atoms: N_4  and  C_13 
REMARK    2  A    between atoms: C_7  and  C_18 
ROOT
ATOM      1  N   UNN dAMED      -0.487   0.317  -1.607  0.00  0.00    -0.249 NA
ATOM      2  C   UNN dAMED       0.122   0.500  -0.483  0.00  0.00     0.068 C 
ATOM      3  C   UNN dAMED      -0.664   0.877   0.741  0.00  0.00     0.052 C 
ENDROOT
BRANCH   2   4
ATOM      4  C   UNN dAMED       1.628   0.417  -0.344  0.00  0.00     0.116 C 
ATOM      5  C   UNN dAMED       2.228   0.649   1.014  0.00  0.00     0.304 C 
ATOM      6  O   UNN dAMED       3.407   0.038   1.306  0.00  0.00    -0.277 OA
ATOM      7  O   UNN dAMED       1.777   1.553   1.708  0.00  0.00    -0.259 OA
ATOM      8  C   UNN dAMED       3.514  -0.899   0.303  0.00  0.00     0.085 C 
ATOM      9  C   UNN dAMED       3.082  -0.719  -0.951  0.00  0.00     0.063 C 
ATOM     10  C   UNN dAMED       4.367  -2.123   0.504  0.00  0.00     0.059 C 
ATOM     11  C   UNN dAMED       2.578   0.611  -1.536  0.00  0.00     0.204 C 
ATOM     12  O   UNN dAMED       2.175   0.639  -2.689  0.00  0.00    -0.286 OA
ENDBRANCH   2   4
BRANCH   1  13
ATOM     13  C   UNN dAMED      -1.878   0.488  -1.521  0.00  0.00     0.091 A 
ATOM     14  C   UNN dAMED      -2.409   1.776  -1.375  0.00  0.00     0.020 A 
ATOM     15  C   UNN dAMED      -3.785   1.983  -1.321  0.00  0.00     0.002 A 
ATOM     16  C   UNN dAMED      -4.652   0.901  -1.431  0.00  0.00     0.001 A 
ATOM     17  C   UNN dAMED      -4.143  -0.384  -1.593  0.00  0.00     0.013 A 
ATOM     18  C   UNN dAMED      -2.765  -0.589  -1.640  0.00  0.00     0.075 A 
ATOM     19 CL   UNN dAMED      -2.202  -2.203  -1.865  0.00  0.00    -0.081 Cl
ENDBRANCH   1  13
TORSDOF 2
