REMARK  4 active torsions:
REMARK  status: ('A' for Active; 'I' for Inactive)
REMARK    1  A    between atoms: C_6  and  C_20 
REMARK    2  A    between atoms: C_7  and  C_21 
REMARK    3  A    between atoms: C_10  and  O_16 
REMARK    4  A    between atoms: C_12  and  O_18 
ROOT
ATOM      1  N   UNN dAMED       0.698  -2.538  -0.536  0.00  0.00    -0.270 NA
ATOM      2  C   UNN dAMED       0.471  -1.284  -0.303  0.00  0.00     0.076 C 
ATOM      3  C   UNN dAMED      -0.884  -0.719  -0.293  0.00  0.00     0.015 A 
ATOM      4  C   UNN dAMED      -1.026   0.624   0.033  0.00  0.00     0.027 A 
ATOM      5  C   UNN dAMED      -2.304   1.170   0.036  0.00  0.00     0.116 A 
ATOM      6  C   UNN dAMED      -1.992  -1.502  -0.624  0.00  0.00    -0.017 A 
ATOM      7  C   UNN dAMED      -3.413   0.391  -0.286  0.00  0.00     0.116 A 
ATOM      8  C   UNN dAMED      -1.729  -2.897  -1.087  0.00  0.00     0.053 C 
ATOM      9  C   UNN dAMED      -0.393  -3.454  -0.611  0.00  0.00     0.130 C 
ATOM     10  C   UNN dAMED      -3.267  -0.949  -0.631  0.00  0.00     0.022 A 
ENDROOT
BRANCH   2  11
ATOM     11  C   UNN dAMED       1.636  -0.346  -0.132  0.00  0.00     0.021 C 
ATOM     12  C   UNN dAMED       2.226   0.193  -1.198  0.00  0.00     0.026 C 
BRANCH  12  13
ATOM     13  C   UNN dAMED       3.190   1.331  -1.037  0.00  0.00     0.100 A 
ATOM     14  O   UNN dAMED       3.932   1.540   0.075  0.00  0.00    -0.305 OA
ATOM     15  C   UNN dAMED       4.703   2.636  -0.186  0.00  0.00     0.123 A 
ATOM     16  C   UNN dAMED       4.446   3.104  -1.458  0.00  0.00     0.029 A 
ATOM     17  C   UNN dAMED       3.462   2.252  -2.014  0.00  0.00     0.027 A 
ENDBRANCH  12  13
ENDBRANCH   2  11
BRANCH   5  18
ATOM     18  O   UNN dAMED      -2.449   2.487   0.356  0.00  0.00    -0.326 OA
ATOM     19  C   UNN dAMED      -1.252   2.845   0.980  0.00  0.00     0.181 C 
ENDBRANCH   5  18
BRANCH   7  20
ATOM     20  O   UNN dAMED      -4.666   0.926  -0.256  0.00  0.00    -0.326 OA
ATOM     21  C   UNN dAMED      -4.628   1.897   0.748  0.00  0.00     0.181 C 
ENDBRANCH   7  20
TORSDOF 4
