REMARK  5 active torsions:
REMARK  status: ('A' for Active; 'I' for Inactive)
REMARK    1  A    between atoms: O_1  and  C_4 
REMARK    2  A    between atoms: O_1  and  C_10 
REMARK    3  A    between atoms: C_5  and  C_17 
REMARK    4  A    between atoms: C_13  and  C_14 
REMARK    5  A    between atoms: C_17  and  C_18 
ROOT
ATOM      1  C   UNN dAMED       0.857   0.932  -0.124  0.00  0.00     0.024 A 
ATOM      2  C   UNN dAMED       2.163   1.184  -0.538  0.00  0.00    -0.002 A 
ATOM      3  C   UNN dAMED       0.548  -0.285   0.482  0.00  0.00     0.100 A 
ATOM      4  C   UNN dAMED       3.161   0.236  -0.318  0.00  0.00    -0.023 A 
ATOM      5  C   UNN dAMED       1.545  -1.225   0.735  0.00  0.00     0.024 A 
ATOM      6  C   UNN dAMED       2.852  -0.966   0.320  0.00  0.00    -0.002 A 
ENDROOT
BRANCH   3   7
ATOM      7  O   UNN dAMED      -0.716  -0.475   0.985  0.00  0.00    -0.307 OA
BRANCH   7   8
ATOM      8  C   UNN dAMED      -1.625  -1.112   0.167  0.00  0.00     0.100 A 
ATOM      9  C   UNN dAMED      -1.435  -1.321  -1.199  0.00  0.00     0.025 A 
ATOM     10  C   UNN dAMED      -2.420  -1.954  -1.954  0.00  0.00     0.002 A 
ATOM     11  C   UNN dAMED      -3.607  -2.364  -1.351  0.00  0.00     0.006 A 
ATOM     12  C   UNN dAMED      -3.812  -2.143   0.012  0.00  0.00     0.066 A 
ATOM     13  C   UNN dAMED      -2.819  -1.515   0.769  0.00  0.00     0.031 A 
BRANCH  12  14
ATOM     14  C   UNN dAMED      -5.073  -2.596   0.653  0.00  0.00     0.211 C 
ATOM     15  O   UNN dAMED      -5.916  -1.694   0.946  0.00  0.00    -0.644 OA
ATOM     16  O   UNN dAMED      -5.192  -3.844   0.843  0.00  0.00    -0.644 OA
ENDBRANCH  12  14
ENDBRANCH   7   8
ENDBRANCH   3   7
BRANCH   4  17
ATOM     17  C   UNN dAMED       4.555   0.507  -0.767  0.00  0.00     0.019 C 
ATOM     18  C   UNN dAMED       5.547  -0.161   0.205  0.00  0.00     0.004 C 
ATOM     19  C   UNN dAMED       4.543   0.968  -2.205  0.00  0.00     0.004 C 
BRANCH  17  20
ATOM     20  C   UNN dAMED       5.214   1.554   0.190  0.00  0.00     0.004 C 
ATOM     21  C   UNN dAMED       6.728   1.539   0.428  0.00  0.00     0.000 C 
ENDBRANCH  17  20
ENDBRANCH   4  17
TORSDOF 5
