REMARK  6 active torsions:
REMARK  status: ('A' for Active; 'I' for Inactive)
REMARK    1  A    between atoms: N_1  and  C_26 
REMARK    2  A    between atoms: C_16  and  O_22 
REMARK    3  A    between atoms: C_19  and  O_20 
REMARK    4  A    between atoms: O_22  and  C_23 
REMARK    5  A    between atoms: C_23  and  C_24 
REMARK    6  A    between atoms: C_24  and  C_26 
ROOT
ATOM      1  N   UNN dAMED       1.604  -1.262  -1.232  0.00  0.00     0.143 N 
ATOM      2  N   UNN dAMED       2.562  -0.016   1.689  0.00  0.00    -0.248 NA
ATOM      3 CL   UNN dAMED       5.746   4.099   4.470  0.00  0.00    -0.082 Cl
ATOM      4  C   UNN dAMED       3.041   2.311   2.165  0.00  0.00     0.012 A 
ATOM      5  C   UNN dAMED       3.790   3.285   2.816  0.00  0.00     0.012 A 
ATOM      6  C   UNN dAMED       3.373   0.961   2.295  0.00  0.00     0.037 A 
ATOM      7  C   UNN dAMED       4.878   2.905   3.594  0.00  0.00     0.058 A 
ATOM      8  C   UNN dAMED       4.487   0.594   3.052  0.00  0.00     0.012 A 
ATOM      9  C   UNN dAMED       5.241   1.566   3.703  0.00  0.00     0.012 A 
ATOM     10  C   UNN dAMED       1.269   0.373   0.948  0.00  0.00     0.112 C 
ATOM     11  C   UNN dAMED       1.163   0.185  -0.568  0.00  0.00     0.268 C 
ATOM     12  C   UNN dAMED       1.364   0.492   0.865  0.00  0.00     0.112 C 
ATOM     13  C   UNN dAMED       0.715  -0.375  -0.217  0.00  0.00     0.268 C 
ENDROOT
BRANCH   1  14
ATOM     14  C   UNN dAMED       1.163   0.204  -0.590  0.00  0.00     0.286 C 
BRANCH  14  15
ATOM     15  C   UNN dAMED       1.526   1.493  -1.350  0.00  0.00     0.215 C 
ATOM     16  O   UNN dAMED       0.962   2.681  -0.970  0.00  0.00    -0.219 OA
BRANCH  15  17
ATOM     17  C   UNN dAMED       2.257   1.387  -2.706  0.00  0.00     0.184 C 
BRANCH  17  18
ATOM     18  O   UNN dAMED       3.206   2.335  -3.110  0.00  0.00    -0.328 OA
BRANCH  18  19
ATOM     19  C   UNN dAMED       4.391   1.660  -3.143  0.00  0.00     0.096 A 
ATOM     20  C   UNN dAMED       5.500   2.251  -3.741  0.00  0.00     0.024 A 
ATOM     21  C   UNN dAMED       6.711   1.556  -3.771  0.00  0.00     0.004 A 
ATOM     22  C   UNN dAMED       6.803   0.287  -3.202  0.00  0.00     0.024 A 
ATOM     23  C   UNN dAMED       5.679  -0.274  -2.605  0.00  0.00     0.096 A 
ATOM     24  C   UNN dAMED       4.464   0.401  -2.570  0.00  0.00     0.048 A 
BRANCH  23  25
ATOM     25  O   UNN dAMED       5.765  -1.502  -2.024  0.00  0.00    -0.328 OA
ATOM     26  C   UNN dAMED       6.897  -2.095  -2.587  0.00  0.00     0.181 C 
ENDBRANCH  23  25
ENDBRANCH  18  19
ENDBRANCH  17  18
ENDBRANCH  15  17
ENDBRANCH  14  15
ENDBRANCH   1  14
TORSDOF 6
