REMARK  3 active torsions:
REMARK  status: ('A' for Active; 'I' for Inactive)
REMARK    1  A    between atoms: C_3  and  C_17 
REMARK    2  A    between atoms: C_8  and  C_13 
REMARK    3  A    between atoms: C_13  and  C_14 
ROOT
ATOM      1  C   UNN dAMED      -0.015   1.742   0.026  0.00  0.00     0.064 C 
ATOM      2  C   UNN dAMED       0.721   0.845  -0.643  0.00  0.00     0.006 C 
ENDROOT
BRANCH   1   3
ATOM      3  C   UNN dAMED      -1.047   1.311   0.964  0.00  0.00     0.006 A 
ATOM      4  C   UNN dAMED      -1.543   0.009   0.882  0.00  0.00     0.000 A 
ATOM      5  C   UNN dAMED      -2.512  -0.440   1.782  0.00  0.00     0.000 A 
ATOM      6  C   UNN dAMED      -3.004   0.416   2.763  0.00  0.00     0.000 A 
ATOM      7  C   UNN dAMED      -2.516   1.715   2.855  0.00  0.00     0.000 A 
ATOM      8  C   UNN dAMED      -1.530   2.148   1.971  0.00  0.00     0.000 A 
ENDBRANCH   1   3
BRANCH   1   9
ATOM      9  C   UNN dAMED       0.145   3.186  -0.411  0.00  0.00     0.211 C 
ATOM     10  O   UNN dAMED       1.236   3.410  -1.014  0.00  0.00    -0.644 OA
ATOM     11  O   UNN dAMED      -0.803   3.980  -0.165  0.00  0.00    -0.644 OA
ENDBRANCH   1   9
BRANCH   2  12
ATOM     12  C   UNN dAMED       1.763  -0.075  -0.035  0.00  0.00     0.000 A 
ATOM     13  C   UNN dAMED       2.284   0.146   1.241  0.00  0.00     0.000 A 
ATOM     14  C   UNN dAMED       3.338  -0.631   1.713  0.00  0.00     0.000 A 
ATOM     15  C   UNN dAMED       3.888  -1.621   0.901  0.00  0.00     0.000 A 
ATOM     16  C   UNN dAMED       3.386  -1.832  -0.381  0.00  0.00     0.000 A 
ATOM     17  C   UNN dAMED       2.326  -1.058  -0.848  0.00  0.00     0.000 A 
ENDBRANCH   2  12
TORSDOF 3
