REMARK  3 active torsions:
REMARK  status: ('A' for Active; 'I' for Inactive)
REMARK    1  A    between atoms: C_3  and  C_8 
REMARK    2  A    between atoms: C_8  and  C_9 
REMARK    3  A    between atoms: C_9  and  C_10 
ROOT
ATOM      1  C   UNN dAMED       2.524   0.217   0.027  0.00  0.00     0.023 C 
ATOM      2  C   UNN dAMED       1.202   0.318  -0.697  0.00  0.00     0.030 C 
ATOM      3  C   UNN dAMED       0.168   1.104   0.089  0.00  0.00     0.127 C 
ATOM      4  C   UNN dAMED       0.742   2.438   0.533  0.00  0.00     0.023 C 
ATOM      5  C   UNN dAMED      -0.088   3.511  -0.175  0.00  0.00     0.002 C 
ATOM      6  C   UNN dAMED       0.027   3.460  -1.691  0.00  0.00     0.001 C 
ATOM      7  C   UNN dAMED       1.364   2.887  -2.135  0.00  0.00     0.009 C 
ATOM      8  C   UNN dAMED       1.233   0.511  -2.215  0.00  0.00     0.003 C 
ATOM      9  C   UNN dAMED       0.551   2.575   2.048  0.00  0.00     0.002 C 
ATOM     10  C   UNN dAMED       2.659   4.741  -1.147  0.00  0.00     0.009 C 
ATOM     11  O   UNN dAMED      -0.197   0.432   1.150  0.00  0.00    -0.226 OA
ATOM     12  C   UNN dAMED       2.225   2.705   0.221  0.00  0.00     0.049 C 
ATOM     13  C   UNN dAMED       3.189   1.543   0.377  0.00  0.00     0.149 C 
ATOM     14  O   UNN dAMED       4.245   1.778  -0.556  0.00  0.00    -0.314 OA
ATOM     15  C   UNN dAMED       3.800   2.584  -1.560  0.00  0.00     0.270 C 
ATOM     16  C   UNN dAMED       2.505   3.214  -1.177  0.00  0.00     0.075 C 
ATOM     17  O   UNN dAMED       4.415   2.814  -2.590  0.00  0.00    -0.264 OA
ENDROOT
BRANCH   3  18
ATOM     18  C   UNN dAMED      -1.041   1.315  -0.829  0.00  0.00     0.035 C 
BRANCH  18  19
ATOM     19  C   UNN dAMED      -1.274   0.362  -2.010  0.00  0.00     0.031 C 
BRANCH  19  20
ATOM     20  C   UNN dAMED      -2.124  -0.864  -1.842  0.00  0.00     0.005 A 
ATOM     21  C   UNN dAMED      -1.636  -2.178  -1.968  0.00  0.00     0.025 A 
ATOM     22  C   UNN dAMED      -2.529  -2.971  -1.281  0.00  0.00     0.122 A 
ATOM     23  O   UNN dAMED      -3.497  -2.204  -0.702  0.00  0.00    -0.303 OA
ATOM     24  C   UNN dAMED      -3.224  -0.905  -1.022  0.00  0.00     0.118 A 
ENDBRANCH  19  20
ENDBRANCH  18  19
ENDBRANCH   3  18
TORSDOF 3
