REMARK  6 active torsions:
REMARK  status: ('A' for Active; 'I' for Inactive)
REMARK    1  A    between atoms: C_3  and  N_25 
REMARK       I    between atoms: C_4  and  N_25 
REMARK       I    between atoms: C_4  and  N_26 
REMARK    2  A    between atoms: C_6  and  N_26 
REMARK    3  A    between atoms: O_7  and  C_9 
REMARK    4  A    between atoms: C_16  and  O_19 
REMARK    5  A    between atoms: C_18  and  N_29 
REMARK       I    between atoms: C_21  and  N_29 
REMARK       I    between atoms: C_21  and  N_30 
REMARK    6  A    between atoms: C_22  and  N_30 
ROOT
ATOM      1  C   UNN dAMED      -3.758   0.534   1.320  0.00  0.00     0.108 A 
ATOM      2  C   UNN dAMED      -3.040  -0.631   1.028  0.00  0.00     0.021 A 
ATOM      3  C   UNN dAMED      -3.034   1.733   1.297  0.00  0.00     0.112 A 
ATOM      4  C   UNN dAMED      -1.677  -0.598   0.724  0.00  0.00     0.002 A 
ATOM      5  C   UNN dAMED      -1.667   1.771   1.010  0.00  0.00     0.026 A 
ATOM      6  C   UNN dAMED      -0.957   0.601   0.722  0.00  0.00     0.002 A 
ATOM      7  C   UNN dAMED       0.489   0.616   0.465  0.00  0.00     0.002 A 
ATOM      8  C   UNN dAMED       1.183   1.808   0.232  0.00  0.00     0.002 A 
ATOM      9  C   UNN dAMED       1.238  -0.565   0.474  0.00  0.00     0.026 A 
ATOM     10  C   UNN dAMED       2.617  -0.550   0.261  0.00  0.00     0.112 A 
ATOM     11  C   UNN dAMED       2.567   1.817   0.029  0.00  0.00     0.021 A 
ATOM     12  C   UNN dAMED       3.322   0.638   0.027  0.00  0.00     0.108 A 
ENDROOT
BRANCH   3  13
ATOM     13  O   UNN dAMED      -3.643   2.922   1.593  0.00  0.00    -0.327 OA
ATOM     14  C   UNN dAMED      -2.638   3.711   2.157  0.00  0.00     0.181 C 
ENDBRANCH   3  13
BRANCH   1  15
ATOM     15  N   UNN dAMED      -5.050   0.455   1.710  0.00  0.00    -0.189 NA
ATOM     16  C   UNN dAMED      -5.950   0.436   0.703  0.00  0.00     0.364 C 
ATOM     17  O   UNN dAMED      -5.742   0.153  -0.474  0.00  0.00    -0.243 OA
ATOM     18  N   UNN dAMED      -7.165   0.724   1.195  0.00  0.00    -0.219 NA
BRANCH  18  19
ATOM     19  C   UNN dAMED      -8.323   0.751   0.318  0.00  0.00     0.108 A 
ATOM     20  C   UNN dAMED      -9.039   2.081   0.065  0.00  0.00     0.026 A 
ATOM     21  C   UNN dAMED      -9.714   1.000   0.913  0.00  0.00     0.026 A 
ENDBRANCH  18  19
ENDBRANCH   1  15
BRANCH  10  22
ATOM     22  O   UNN dAMED       3.264  -1.755   0.305  0.00  0.00    -0.327 OA
ATOM     23  C   UNN dAMED       2.304  -2.695  -0.079  0.00  0.00     0.181 C 
ENDBRANCH  10  22
BRANCH  12  24
ATOM     24  N   UNN dAMED       4.669   0.685  -0.114  0.00  0.00    -0.189 NA
ATOM     25  C   UNN dAMED       5.061   0.624  -1.401  0.00  0.00     0.364 C 
ATOM     26  O   UNN dAMED       5.001   1.552  -2.203  0.00  0.00    -0.243 OA
ATOM     27  N   UNN dAMED       5.614  -0.567  -1.673  0.00  0.00    -0.219 NA
BRANCH  27  28
ATOM     28  C   UNN dAMED       4.858  -1.780  -1.406  0.00  0.00     0.108 A 
ATOM     29  C   UNN dAMED       5.170  -2.614  -0.158  0.00  0.00     0.026 A 
ATOM     30  C   UNN dAMED       5.535  -3.148  -1.546  0.00  0.00     0.026 A 
ENDBRANCH  27  28
ENDBRANCH  12  24
TORSDOF 6
