REMARK  1 active torsions:
REMARK  status: ('A' for Active; 'I' for Inactive)
REMARK    1  A    between atoms: C1_2  and  C6_7 
ROOT
ATOM      1  N1  UNN dAMED      -0.098   1.365   0.043  0.00  0.00    -0.242 NA
ATOM      2  C1  UNN dAMED      -0.490   0.062   0.021  0.00  0.00     0.131 A 
ATOM      3  C2  UNN dAMED       0.367  -1.047  -0.012  0.00  0.00     0.212 A 
ATOM      4  C3  UNN dAMED       1.724  -0.700  -0.041  0.00  0.00     0.045 A 
ATOM      5  C4  UNN dAMED       2.180   0.614  -0.033  0.00  0.00     0.024 A 
ATOM      6  C5  UNN dAMED       1.226   1.607   0.012  0.00  0.00     0.099 A 
ATOM      7  O2  UNN dAMED      -0.045  -2.251  -0.016  0.00  0.00    -0.285 OA
ENDROOT
BRANCH   2   8
ATOM      8  C6  UNN dAMED      -1.975  -0.219   0.072  0.00  0.00     0.231 C 
ATOM      9  O1  UNN dAMED      -2.787   0.044  -1.001  0.00  0.00    -0.214 OA
ENDBRANCH   2   8
TORSDOF 1
