REMARK  0 active torsions:
REMARK  status: ('A' for Active; 'I' for Inactive)
ROOT
ATOM      1  O   UNN dAMED      -0.857   1.848  -0.000  0.00  0.00    -0.319 OA
ATOM      2  O   UNN dAMED      -3.226  -0.790   0.000  0.00  0.00    -0.289 OA
ATOM      3  C   UNN dAMED       1.338   0.705  -0.000  0.00  0.00     0.256 A 
ATOM      4  C   UNN dAMED      -0.073   0.679  -0.000  0.00  0.00     0.139 A 
ATOM      5  C   UNN dAMED       1.974  -0.626  -0.000  0.00  0.00     0.236 A 
ATOM      6  C   UNN dAMED      -0.820  -0.507  -0.000  0.00  0.00     0.063 A 
ATOM      7  C   UNN dAMED       1.116  -1.771  -0.000  0.00  0.00     0.046 A 
ATOM      8  C   UNN dAMED      -2.210  -0.120   0.000  0.00  0.00     0.205 A 
ATOM      9  C   UNN dAMED      -2.174   1.365   0.000  0.00  0.00     0.217 A 
ATOM     10  C   UNN dAMED      -0.271  -1.754  -0.000  0.00  0.00     0.008 A 
ATOM     11  O   UNN dAMED       3.240  -0.860  -0.000  0.00  0.00    -0.283 OA
ATOM     12  O   UNN dAMED       1.963   1.833   0.000  0.00  0.00    -0.281 OA
ENDROOT
TORSDOF 0
