REMARK  0 active torsions:
REMARK  status: ('A' for Active; 'I' for Inactive)
ROOT
ATOM      1  N   UNN dAMED       1.821  -2.094   2.318  0.00  0.00    -0.192 NA
ATOM      2  N   UNN dAMED       0.620  -2.299   0.259  0.00  0.00    -0.194 NA
ATOM      3  N   UNN dAMED       0.779  -0.187   1.335  0.00  0.00    -0.185 NA
ATOM      4  N   UNN dAMED      -0.410  -0.398  -0.705  0.00  0.00    -0.217 NA
ATOM      5  O   UNN dAMED      -1.396  -0.052  -3.810  0.00  0.00    -0.351 OA
ATOM      6  C   UNN dAMED       0.267   0.144  -1.892  0.00  0.00     0.112 C 
ATOM      7  C   UNN dAMED      -0.548   0.757  -3.036  0.00  0.00     0.160 C 
ATOM      8  C   UNN dAMED       0.352  -0.980   0.328  0.00  0.00     0.211 A 
ATOM      9  C   UNN dAMED       1.351  -2.788   1.273  0.00  0.00     0.203 A 
ATOM     10  C   UNN dAMED      -1.239  -1.251  -1.570  0.00  0.00     0.112 C 
ATOM     11  C   UNN dAMED      -2.053  -0.631  -2.711  0.00  0.00     0.160 C 
ATOM     12  C   UNN dAMED       1.504  -0.790   2.298  0.00  0.00     0.241 A 
ATOM     13  N   UNN dAMED       1.968   0.017   3.378  0.00  0.00    -0.059 NA
ENDROOT
TORSDOF 0
