REMARK  6 active torsions:
REMARK  status: ('A' for Active; 'I' for Inactive)
REMARK    1  A    between atoms: C_5  and  C_6 
REMARK    2  A    between atoms: C_7  and  P_8 
REMARK    3  A    between atoms: P_8  and  O_10 
REMARK    4  A    between atoms: P_8  and  O_13 
REMARK    5  A    between atoms: O_10  and  C_11 
REMARK    6  A    between atoms: O_13  and  C_14 
ROOT
ATOM      1  C   UNN dAMED      -1.331  -1.345  -0.304  0.00  0.00     0.069 C 
ATOM      2  C   UNN dAMED      -1.884  -0.466  -1.158  0.00  0.00     0.139 C 
ATOM      3  C   UNN dAMED      -1.135   0.317  -2.083  0.00  0.00     0.108 C 
ATOM      4  N   UNN dAMED      -0.538   0.966  -2.838  0.00  0.00    -0.191 NA
ENDROOT
BRANCH   2   5
ATOM      5  P   UNN dAMED      -3.621  -0.195  -1.216  0.00  0.00     0.374 P 
ATOM      6  O   UNN dAMED      -4.261   0.800  -2.151  0.00  0.00    -0.252 OA
BRANCH   5   7
ATOM      7  O   UNN dAMED      -4.266  -1.674  -1.421  0.00  0.00    -0.291 OA
BRANCH   7   8
ATOM      8  C   UNN dAMED      -4.500  -2.153  -0.130  0.00  0.00     0.152 C 
ATOM      9  C   UNN dAMED      -3.720  -3.366   0.387  0.00  0.00     0.035 C 
ENDBRANCH   7   8
ENDBRANCH   5   7
BRANCH   5  10
ATOM     10  O   UNN dAMED      -4.054   0.101   0.324  0.00  0.00    -0.291 OA
BRANCH  10  11
ATOM     11  C   UNN dAMED      -5.403   0.458   0.257  0.00  0.00     0.152 C 
ATOM     12  C   UNN dAMED      -6.347  -0.290  -0.690  0.00  0.00     0.035 C 
ENDBRANCH  10  11
ENDBRANCH   5  10
ENDBRANCH   2   5
BRANCH   1  13
ATOM     13  C   UNN dAMED       0.062  -1.608  -0.240  0.00  0.00     0.090 A 
ATOM     14  O   UNN dAMED       1.039  -0.638  -0.159  0.00  0.00    -0.308 OA
ATOM     15  C   UNN dAMED       2.248  -1.259  -0.125  0.00  0.00     0.102 A 
ATOM     16  C   UNN dAMED       2.088  -2.623  -0.144  0.00  0.00     0.027 A 
ATOM     17  C   UNN dAMED       3.403  -0.394  -0.071  0.00  0.00     0.050 A 
ATOM     18  C   UNN dAMED       0.695  -2.843  -0.220  0.00  0.00     0.026 A 
ATOM     19  C   UNN dAMED       3.744   0.297   1.095  0.00  0.00     0.144 A 
ATOM     20  C   UNN dAMED       4.226  -0.277  -1.194  0.00  0.00     0.006 A 
ATOM     21  C   UNN dAMED       4.895   1.077   1.157  0.00  0.00     0.059 A 
ATOM     22  F   UNN dAMED       2.968   0.205   2.185  0.00  0.00    -0.204 F 
ATOM     23  C   UNN dAMED       5.709   1.163   0.033  0.00  0.00     0.142 A 
ATOM     24  C   UNN dAMED       5.382   0.499  -1.146  0.00  0.00     0.030 A 
ATOM     25  F   UNN dAMED       6.841   1.877   0.092  0.00  0.00    -0.204 F 
ENDBRANCH   1  13
TORSDOF 6
