REMARK  4 active torsions:
REMARK  status: ('A' for Active; 'I' for Inactive)
REMARK    1  A    between atoms: C_1  and  C_13 
REMARK    2  A    between atoms: C_3  and  N_16 
REMARK    3  A    between atoms: C_8  and  N_19 
REMARK    4  A    between atoms: C_12  and  S_20 
REMARK       I    between atoms: N_16  and  C_17 
REMARK       I    between atoms: C_17  and  N_19 
ROOT
ATOM      1  N   UNN dAMED      -1.290   0.177   0.314  0.00  0.00    -0.191 NA
ATOM      2  C   UNN dAMED      -1.010   0.389   1.619  0.00  0.00     0.369 C 
ATOM      3  O   UNN dAMED      -0.429  -0.418   2.341  0.00  0.00    -0.242 OA
ATOM      4  N   UNN dAMED      -1.421   1.608   2.036  0.00  0.00    -0.191 NA
ENDROOT
BRANCH   1   5
ATOM      5  C   UNN dAMED      -2.389  -0.580   0.095  0.00  0.00     0.090 A 
ATOM      6  C   UNN dAMED      -3.673  -0.048  -0.126  0.00  0.00     0.071 A 
ATOM      7  C   UNN dAMED      -4.758  -0.853  -0.480  0.00  0.00     0.006 A 
ATOM      8  C   UNN dAMED      -4.584  -2.225  -0.614  0.00  0.00     0.000 A 
ATOM      9  C   UNN dAMED      -3.329  -2.784  -0.405  0.00  0.00     0.002 A 
ATOM     10  C   UNN dAMED      -2.250  -1.967  -0.066  0.00  0.00     0.019 A 
BRANCH   6  11
ATOM     11  C   UNN dAMED      -3.906   1.404  -0.050  0.00  0.00     0.268 C 
ATOM     12  O   UNN dAMED      -4.990   1.855   0.296  0.00  0.00    -0.271 OA
ATOM     13  N   UNN dAMED      -2.774   2.268  -0.036  0.00  0.00    -0.057 NA
ENDBRANCH   6  11
ENDBRANCH   1   5
BRANCH   4  14
ATOM     14  C   UNN dAMED      -0.603   2.617   1.655  0.00  0.00     0.087 A 
ATOM     15  C   UNN dAMED      -0.791   3.261   0.422  0.00  0.00     0.019 A 
ATOM     16  C   UNN dAMED       0.023   4.311   0.007  0.00  0.00     0.002 A 
ATOM     17  C   UNN dAMED       1.027   4.769   0.850  0.00  0.00     0.006 A 
ATOM     18  C   UNN dAMED       1.212   4.179   2.098  0.00  0.00     0.027 A 
ATOM     19  C   UNN dAMED       0.401   3.113   2.494  0.00  0.00     0.025 A 
BRANCH  18  20
ATOM     20  S   UNN dAMED       2.474   4.796   3.178  0.00  0.00    -0.113 SA
ATOM     21  C   UNN dAMED       1.471   4.709   4.658  0.00  0.00     0.074 C 
ENDBRANCH  18  20
ENDBRANCH   4  14
TORSDOF 4
