REMARK  3 active torsions:
REMARK  status: ('A' for Active; 'I' for Inactive)
REMARK    1  A    between atoms: C_3  and  N_18 
REMARK    2  A    between atoms: C_9  and  C_16 
REMARK    3  A    between atoms: C_12  and  N_13 
REMARK       I    between atoms: C_16  and  N_18 
ROOT
ATOM      1  C   UNN dAMED      -1.964   0.930   1.412  0.00  0.00     0.005 A 
ATOM      2  C   UNN dAMED      -3.321   0.598   1.355  0.00  0.00     0.002 A 
ATOM      3  C   UNN dAMED      -0.997  -0.001   1.016  0.00  0.00     0.059 A 
ATOM      4  C   UNN dAMED      -3.721  -0.653   0.894  0.00  0.00     0.024 A 
ATOM      5  C   UNN dAMED      -1.375  -1.268   0.570  0.00  0.00     0.028 A 
ATOM      6  C   UNN dAMED      -2.736  -1.555   0.509  0.00  0.00     0.127 A 
ENDROOT
BRANCH   3   7
ATOM      7  C   UNN dAMED       0.436   0.367   1.109  0.00  0.00     0.279 C 
ATOM      8  O   UNN dAMED       0.838   0.784   2.194  0.00  0.00    -0.265 OA
ATOM      9  N   UNN dAMED       1.098   0.228  -0.048  0.00  0.00    -0.206 NA
BRANCH   9  10
ATOM     10  C   UNN dAMED       2.423   0.477   0.011  0.00  0.00     0.104 A 
ATOM     11  C   UNN dAMED       3.365  -0.546   0.079  0.00  0.00     0.118 A 
ATOM     12  N   UNN dAMED       4.709  -0.382   0.033  0.00  0.00    -0.241 NA
ATOM     13  C   UNN dAMED       5.155   0.885  -0.099  0.00  0.00     0.099 A 
ATOM     14  C   UNN dAMED       4.324   1.985  -0.207  0.00  0.00     0.022 A 
ATOM     15  C   UNN dAMED       2.950   1.761  -0.162  0.00  0.00     0.022 A 
ENDBRANCH   9  10
ENDBRANCH   3   7
BRANCH   6  16
ATOM     16  N   UNN dAMED      -3.148  -2.839   0.019  0.00  0.00    -0.114 N 
ATOM     17  O   UNN dAMED      -3.445  -2.913  -1.180  0.00  0.00    -0.532 OA
ATOM     18  O   UNN dAMED      -3.185  -3.765   0.838  0.00  0.00    -0.532 OA
ENDBRANCH   6  16
TORSDOF 3
