REMARK  0 active torsions:
REMARK  status: ('A' for Active; 'I' for Inactive)
ROOT
ATOM      1  N   UNN dAMED       0.999  -3.444  -0.120  0.00  0.00    -0.241 NA
ATOM      2  N   UNN dAMED       0.191  -0.742   1.176  0.00  0.00    -0.205 NA
ATOM      3  N   UNN dAMED       0.588  -0.431  -1.169  0.00  0.00    -0.205 NA
ATOM      4  N   UNN dAMED      -0.799   1.101   0.027  0.00  0.00    -0.205 NA
ATOM      5  N   UNN dAMED      -0.960   0.077   3.486  0.00  0.00    -0.241 NA
ATOM      6  N   UNN dAMED       0.402   1.179  -3.362  0.00  0.00    -0.241 NA
ATOM      7  C   UNN dAMED       0.204   1.888  -4.497  0.00  0.00     0.099 A 
ATOM      8  C   UNN dAMED      -0.777   2.852  -4.651  0.00  0.00     0.021 A 
ATOM      9  C   UNN dAMED      -1.609   3.099  -3.570  0.00  0.00     0.003 A 
ATOM     10  C   UNN dAMED      -1.439   2.382  -2.391  0.00  0.00     0.022 A 
ATOM     11  C   UNN dAMED      -0.424   1.431  -2.317  0.00  0.00     0.117 A 
ATOM     12  C   UNN dAMED      -0.198   0.660  -1.096  0.00  0.00     0.183 A 
ATOM     13  C   UNN dAMED       0.751  -1.081  -0.001  0.00  0.00     0.183 A 
ATOM     14  C   UNN dAMED       1.616  -2.244  -0.005  0.00  0.00     0.117 A 
ATOM     15  C   UNN dAMED       2.994  -2.109   0.119  0.00  0.00     0.022 A 
ATOM     16  C   UNN dAMED       3.772  -3.261   0.122  0.00  0.00     0.003 A 
ATOM     17  C   UNN dAMED       3.168  -4.506   0.006  0.00  0.00     0.021 A 
ATOM     18  C   UNN dAMED       1.789  -4.541  -0.111  0.00  0.00     0.099 A 
ATOM     19  C   UNN dAMED      -0.581   0.361   1.132  0.00  0.00     0.183 A 
ATOM     20  C   UNN dAMED      -1.235   0.791   2.366  0.00  0.00     0.117 A 
ATOM     21  C   UNN dAMED      -2.098   1.884   2.385  0.00  0.00     0.022 A 
ATOM     22  C   UNN dAMED      -2.693   2.256   3.584  0.00  0.00     0.003 A 
ATOM     23  C   UNN dAMED      -2.424   1.538   4.739  0.00  0.00     0.021 A 
ATOM     24  C   UNN dAMED      -1.557   0.465   4.636  0.00  0.00     0.099 A 
ENDROOT
TORSDOF 0
