REMARK  0 active torsions:
REMARK  status: ('A' for Active; 'I' for Inactive)
ROOT
ATOM      1  H   UNN dAMED      -0.465   2.207  -0.391  0.00  0.00     0.167 HD
ATOM      2  N   UNN dAMED      -0.147   1.304  -0.048  0.00  0.00    -0.340 N 
ATOM      3  N   UNN dAMED      -0.318  -1.192   0.132  0.00  0.00    -0.340 N 
ATOM      4  N   UNN dAMED      -4.525   0.090  -1.415  0.00  0.00    -0.242 NA
ATOM      5  H   UNN dAMED      -0.758  -2.082  -0.086  0.00  0.00     0.167 HD
ATOM      6  C   UNN dAMED      -5.175   0.324  -0.254  0.00  0.00     0.099 A 
ATOM      7  C   UNN dAMED      -4.548   0.499   0.969  0.00  0.00     0.021 A 
ATOM      8  C   UNN dAMED      -3.161   0.428   0.999  0.00  0.00     0.006 A 
ATOM      9  C   UNN dAMED      -2.455   0.191  -0.175  0.00  0.00     0.051 A 
ATOM     10  C   UNN dAMED      -3.177   0.030  -1.346  0.00  0.00     0.102 A 
ATOM     11  C   UNN dAMED      -0.950   0.090  -0.175  0.00  0.00     0.120 C 
ATOM     12  C   UNN dAMED       1.093  -1.273   0.154  0.00  0.00     0.059 A 
ATOM     13  C   UNN dAMED       1.853  -0.080   0.122  0.00  0.00     0.031 A 
ATOM     14  C   UNN dAMED       1.726  -2.505   0.333  0.00  0.00     0.017 A 
ATOM     15  C   UNN dAMED       1.262   1.197  -0.021  0.00  0.00     0.059 A 
ATOM     16  C   UNN dAMED       2.056   2.345  -0.011  0.00  0.00     0.017 A 
ATOM     17  C   UNN dAMED       3.113  -2.575   0.424  0.00  0.00     0.002 A 
ATOM     18  C   UNN dAMED       3.260  -0.168   0.224  0.00  0.00     0.003 A 
ATOM     19  C   UNN dAMED       3.441   2.240   0.083  0.00  0.00     0.002 A 
ATOM     20  C   UNN dAMED       3.875  -1.411   0.367  0.00  0.00     0.000 A 
ATOM     21  C   UNN dAMED       4.038   0.988   0.197  0.00  0.00     0.000 A 
ENDROOT
TORSDOF 0
