REMARK  1 active torsions:
REMARK  status: ('A' for Active; 'I' for Inactive)
REMARK    1  A    between atoms: C_10  and  C_13 
ROOT
ATOM      1 CL   UNN dAMED      -3.631  -1.557  -0.695  0.00  0.00    -0.059 Cl
ATOM      2 CL   UNN dAMED      -3.749   1.440   0.604  0.00  0.00    -0.059 Cl
ATOM      3  N   UNN dAMED      -1.074  -1.297  -0.589  0.00  0.00    -0.212 NA
ATOM      4  N   UNN dAMED      -1.179   1.348   0.572  0.00  0.00    -0.210 NA
ATOM      5  N   UNN dAMED       1.320  -0.882  -0.383  0.00  0.00    -0.323 N 
ATOM      6  H   UNN dAMED       1.702  -1.750  -0.734  0.00  0.00     0.169 HD
ATOM      7  N   UNN dAMED       1.255   1.161   0.530  0.00  0.00    -0.208 NA
ATOM      8  C   UNN dAMED      -2.224  -0.645  -0.306  0.00  0.00     0.169 A 
ATOM      9  C   UNN dAMED      -2.275   0.626   0.250  0.00  0.00     0.169 A 
ATOM     10  C   UNN dAMED       2.027   0.192   0.088  0.00  0.00     0.154 A 
ATOM     11  C   UNN dAMED      -0.000  -0.561  -0.262  0.00  0.00     0.179 A 
ATOM     12  C   UNN dAMED      -0.016   0.707   0.298  0.00  0.00     0.199 A 
ENDROOT
BRANCH  10  13
ATOM     13  C   UNN dAMED       3.508   0.128   0.356  0.00  0.00     0.245 C 
ATOM     14  O   UNN dAMED       4.336   1.164   0.012  0.00  0.00    -0.212 OA
ENDBRANCH  10  13
TORSDOF 1
