REMARK  0 active torsions:
REMARK  status: ('A' for Active; 'I' for Inactive)
ROOT
ATOM      1  C   UNN dAMED      -2.039  -0.764   0.133  0.00  0.00     0.064 A 
ATOM      2  C   UNN dAMED      -2.048   0.579   0.485  0.00  0.00     0.057 A 
ATOM      3  N   UNN dAMED      -0.947  -1.468  -0.229  0.00  0.00    -0.231 NA
ATOM      4  C   UNN dAMED      -0.882   1.362   0.499  0.00  0.00     0.203 A 
ATOM      5  C   UNN dAMED       0.321   0.660   0.120  0.00  0.00     0.119 A 
ATOM      6  C   UNN dAMED       0.167  -0.697  -0.209  0.00  0.00     0.163 A 
ATOM      7  N   UNN dAMED       1.401  -1.163  -0.532  0.00  0.00    -0.258 N 
ATOM      8  H   UNN dAMED       1.619  -2.102  -0.813  0.00  0.00     0.191 HD
ATOM      9  N   UNN dAMED       2.394  -0.279  -0.463  0.00  0.00    -0.143 NA
ATOM     10  C   UNN dAMED       1.758   0.833  -0.069  0.00  0.00     0.236 A 
ATOM     11  C   UNN dAMED      -3.358  -1.481   0.161  0.00  0.00     0.052 C 
ATOM     12  O   UNN dAMED      -0.866   2.595   0.818  0.00  0.00    -0.286 OA
ATOM     13  O   UNN dAMED       2.480   1.926   0.099  0.00  0.00    -0.167 OA
ENDROOT
TORSDOF 0
