REMARK  0 active torsions:
REMARK  status: ('A' for Active; 'I' for Inactive)
ROOT
ATOM      1  O   UNN dAMED      -3.561  -1.430   3.000  0.00  0.00    -0.246 OA
ATOM      2  N   UNN dAMED      -2.427  -2.474   1.255  0.00  0.00    -0.246 N 
ATOM      3  N   UNN dAMED      -1.419  -0.743   2.451  0.00  0.00    -0.263 N 
ATOM      4  O   UNN dAMED      -1.672  -3.181  -0.830  0.00  0.00    -0.266 OA
ATOM      5  N   UNN dAMED       0.536  -1.110  -0.390  0.00  0.00    -0.195 NA
ATOM      6  N   UNN dAMED       0.601   0.191   1.411  0.00  0.00    -0.199 NA
ATOM      7  N   UNN dAMED       2.326   0.397  -0.282  0.00  0.00    -0.325 N 
ATOM      8  C   UNN dAMED      -1.538  -2.493   0.175  0.00  0.00     0.278 C 
ATOM      9  C   UNN dAMED      -0.505  -1.515   0.386  0.00  0.00     0.134 A 
ATOM     10  C   UNN dAMED      -0.456  -0.669   1.472  0.00  0.00     0.165 A 
ATOM     11  C   UNN dAMED       3.161  -0.417  -1.173  0.00  0.00     0.104 C 
ATOM     12  C   UNN dAMED       4.270  -1.279  -0.561  0.00  0.00     0.024 C 
ATOM     13  C   UNN dAMED       5.158  -0.544   0.434  0.00  0.00     0.004 C 
ATOM     14  C   UNN dAMED       4.380   0.456   1.280  0.00  0.00     0.024 C 
ATOM     15  C   UNN dAMED       3.261   1.185   0.528  0.00  0.00     0.104 C 
ATOM     16  C   UNN dAMED       1.223  -0.137   0.290  0.00  0.00     0.189 A 
ATOM     17  C   UNN dAMED      -2.549  -1.548   2.312  0.00  0.00     0.335 C 
ATOM     18  C   UNN dAMED      -3.671  -3.078   0.935  0.00  0.00     0.138 C 
ATOM     19  C   UNN dAMED      -1.703   0.506   3.062  0.00  0.00     0.137 C 
ATOM     20  C   UNN dAMED       1.406  -2.212  -0.613  0.00  0.00     0.103 C 
ENDROOT
TORSDOF 0
