REMARK  5 active torsions:
REMARK  status: ('A' for Active; 'I' for Inactive)
REMARK    1  A    between atoms: C_6  and  C_16 
REMARK    2  A    between atoms: C_7  and  C_16 
REMARK    3  A    between atoms: C_9  and  C_18 
REMARK    4  A    between atoms: C_18  and  C_19 
REMARK    5  A    between atoms: C_19  and  N_20 
ROOT
ATOM      1  C   UNN dAMED      -0.060  -0.737   0.086  0.00  0.00    -0.010 A 
ATOM      2  C   UNN dAMED       0.358  -2.134  -0.048  0.00  0.00    -0.004 A 
ATOM      3  C   UNN dAMED       0.969   0.071  -0.249  0.00  0.00    -0.038 A 
ATOM      4  C   UNN dAMED      -0.328  -3.312   0.182  0.00  0.00    -0.000 A 
ATOM      5  C   UNN dAMED       0.337  -4.522  -0.054  0.00  0.00    -0.000 A 
ATOM      6  C   UNN dAMED       2.146  -0.764  -0.678  0.00  0.00     0.048 A 
ATOM      7  C   UNN dAMED       1.683  -2.167  -0.502  0.00  0.00    -0.018 A 
ATOM      8  C   UNN dAMED       1.662  -4.543  -0.515  0.00  0.00    -0.000 A 
ATOM      9  C   UNN dAMED       2.355  -3.352  -0.745  0.00  0.00    -0.004 A 
ENDROOT
BRANCH   1  10
ATOM     10  C   UNN dAMED      -1.416  -0.257   0.577  0.00  0.00    -0.005 C 
ATOM     11  C   UNN dAMED      -1.650  -0.209   2.088  0.00  0.00     0.033 C 
BRANCH  10  12
ATOM     12  C   UNN dAMED      -2.622  -0.064  -0.347  0.00  0.00     0.077 A 
ATOM     13  N   UNN dAMED      -3.055   1.189  -0.645  0.00  0.00    -0.244 NA
ATOM     14  C   UNN dAMED      -4.098   1.293  -1.511  0.00  0.00     0.099 A 
ATOM     15  C   UNN dAMED      -4.735   0.218  -2.104  0.00  0.00     0.021 A 
ATOM     16  C   UNN dAMED      -4.279  -1.050  -1.776  0.00  0.00     0.003 A 
ATOM     17  C   UNN dAMED      -3.215  -1.202  -0.887  0.00  0.00     0.019 A 
ENDBRANCH  10  12
ENDBRANCH   1  10
BRANCH   3  18
ATOM     18  C   UNN dAMED       0.714   1.552  -0.195  0.00  0.00     0.058 C 
BRANCH  18  19
ATOM     19  C   UNN dAMED       1.814   2.550  -0.582  0.00  0.00     0.255 C 
BRANCH  19  20
ATOM     20  N   UNN dAMED       2.686   2.345  -1.923  0.00  0.00     0.142 N 
ATOM     21  C   UNN dAMED       3.237   3.560  -1.203  0.00  0.00     0.285 C 
ATOM     22  C   UNN dAMED       1.819   2.549  -0.590  0.00  0.00     0.285 C 
ENDBRANCH  19  20
ENDBRANCH  18  19
ENDBRANCH   3  18
TORSDOF 5
