REMARK  2 active torsions:
REMARK  status: ('A' for Active; 'I' for Inactive)
REMARK    1  A    between atoms: C_5  and  C_11 
REMARK    2  A    between atoms: C_7  and  C_8 
ROOT
ATOM      1 CL   UNN dAMED       0.623  -3.433   0.268  0.00  0.00    -0.041 Cl
ATOM      2  N   UNN dAMED      -0.994  -1.393   0.138  0.00  0.00    -0.212 NA
ATOM      3  N   UNN dAMED       1.381  -0.961   0.051  0.00  0.00    -0.212 NA
ATOM      4  C   UNN dAMED       0.302  -1.759   0.140  0.00  0.00     0.224 A 
ATOM      5  C   UNN dAMED       1.087   0.351  -0.059  0.00  0.00     0.138 A 
ATOM      6  C   UNN dAMED      -0.183   0.886  -0.073  0.00  0.00     0.047 A 
ATOM      7  C   UNN dAMED      -1.182  -0.060   0.030  0.00  0.00     0.138 A 
ENDROOT
BRANCH   5   8
ATOM      8  C   UNN dAMED       2.222   1.263  -0.151  0.00  0.00     0.284 C 
ATOM      9  O   UNN dAMED       3.299   0.893  -0.597  0.00  0.00    -0.269 OA
ATOM     10  N   UNN dAMED       2.068   2.616   0.267  0.00  0.00    -0.056 NA
ENDBRANCH   5   8
BRANCH   7  11
ATOM     11  C   UNN dAMED      -2.560   0.425   0.029  0.00  0.00     0.284 C 
ATOM     12  O   UNN dAMED      -3.516  -0.336   0.048  0.00  0.00    -0.269 OA
ATOM     13  N   UNN dAMED      -2.791   1.830  -0.011  0.00  0.00    -0.056 NA
ENDBRANCH   7  11
TORSDOF 2
