REMARK  1 active torsions:
REMARK  status: ('A' for Active; 'I' for Inactive)
REMARK    1  A    between atoms: C_9  and  C_12 
ROOT
ATOM      1  N   UNN dAMED      -2.024   0.990   0.112  0.00  0.00    -0.229 NA
ATOM      2  N   UNN dAMED      -0.929  -1.669  -0.126  0.00  0.00    -0.240 NA
ATOM      3  N   UNN dAMED       0.313   1.566   0.414  0.00  0.00    -0.213 NA
ATOM      4  C   UNN dAMED      -2.771  -0.115  -0.090  0.00  0.00     0.121 A 
ATOM      5  C   UNN dAMED      -2.247  -1.392  -0.199  0.00  0.00     0.120 A 
ATOM      6  C   UNN dAMED      -0.714   0.698   0.191  0.00  0.00     0.142 A 
ATOM      7  C   UNN dAMED      -0.160  -0.572   0.074  0.00  0.00     0.114 A 
ATOM      8  C   UNN dAMED       1.234  -0.406   0.156  0.00  0.00     0.074 C 
ATOM      9  C   UNN dAMED       1.517   0.935   0.276  0.00  0.00     0.057 C 
ATOM     10  C   UNN dAMED       0.234   2.621  -0.537  0.00  0.00     0.101 C 
ENDROOT
BRANCH   8  11
ATOM     11  C   UNN dAMED       2.248  -1.481  -0.102  0.00  0.00     0.237 C 
ATOM     12  O   UNN dAMED       2.546  -1.779  -1.223  0.00  0.00    -0.283 OA
ENDBRANCH   8  11
TORSDOF 1
