REMARK  4 active torsions:
REMARK  status: ('A' for Active; 'I' for Inactive)
REMARK    1  A    between atoms: S1_1  and  C11_12 
REMARK    2  A    between atoms: S1_1  and  C26_30 
REMARK    3  A    between atoms: C24_25  and  C25_28 
REMARK    4  A    between atoms: C25_28  and  C26_30 
ROOT
ATOM      1  C1  UNN dAMED       2.266  -3.446   0.827  0.00  0.00    -0.000 A 
ATOM      2  C2  UNN dAMED       0.985  -3.640   1.319  0.00  0.00    -0.000 A 
ATOM      3  C3  UNN dAMED       2.623  -2.227   0.264  0.00  0.00    -0.000 A 
ATOM      4  C4  UNN dAMED       3.922  -2.075  -0.220  0.00  0.00    -0.000 A 
ATOM      5  C5  UNN dAMED       4.330  -0.878  -0.797  0.00  0.00    -0.000 A 
ATOM      6  C6  UNN dAMED       0.059  -2.606   1.241  0.00  0.00    -0.003 A 
ATOM      7  C7  UNN dAMED       1.685  -1.166   0.180  0.00  0.00    -0.003 A 
ATOM      8  C8  UNN dAMED       3.435   0.178  -0.893  0.00  0.00    -0.000 A 
ATOM      9  C9  UNN dAMED       0.365  -1.354   0.683  0.00  0.00    -0.006 A 
ATOM     10  C10 UNN dAMED       2.137   0.027  -0.412  0.00  0.00    -0.000 A 
ATOM     11  C11 UNN dAMED      -0.728  -0.272   0.627  0.00  0.00     0.095 A 
ATOM     12  C12 UNN dAMED      -0.312   1.061   1.272  0.00  0.00    -0.006 A 
ATOM     13  C13 UNN dAMED      -1.052   0.188  -0.805  0.00  0.00    -0.006 A 
ATOM     14  C14 UNN dAMED      -1.446  -0.582  -1.888  0.00  0.00    -0.003 A 
ATOM     15  C15 UNN dAMED      -1.675   0.069  -3.101  0.00  0.00    -0.000 A 
ATOM     16  C16 UNN dAMED       0.140   1.292   2.563  0.00  0.00    -0.003 A 
ATOM     17  C17 UNN dAMED       0.453   2.603   2.918  0.00  0.00    -0.000 A 
ATOM     18  C18 UNN dAMED      -1.512   1.458  -3.217  0.00  0.00    -0.000 A 
ATOM     19  C19 UNN dAMED      -0.891   1.588  -0.921  0.00  0.00    -0.003 A 
ATOM     20  C20 UNN dAMED      -0.445   2.121   0.343  0.00  0.00    -0.003 A 
ATOM     21  C21 UNN dAMED       0.315   3.654   2.000  0.00  0.00    -0.000 A 
ATOM     22  C22 UNN dAMED      -1.116   2.231  -2.125  0.00  0.00    -0.000 A 
ATOM     23  C23 UNN dAMED      -0.132   3.419   0.698  0.00  0.00    -0.000 A 
ENDROOT
BRANCH  11  24
ATOM     24  S1  UNN dAMED      -2.341  -0.781   1.422  0.00  0.00    -0.127 SA
BRANCH  24  25
ATOM     25  C26 UNN dAMED      -1.579  -1.345   2.940  0.00  0.00     0.109 C 
BRANCH  25  26
ATOM     26  C25 UNN dAMED      -1.377  -0.371   4.105  0.00  0.00     0.398 C 
ATOM     27  N1  UNN dAMED      -1.305   1.059   3.857  0.00  0.00     0.629 N 
BRANCH  26  28
ATOM     28  C24 UNN dAMED      -1.228  -0.899   5.506  0.00  0.00     0.225 C 
ATOM     29  O1  UNN dAMED      -2.293  -1.015   6.182  0.00  0.00    -0.646 OA
ATOM     30  O2  UNN dAMED      -0.052  -1.191   5.877  0.00  0.00    -0.646 OA
ENDBRANCH  26  28
ENDBRANCH  25  26
ENDBRANCH  24  25
ENDBRANCH  11  24
TORSDOF 4
