REMARK  2 active torsions:
REMARK  status: ('A' for Active; 'I' for Inactive)
REMARK    1  A    between atoms: C_9  and  C_19 
REMARK    2  A    between atoms: C_10  and  C_19 
ROOT
ATOM      1  N   UNN dAMED       0.927   2.672  -0.038  0.00  0.00    -0.153 NA
ATOM      2  N   UNN dAMED       0.066   3.417  -0.588  0.00  0.00    -0.174 NA
ATOM      3 CL   UNN dAMED      -5.393  -2.203   1.119  0.00  0.00    -0.082 Cl
ATOM      4  C   UNN dAMED       0.508   1.303   0.005  0.00  0.00     0.125 A 
ATOM      5  C   UNN dAMED      -0.825   1.224  -0.721  0.00  0.00     0.094 A 
ATOM      6  C   UNN dAMED      -1.960   0.357  -0.242  0.00  0.00    -0.015 A 
ATOM      7  C   UNN dAMED      -1.712  -0.868   0.373  0.00  0.00    -0.003 A 
ATOM      8  C   UNN dAMED      -2.776  -1.662   0.797  0.00  0.00     0.011 A 
ATOM      9  C   UNN dAMED      -4.082  -1.223   0.602  0.00  0.00     0.058 A 
ATOM     10  C   UNN dAMED      -3.272   0.791  -0.430  0.00  0.00    -0.003 A 
ATOM     11  C   UNN dAMED      -1.081   2.686  -1.038  0.00  0.00     0.160 A 
ATOM     12  C   UNN dAMED      -4.337   0.000  -0.009  0.00  0.00     0.011 A 
ENDROOT
BRANCH   4  13
ATOM     13  C   UNN dAMED       1.515   0.181   0.004  0.00  0.00     0.211 C 
ATOM     14  O   UNN dAMED       1.962  -0.217  -1.061  0.00  0.00    -0.285 OA
BRANCH  13  15
ATOM     15  C   UNN dAMED       2.100  -0.212   1.286  0.00  0.00     0.040 A 
ATOM     16  C   UNN dAMED       1.385   0.121   2.432  0.00  0.00     0.003 A 
ATOM     17  C   UNN dAMED       1.950  -0.130   3.678  0.00  0.00     0.000 A 
ATOM     18  C   UNN dAMED       3.219  -0.700   3.766  0.00  0.00     0.000 A 
ATOM     19  C   UNN dAMED       3.925  -1.027   2.608  0.00  0.00     0.000 A 
ATOM     20  C   UNN dAMED       3.370  -0.774   1.357  0.00  0.00     0.003 A 
ENDBRANCH  13  15
ENDBRANCH   4  13
TORSDOF 2
