REMARK  5 active torsions:
REMARK  status: ('A' for Active; 'I' for Inactive)
REMARK    1  A    between atoms: C_3  and  N_8 
REMARK    2  A    between atoms: C_4  and  N_13 
REMARK    3  A    between atoms: N_8  and  C_9 
REMARK    4  A    between atoms: C_9  and  C_10 
REMARK    5  A    between atoms: C_10  and  C_11 
ROOT
ATOM      1  N   UNN dAMED       3.111  -1.250   0.290  0.00  0.00    -0.211 NA
ATOM      2  N   UNN dAMED       0.865  -2.096   0.051  0.00  0.00    -0.194 NA
ATOM      3  C   UNN dAMED       0.393  -0.832  -0.025  0.00  0.00     0.184 A 
ATOM      4  C   UNN dAMED       1.266   0.236   0.072  0.00  0.00     0.181 A 
ATOM      5  C   UNN dAMED       2.613  -0.004   0.227  0.00  0.00     0.128 A 
ATOM      6  C   UNN dAMED       2.206  -2.251   0.204  0.00  0.00     0.239 A 
ATOM      7  N   UNN dAMED       2.708  -3.585   0.260  0.00  0.00    -0.060 NA
ENDROOT
BRANCH   3   8
ATOM      8  N   UNN dAMED      -0.933  -0.714  -0.212  0.00  0.00    -0.252 NA
BRANCH   8   9
ATOM      9  C   UNN dAMED      -1.807  -1.864  -0.056  0.00  0.00     0.127 C 
BRANCH   9  10
ATOM     10  C   UNN dAMED      -2.409  -2.186   1.316  0.00  0.00     0.026 C 
BRANCH  10  11
ATOM     11  C   UNN dAMED      -3.143  -1.099   2.110  0.00  0.00     0.002 C 
ATOM     12  C   UNN dAMED      -2.363   0.080   2.700  0.00  0.00     0.000 C 
ENDBRANCH  10  11
ENDBRANCH   9  10
ENDBRANCH   8   9
ENDBRANCH   3   8
BRANCH   4  13
ATOM     13  N   UNN dAMED       0.827   1.599   0.005  0.00  0.00    -0.109 N 
ATOM     14  O   UNN dAMED       0.507   2.135   1.073  0.00  0.00    -0.532 OA
ATOM     15  O   UNN dAMED       0.816   2.129  -1.113  0.00  0.00    -0.532 OA
ENDBRANCH   4  13
TORSDOF 5
