REMARK  1 active torsions:
REMARK  status: ('A' for Active; 'I' for Inactive)
REMARK    1  A    between atoms: N_2  and  C_27 
ROOT
ATOM      1  O   UNN dAMED       2.916  -2.939   0.825  0.00  0.00    -0.291 OA
ATOM      2  C   UNN dAMED       0.849  -1.668   1.047  0.00  0.00     0.071 A 
ATOM      3  C   UNN dAMED       2.321  -1.877   0.749  0.00  0.00     0.173 A 
ATOM      4  C   UNN dAMED       2.967  -0.593   0.339  0.00  0.00     0.034 A 
ATOM      5  C   UNN dAMED      -0.026  -2.422  -0.009  0.00  0.00     0.015 C 
ATOM      6  C   UNN dAMED      -1.526  -2.126  -0.005  0.00  0.00     0.023 C 
ATOM      7  C   UNN dAMED       1.918   0.463   0.300  0.00  0.00     0.053 A 
ATOM      8  C   UNN dAMED       0.621  -0.193   0.754  0.00  0.00    -0.038 A 
ATOM      9  C   UNN dAMED      -1.906  -0.664   0.226  0.00  0.00    -0.045 C 
ATOM     10  C   UNN dAMED      -0.741   0.321   0.263  0.00  0.00    -0.033 C 
ATOM     11  C   UNN dAMED      -3.292  -0.170  -0.209  0.00  0.00     0.030 C 
ATOM     12  C   UNN dAMED      -4.601  -0.926   0.025  0.00  0.00     0.010 C 
ATOM     13  C   UNN dAMED      -5.887  -0.329  -0.550  0.00  0.00     0.034 C 
ATOM     14  C   UNN dAMED      -1.124   1.768   0.517  0.00  0.00     0.050 C 
ATOM     15  C   UNN dAMED      -3.507   1.273   0.116  0.00  0.00    -0.043 C 
ATOM     16  C   UNN dAMED      -6.055   1.176  -0.368  0.00  0.00     0.156 C 
ATOM     17  C   UNN dAMED      -2.518   2.171   0.045  0.00  0.00    -0.030 C 
ATOM     18  C   UNN dAMED      -4.748   1.968  -0.403  0.00  0.00     0.055 C 
ATOM     19  O   UNN dAMED      -7.218   1.778  -0.758  0.00  0.00    -0.223 OA
ATOM     20  C   UNN dAMED      -3.102  -0.319  -1.736  0.00  0.00     0.008 C 
ATOM     21  C   UNN dAMED       0.269  -2.942   1.673  0.00  0.00     0.012 C 
ATOM     22  C   UNN dAMED       4.271  -0.560   0.092  0.00  0.00     0.071 C 
ENDROOT
BRANCH  22  23
ATOM     23  N   UNN dAMED       4.903   0.693  -0.219  0.00  0.00    -0.347 N 
ATOM     24  C   UNN dAMED       4.112   1.249  -1.355  0.00  0.00     0.102 C 
ATOM     25  C   UNN dAMED       4.623   2.589  -1.870  0.00  0.00     0.026 C 
ATOM     26  C   UNN dAMED       5.729   2.959  -0.921  0.00  0.00     0.026 C 
ATOM     27  C   UNN dAMED       5.754   1.833   0.106  0.00  0.00     0.102 C 
ENDBRANCH  22  23
TORSDOF 1
