REMARK  5 active torsions:
REMARK  status: ('A' for Active; 'I' for Inactive)
REMARK    1  A    between atoms: N_1  and  C_24 
REMARK    2  A    between atoms: C_14  and  O_20 
REMARK    3  A    between atoms: O_20  and  C_21 
REMARK    4  A    between atoms: C_21  and  C_22 
REMARK    5  A    between atoms: C_22  and  C_24 
ROOT
ATOM      1  N   UNN dAMED       2.135   1.812  -0.780  0.00  0.00     0.147 N 
ATOM      2  N   UNN dAMED      -0.544   3.470  -1.774  0.00  0.00    -0.248 NA
ATOM      3  C   UNN dAMED      -0.343   5.232  -3.481  0.00  0.00     0.011 A 
ATOM      4  C   UNN dAMED       0.400   5.796  -4.525  0.00  0.00    -0.003 A 
ATOM      5  C   UNN dAMED       0.229   4.246  -2.671  0.00  0.00     0.036 A 
ATOM      6  C   UNN dAMED       1.695   5.374  -4.782  0.00  0.00    -0.022 A 
ATOM      7  C   UNN dAMED       1.561   3.947  -2.864  0.00  0.00     0.011 A 
ATOM      8  C   UNN dAMED       2.293   4.494  -3.897  0.00  0.00    -0.003 A 
ATOM      9  C   UNN dAMED      -0.441   1.909  -1.838  0.00  0.00     0.112 C 
ATOM     10  C   UNN dAMED       0.616   1.127  -1.086  0.00  0.00     0.268 C 
ATOM     11  C   UNN dAMED      -0.510   1.908  -1.811  0.00  0.00     0.112 C 
ATOM     12  C   UNN dAMED       0.614   1.135  -1.059  0.00  0.00     0.268 C 
ATOM     13  C   UNN dAMED       2.169   5.349  -6.218  0.00  0.00     0.031 C 
ENDROOT
BRANCH   1  14
ATOM     14  C   UNN dAMED       0.603   1.118  -1.107  0.00  0.00     0.306 C 
BRANCH  14  15
ATOM     15  C   UNN dAMED       0.356   0.344  -2.382  0.00  0.00     0.167 C 
ATOM     16  O   UNN dAMED      -0.907   0.218  -2.888  0.00  0.00    -0.191 OA
BRANCH  15  17
ATOM     17  C   UNN dAMED       1.509  -0.417  -3.064  0.00  0.00     0.147 C 
BRANCH  17  18
ATOM     18  O   UNN dAMED       2.773   0.157  -3.301  0.00  0.00    -0.303 OA
BRANCH  18  19
ATOM     19  C   UNN dAMED       2.793   0.519  -4.617  0.00  0.00     0.100 A 
ATOM     20  C   UNN dAMED       3.964   1.038  -5.149  0.00  0.00     0.025 A 
ATOM     21  C   UNN dAMED       3.984   1.500  -6.462  0.00  0.00     0.002 A 
ATOM     22  C   UNN dAMED       2.830   1.441  -7.235  0.00  0.00    -0.004 A 
ATOM     23  C   UNN dAMED       1.665   0.895  -6.699  0.00  0.00    -0.020 A 
ATOM     24  C   UNN dAMED       1.644   0.437  -5.385  0.00  0.00     0.020 A 
ATOM     25  C   UNN dAMED       0.514   0.597  -7.613  0.00  0.00     0.031 C 
ENDBRANCH  18  19
ENDBRANCH  17  18
ENDBRANCH  15  17
ENDBRANCH  14  15
ENDBRANCH   1  14
TORSDOF 5
