REMARK  2 active torsions:
REMARK  status: ('A' for Active; 'I' for Inactive)
REMARK    1  A    between atoms: N_3  and  N_19 
REMARK    2  A    between atoms: C_14  and  N_19 
ROOT
ATOM      1  O   UNN dAMED      -3.239   0.965   0.795  0.00  0.00    -0.349 OA
ATOM      2  O   UNN dAMED      -0.489  -1.226   1.873  0.00  0.00    -0.270 OA
ATOM      3  N   UNN dAMED       0.167   0.107   0.051  0.00  0.00    -0.165 N 
ATOM      4  O   UNN dAMED      -0.400   1.894  -1.366  0.00  0.00    -0.270 OA
ATOM      5  C   UNN dAMED      -0.611  -0.808   0.731  0.00  0.00     0.262 C 
ATOM      6  C   UNN dAMED      -1.937  -0.934   0.025  0.00  0.00     0.124 C 
ATOM      7  C   UNN dAMED      -3.232  -0.480   0.698  0.00  0.00     0.147 C 
ATOM      8  C   UNN dAMED      -4.436  -0.907  -0.139  0.00  0.00     0.001 C 
ATOM      9  C   UNN dAMED      -1.908   0.102  -1.045  0.00  0.00     0.124 C 
ATOM     10  C   UNN dAMED      -4.410   0.014  -1.085  0.00  0.00     0.001 C 
ATOM     11  C   UNN dAMED      -3.194   0.827  -0.647  0.00  0.00     0.147 C 
ATOM     12  C   UNN dAMED      -0.567   0.773  -0.909  0.00  0.00     0.262 C 
ENDROOT
BRANCH   3  13
ATOM     13  N   UNN dAMED       1.279   0.747   0.689  0.00  0.00    -0.161 NA
BRANCH  13  14
ATOM     14  C   UNN dAMED       2.437   0.167   0.313  0.00  0.00     0.102 A 
ATOM     15  C   UNN dAMED       3.026   0.439  -0.929  0.00  0.00     0.021 A 
ATOM     16  C   UNN dAMED       4.230  -0.152  -1.309  0.00  0.00     0.002 A 
ATOM     17  C   UNN dAMED       4.882  -1.017  -0.437  0.00  0.00     0.000 A 
ATOM     18  C   UNN dAMED       4.330  -1.286   0.812  0.00  0.00     0.002 A 
ATOM     19  C   UNN dAMED       3.121  -0.695   1.179  0.00  0.00     0.021 A 
ENDBRANCH  13  14
ENDBRANCH   3  13
TORSDOF 2
