REMARK  4 active torsions:
REMARK  status: ('A' for Active; 'I' for Inactive)
REMARK    1  A    between atoms: C_2  and  N_15 
REMARK       I    between atoms: N_15  and  C_16 
REMARK    2  A    between atoms: C_16  and  O_18 
REMARK    3  A    between atoms: O_18  and  C_19 
REMARK    4  A    between atoms: C_19  and  C_20 
ROOT
ATOM      1  O   UNN dAMED      -2.950   0.419  -0.945  0.00  0.00    -0.307 OA
ATOM      2  C   UNN dAMED      -1.237  -0.460   1.193  0.00  0.00     0.090 C 
ATOM      3  C   UNN dAMED      -2.219  -1.391   0.524  0.00  0.00     0.041 A 
ATOM      4  C   UNN dAMED      -1.392   1.001   0.844  0.00  0.00     0.041 A 
ATOM      5  C   UNN dAMED      -0.711   2.003   1.536  0.00  0.00     0.004 A 
ATOM      6  C   UNN dAMED      -0.837   3.332   1.143  0.00  0.00     0.000 A 
ATOM      7  C   UNN dAMED      -2.369  -2.718   0.925  0.00  0.00     0.004 A 
ATOM      8  C   UNN dAMED      -3.299  -3.539   0.291  0.00  0.00     0.000 A 
ATOM      9  C   UNN dAMED      -1.647   3.665   0.060  0.00  0.00     0.002 A 
ATOM     10  C   UNN dAMED      -2.219   1.339  -0.228  0.00  0.00     0.101 A 
ATOM     11  C   UNN dAMED      -3.018  -0.882  -0.502  0.00  0.00     0.101 A 
ATOM     12  C   UNN dAMED      -4.086  -3.032  -0.740  0.00  0.00     0.002 A 
ATOM     13  C   UNN dAMED      -2.340   2.670  -0.625  0.00  0.00     0.025 A 
ATOM     14  C   UNN dAMED      -3.946  -1.705  -1.138  0.00  0.00     0.025 A 
ENDROOT
BRANCH   2  15
ATOM     15  N   UNN dAMED       0.039  -0.974   1.707  0.00  0.00    -0.186 NA
ATOM     16  C   UNN dAMED       1.091  -1.088   0.907  0.00  0.00     0.388 C 
ATOM     17  O   UNN dAMED       1.145  -0.809  -0.284  0.00  0.00    -0.236 OA
BRANCH  16  18
ATOM     18  O   UNN dAMED       2.166  -1.568   1.586  0.00  0.00    -0.283 OA
BRANCH  18  19
ATOM     19  C   UNN dAMED       3.233  -1.452   0.692  0.00  0.00     0.154 C 
BRANCH  19  20
ATOM     20  C   UNN dAMED       3.745  -2.685  -0.058  0.00  0.00     0.030 C 
ATOM     21  C   UNN dAMED       4.226  -2.532  -1.504  0.00  0.00     0.003 C 
ATOM     22  C   UNN dAMED       4.162  -3.924   0.739  0.00  0.00     0.003 C 
ENDBRANCH  19  20
ENDBRANCH  18  19
ENDBRANCH  16  18
ENDBRANCH   2  15
TORSDOF 4
