REMARK  5 active torsions:
REMARK  status: ('A' for Active; 'I' for Inactive)
REMARK    1  A    between atoms: C_2  and  N_16 
REMARK    2  A    between atoms: C_5  and  O_7 
REMARK    3  A    between atoms: C_6  and  N_19 
REMARK       I    between atoms: C_9  and  N_10 
REMARK       I    between atoms: C_9  and  N_19 
REMARK    4  A    between atoms: N_10  and  C_22 
REMARK    5  A    between atoms: C_11  and  C_22 
ROOT
ATOM      1  C   UNN dAMED      -4.012  -0.352   0.236  0.00  0.00     0.026 A 
ATOM      2  C   UNN dAMED      -2.825  -1.070   0.192  0.00  0.00     0.128 A 
ATOM      3  C   UNN dAMED      -3.933   1.033   0.188  0.00  0.00     0.027 A 
ATOM      4  C   UNN dAMED      -1.571  -0.469   0.103  0.00  0.00     0.045 A 
ATOM      5  C   UNN dAMED      -2.685   1.654   0.100  0.00  0.00     0.112 A 
ATOM      6  C   UNN dAMED      -1.476   0.929   0.042  0.00  0.00     0.110 A 
ENDROOT
BRANCH   6   7
ATOM      7  N   UNN dAMED      -0.271   1.547   0.010  0.00  0.00    -0.190 NA
ATOM      8  C   UNN dAMED       0.280   1.578  -1.213  0.00  0.00     0.350 C 
ATOM      9  O   UNN dAMED       1.288   0.964  -1.561  0.00  0.00    -0.244 OA
ATOM     10  N   UNN dAMED      -0.331   2.501  -2.055  0.00  0.00    -0.275 N 
ATOM     11  C   UNN dAMED      -1.690   2.527  -1.681  0.00  0.00     0.135 C 
BRANCH  10  12
ATOM     12  C   UNN dAMED       0.693   2.990  -2.890  0.00  0.00     0.105 C 
BRANCH  12  13
ATOM     13  C   UNN dAMED       0.398   3.788  -4.129  0.00  0.00     0.117 A 
ATOM     14  C   UNN dAMED      -0.225   5.012  -4.103  0.00  0.00     0.028 A 
ATOM     15  C   UNN dAMED       0.075   5.622  -5.343  0.00  0.00     0.029 A 
ATOM     16  C   UNN dAMED       0.900   4.751  -6.021  0.00  0.00     0.123 A 
ATOM     17  O   UNN dAMED       1.125   3.638  -5.266  0.00  0.00    -0.304 OA
ENDBRANCH  12  13
ENDBRANCH  10  12
ENDBRANCH   6   7
BRANCH   5  18
ATOM     18  O   UNN dAMED      -2.668   3.025   0.081  0.00  0.00    -0.327 OA
ATOM     19  C   UNN dAMED      -4.004   3.416   0.207  0.00  0.00     0.181 C 
ENDBRANCH   5  18
BRANCH   2  20
ATOM     20  N   UNN dAMED      -2.902  -2.500   0.244  0.00  0.00    -0.114 N 
ATOM     21  O   UNN dAMED      -2.994  -3.093  -0.838  0.00  0.00    -0.532 OA
ATOM     22  O   UNN dAMED      -2.879  -3.022   1.365  0.00  0.00    -0.532 OA
ENDBRANCH   2  20
TORSDOF 5
