REMARK  2 active torsions:
REMARK  status: ('A' for Active; 'I' for Inactive)
REMARK    1  A    between atoms: C_9  and  C_18 
REMARK    2  A    between atoms: C_12  and  C_19 
ROOT
ATOM      1  N   UNN dAMED      -4.008  -1.268  -0.200  0.00  0.00    -0.244 NA
ATOM      2  C   UNN dAMED      -4.040   0.899   0.770  0.00  0.00     0.019 A 
ATOM      3  C   UNN dAMED      -3.352  -0.166   0.203  0.00  0.00     0.081 A 
ATOM      4  C   UNN dAMED      -3.382   2.052   1.198  0.00  0.00     0.002 A 
ATOM      5  C   UNN dAMED      -1.957  -0.044   0.070  0.00  0.00     0.018 A 
ATOM      6  C   UNN dAMED      -2.003   2.156   1.060  0.00  0.00     0.000 A 
ATOM      7  C   UNN dAMED      -1.289   1.106   0.494  0.00  0.00     0.002 A 
ATOM      8  C   UNN dAMED      -1.246  -1.098  -0.496  0.00  0.00     0.003 A 
ATOM      9  C   UNN dAMED      -3.281  -2.272  -0.745  0.00  0.00     0.099 A 
ATOM     10  C   UNN dAMED      -1.910  -2.240  -0.915  0.00  0.00     0.021 A 
ENDROOT
BRANCH   8  11
ATOM     11  C   UNN dAMED       0.240  -0.982  -0.676  0.00  0.00     0.000 C 
ATOM     12  C   UNN dAMED       0.849   0.179  -0.436  0.00  0.00     0.001 C 
BRANCH  12  13
ATOM     13  C   UNN dAMED       2.317   0.326  -0.713  0.00  0.00     0.011 A 
ATOM     14  C   UNN dAMED       2.794   0.193  -2.013  0.00  0.00     0.058 A 
ATOM     15 CL   UNN dAMED       1.697  -0.138  -3.289  0.00  0.00    -0.082 Cl
ATOM     16  C   UNN dAMED       4.152   0.325  -2.286  0.00  0.00     0.011 A 
ATOM     17  C   UNN dAMED       5.038   0.592  -1.245  0.00  0.00     0.001 A 
ATOM     18  C   UNN dAMED       4.564   0.726   0.059  0.00  0.00     0.000 A 
ATOM     19  C   UNN dAMED       3.203   0.593   0.326  0.00  0.00     0.001 A 
ENDBRANCH  12  13
ENDBRANCH   8  11
TORSDOF 2
