REMARK  4 active torsions:
REMARK  status: ('A' for Active; 'I' for Inactive)
REMARK    1  A    between atoms: C_2  and  C_8 
REMARK    2  A    between atoms: C_4  and  C_9 
REMARK    3  A    between atoms: C_8  and  C_17 
REMARK    4  A    between atoms: C_9  and  C_11 
ROOT
ATOM      1  C   UNN dAMED       1.089  -2.497   0.496  0.00  0.00     0.003 A 
ATOM      2  C   UNN dAMED       0.595  -1.200   0.361  0.00  0.00     0.042 A 
ATOM      3  C   UNN dAMED       0.323  -3.573   0.055  0.00  0.00     0.000 A 
ATOM      4  C   UNN dAMED      -0.652  -0.978  -0.227  0.00  0.00     0.042 A 
ATOM      5  C   UNN dAMED      -0.931  -3.354  -0.515  0.00  0.00     0.000 A 
ATOM      6  C   UNN dAMED      -1.423  -2.057  -0.655  0.00  0.00     0.003 A 
ENDROOT
BRANCH   2   7
ATOM      7  C   UNN dAMED       1.428  -0.108   0.879  0.00  0.00     0.196 C 
ATOM      8  O   UNN dAMED       2.343   0.318   0.186  0.00  0.00    -0.287 OA
BRANCH   7   9
ATOM      9  C   UNN dAMED       1.159   0.442   2.223  0.00  0.00     0.039 A 
ATOM     10  C   UNN dAMED       1.761   1.643   2.592  0.00  0.00     0.003 A 
ATOM     11  C   UNN dAMED       1.504   2.188   3.847  0.00  0.00     0.000 A 
ATOM     12  C   UNN dAMED       0.638   1.539   4.726  0.00  0.00     0.000 A 
ATOM     13  C   UNN dAMED       0.036   0.339   4.355  0.00  0.00     0.000 A 
ATOM     14  C   UNN dAMED       0.300  -0.214   3.106  0.00  0.00     0.003 A 
ENDBRANCH   7   9
ENDBRANCH   2   7
BRANCH   4  15
ATOM     15  C   UNN dAMED      -1.232   0.364  -0.355  0.00  0.00     0.196 C 
ATOM     16  O   UNN dAMED      -1.858   0.865   0.568  0.00  0.00    -0.287 OA
BRANCH  15  17
ATOM     17  C   UNN dAMED      -1.081   1.076  -1.624  0.00  0.00     0.039 A 
ATOM     18  C   UNN dAMED      -0.047   1.995  -1.771  0.00  0.00     0.003 A 
ATOM     19  C   UNN dAMED       0.058   2.708  -2.962  0.00  0.00     0.000 A 
ATOM     20  C   UNN dAMED      -0.871   2.505  -3.983  0.00  0.00     0.000 A 
ATOM     21  C   UNN dAMED      -1.910   1.589  -3.817  0.00  0.00     0.000 A 
ATOM     22  C   UNN dAMED      -2.023   0.873  -2.629  0.00  0.00     0.003 A 
ENDBRANCH  15  17
ENDBRANCH   4  15
TORSDOF 4
