REMARK  3 active torsions:
REMARK  status: ('A' for Active; 'I' for Inactive)
REMARK    1  A    between atoms: C_5  and  C_9 
REMARK       I    between atoms: C_9  and  N_11 
REMARK    2  A    between atoms: N_11  and  C_12 
REMARK    3  A    between atoms: C_12  and  C_13 
ROOT
ATOM      1 CL   UNN dAMED      -3.531   2.352  -0.314  0.00  0.00    -0.082 Cl
ATOM      2 CL   UNN dAMED      -1.997  -2.738   0.265  0.00  0.00    -0.082 Cl
ATOM      3  C   UNN dAMED       0.082   0.708   0.028  0.00  0.00     0.006 A 
ATOM      4  C   UNN dAMED      -0.943   1.638  -0.115  0.00  0.00     0.012 A 
ATOM      5  C   UNN dAMED      -0.224  -0.651   0.132  0.00  0.00     0.068 A 
ATOM      6  C   UNN dAMED      -1.555  -1.081   0.110  0.00  0.00     0.063 A 
ATOM      7  C   UNN dAMED      -2.266   1.206  -0.144  0.00  0.00     0.059 A 
ATOM      8  C   UNN dAMED      -2.578  -0.147  -0.032  0.00  0.00     0.023 A 
ENDROOT
BRANCH   5   9
ATOM      9  C   UNN dAMED       0.898  -1.585   0.307  0.00  0.00     0.276 C 
ATOM     10  O   UNN dAMED       1.221  -1.904   1.445  0.00  0.00    -0.266 OA
ATOM     11  N   UNN dAMED       1.454  -1.985  -0.832  0.00  0.00    -0.234 NA
BRANCH  11  12
ATOM     12  C   UNN dAMED       2.487  -3.007  -0.817  0.00  0.00     0.129 C 
BRANCH  12  13
ATOM     13  C   UNN dAMED       3.655  -2.904   0.169  0.00  0.00     0.026 C 
ATOM     14  C   UNN dAMED       4.331  -1.552   0.418  0.00  0.00     0.002 C 
ENDBRANCH  12  13
ENDBRANCH  11  12
ENDBRANCH   5   9
TORSDOF 3
