REMARK  0 active torsions:
REMARK  status: ('A' for Active; 'I' for Inactive)
ROOT
ATOM      1  C   UNN dAMED      -1.992  -0.725   0.910  0.00  0.00     0.000 A 
ATOM      2  C   UNN dAMED      -1.350   0.103  -0.019  0.00  0.00     0.000 A 
ATOM      3  C   UNN dAMED      -3.383  -0.746   1.022  0.00  0.00     0.000 A 
ATOM      4  C   UNN dAMED      -4.159   0.074   0.210  0.00  0.00     0.000 A 
ATOM      5  C   UNN dAMED      -2.150   0.917  -0.830  0.00  0.00     0.000 A 
ATOM      6  C   UNN dAMED       0.109   0.119  -0.137  0.00  0.00     0.001 A 
ATOM      7  C   UNN dAMED       0.840  -1.061  -0.279  0.00  0.00     0.017 A 
ATOM      8  C   UNN dAMED       2.239  -1.038  -0.386  0.00  0.00     0.109 A 
ATOM      9  C   UNN dAMED       0.827   1.314  -0.113  0.00  0.00     0.003 A 
ATOM     10  C   UNN dAMED       2.990   0.148  -0.371  0.00  0.00     0.209 A 
ATOM     11  C   UNN dAMED      -3.541   0.909  -0.715  0.00  0.00     0.000 A 
ATOM     12  C   UNN dAMED       2.222   1.315  -0.232  0.00  0.00     0.043 A 
ATOM     13  N   UNN dAMED       2.939  -2.272  -0.519  0.00  0.00    -0.097 NA
ATOM     14  O   UNN dAMED       4.260   0.160  -0.473  0.00  0.00    -0.285 OA
ENDROOT
TORSDOF 0
