REMARK  6 active torsions:
REMARK  status: ('A' for Active; 'I' for Inactive)
REMARK    1  A    between atoms: N_3  and  C_23 
REMARK    2  A    between atoms: N_3  and  C_25 
REMARK       I    between atoms: N_3  and  C_26 
REMARK    3  A    between atoms: O_4  and  C_19 
REMARK    4  A    between atoms: O_4  and  C_26 
REMARK    5  A    between atoms: C_22  and  C_23 
REMARK    6  A    between atoms: C_24  and  C_25 
ROOT
ATOM      1  C   UNN dAMED       6.181  -0.482   0.244  0.00  0.00     0.152 C 
ATOM      2  C   UNN dAMED       5.263   0.089   1.699  0.00  0.00     0.023 C 
ATOM      3  C   UNN dAMED       5.155  -0.434  -0.882  0.00  0.00     0.032 C 
ATOM      4  C   UNN dAMED       6.282  -0.495   0.356  0.00  0.00     0.002 C 
ATOM      5  C   UNN dAMED       5.885  -1.916  -0.025  0.00  0.00    -0.002 C 
ATOM      6  C   UNN dAMED       3.820  -0.030  -0.228  0.00  0.00    -0.003 C 
ATOM      7  C   UNN dAMED       3.842  -0.367   1.279  0.00  0.00     0.016 C 
ATOM      8  C   UNN dAMED       4.999  -2.696   0.980  0.00  0.00     0.036 C 
ATOM      9  C   UNN dAMED       3.694  -1.900   1.235  0.00  0.00     0.012 C 
ATOM     10  C   UNN dAMED       4.801  -4.094   0.448  0.00  0.00    -0.033 A 
ATOM     11  C   UNN dAMED       5.898  -4.960   0.488  0.00  0.00    -0.003 A 
ATOM     12  C   UNN dAMED       5.761  -6.294   0.128  0.00  0.00     0.025 A 
ATOM     13  C   UNN dAMED       2.810  -2.157   0.014  0.00  0.00    -0.002 C 
ATOM     14  C   UNN dAMED       3.590  -4.576  -0.069  0.00  0.00    -0.025 A 
ATOM     15  C   UNN dAMED       4.515  -6.767  -0.270  0.00  0.00     0.104 A 
ATOM     16  C   UNN dAMED       2.479  -3.606  -0.297  0.00  0.00     0.026 C 
ATOM     17  C   UNN dAMED       3.432  -5.909  -0.431  0.00  0.00     0.020 A 
ATOM     18  C   UNN dAMED       6.321  -0.518   0.304  0.00  0.00     0.002 C 
ATOM     19  O   UNN dAMED       7.505  -0.216   0.046  0.00  0.00    -0.224 OA
ENDROOT
BRANCH  15  20
ATOM     20  O   UNN dAMED       4.406  -8.117  -0.608  0.00  0.00    -0.264 OA
BRANCH  20  21
ATOM     21  C   UNN dAMED       3.822  -8.870   0.407  0.00  0.00     0.347 C 
ATOM     22  N   UNN dAMED       3.407 -10.096  -0.060  0.00  0.00    -0.196 NA
ATOM     23  O   UNN dAMED       3.728  -8.523   1.585  0.00  0.00    -0.245 OA
BRANCH  22  24
ATOM     24  C   UNN dAMED       2.010 -10.195   0.265  0.00  0.00     0.099 C 
BRANCH  24  25
ATOM     25  C   UNN dAMED       1.359 -11.556   0.536  0.00  0.00     0.113 C 
ATOM     26 CL   UNN dAMED       0.647 -11.877   2.105  0.00  0.00    -0.112 Cl
ENDBRANCH  24  25
ENDBRANCH  22  24
BRANCH  22  27
ATOM     27  C   UNN dAMED       3.759 -11.060   0.951  0.00  0.00     0.099 C 
BRANCH  27  28
ATOM     28  C   UNN dAMED       5.088 -11.821   0.873  0.00  0.00     0.113 C 
ATOM     29 CL   UNN dAMED       6.582 -11.084   1.421  0.00  0.00    -0.112 Cl
ENDBRANCH  27  28
ENDBRANCH  22  27
ENDBRANCH  20  21
ENDBRANCH  15  20
TORSDOF 6
