REMARK  3 active torsions:
REMARK  status: ('A' for Active; 'I' for Inactive)
REMARK    1  A    between atoms: C_3  and  S_14 
REMARK    2  A    between atoms: C_6  and  C_11 
REMARK    3  A    between atoms: C_11  and  S_14 
ROOT
ATOM      1  C   UNN dAMED      -5.590   3.164   0.731  0.00  0.00     0.283 A 
ATOM      2  C   UNN dAMED      -4.427   2.303   1.066  0.00  0.00     0.089 A 
ATOM      3  C   UNN dAMED      -4.754   1.871   2.456  0.00  0.00     0.085 A 
ATOM      4  N   UNN dAMED      -6.398   3.158   1.852  0.00  0.00    -0.195 N 
ATOM      5  O   UNN dAMED      -5.746   3.646  -0.378  0.00  0.00    -0.265 OA
ATOM      6  N   UNN dAMED      -5.891   2.365   2.866  0.00  0.00    -0.167 NA
ATOM      7  C   UNN dAMED      -7.651   3.769   2.015  0.00  0.00     0.086 A 
ATOM      8  C   UNN dAMED      -8.288   3.771   3.258  0.00  0.00     0.019 A 
ATOM      9  C   UNN dAMED      -9.537   4.370   3.411  0.00  0.00     0.002 A 
ATOM     10  C   UNN dAMED     -10.156   4.980   2.323  0.00  0.00     0.000 A 
ATOM     11  C   UNN dAMED      -9.525   4.993   1.083  0.00  0.00     0.002 A 
ATOM     12  C   UNN dAMED      -8.280   4.388   0.933  0.00  0.00     0.019 A 
ATOM     13  C   UNN dAMED      -4.026   0.885   3.313  0.00  0.00     0.054 C 
ENDROOT
BRANCH   2  14
ATOM     14  C   UNN dAMED      -2.999   2.603   0.640  0.00  0.00     0.090 C 
ATOM     15  S   UNN dAMED      -2.268   4.053   1.064  0.00  0.00    -0.071 SA
BRANCH  14  16
ATOM     16  S   UNN dAMED      -2.083   1.324  -0.153  0.00  0.00    -0.075 SA
BRANCH  16  17
ATOM     17  C   UNN dAMED      -3.481   0.224  -0.393  0.00  0.00     0.073 C 
ATOM     18  C   UNN dAMED      -4.411   0.335  -1.571  0.00  0.00     0.262 C 
ATOM     19  O   UNN dAMED      -3.972   0.299  -2.712  0.00  0.00    -0.267 OA
ATOM     20  N   UNN dAMED      -5.691   0.006  -1.171  0.00  0.00    -0.292 N 
ATOM     21  C   UNN dAMED      -5.707  -0.432   0.137  0.00  0.00     0.241 C 
ATOM     22  H   UNN dAMED      -6.424  -0.226  -1.833  0.00  0.00     0.172 HD
ATOM     23  O   UNN dAMED      -6.548  -1.125   0.687  0.00  0.00    -0.272 OA
ATOM     24  C   UNN dAMED      -4.354  -0.231   0.762  0.00  0.00     0.126 C 
ENDBRANCH  16  17
ENDBRANCH  14  16
ENDBRANCH   2  14
TORSDOF 3
