REMARK  6 active torsions:
REMARK  status: ('A' for Active; 'I' for Inactive)
REMARK    1  A    between atoms: C_3  and  O_20 
REMARK    2  A    between atoms: C_4  and  N_21 
REMARK    3  A    between atoms: C_9  and  O_17 
REMARK    4  A    between atoms: C_11  and  N_13 
REMARK       I    between atoms: N_13  and  C_14 
REMARK    5  A    between atoms: O_17  and  C_18 
REMARK    6  A    between atoms: C_18  and  O_20 
REMARK       I    between atoms: N_21  and  C_22 
ROOT
ATOM      1  C   UNN dAMED      -0.301   0.431  -1.191  0.00  0.00     0.417 C 
ATOM      2  O   UNN dAMED      -1.421   0.620  -0.733  0.00  0.00    -0.229 OA
ENDROOT
BRANCH   1   3
ATOM      3  O   UNN dAMED       0.271   1.100  -2.276  0.00  0.00    -0.253 OA
BRANCH   3   4
ATOM      4  C   UNN dAMED      -0.537   2.030  -2.951  0.00  0.00     0.105 A 
ATOM      5  C   UNN dAMED      -0.790   1.815  -4.301  0.00  0.00     0.026 A 
ATOM      6  C   UNN dAMED      -1.448   2.803  -5.041  0.00  0.00     0.021 A 
ATOM      7  C   UNN dAMED      -1.839   4.027  -4.469  0.00  0.00     0.085 A 
ATOM      8  C   UNN dAMED      -1.515   4.215  -3.114  0.00  0.00     0.021 A 
ATOM      9  C   UNN dAMED      -0.852   3.245  -2.356  0.00  0.00     0.026 A 
BRANCH   7  10
ATOM     10  N   UNN dAMED      -2.545   4.996  -5.099  0.00  0.00    -0.212 NA
ATOM     11  C   UNN dAMED      -2.625   4.861  -6.420  0.00  0.00     0.256 C 
ATOM     12  O   UNN dAMED      -3.276   5.569  -7.180  0.00  0.00    -0.270 OA
ATOM     13  C   UNN dAMED      -1.912   3.687  -7.031  0.00  0.00     0.100 C 
ENDBRANCH   7  10
ENDBRANCH   3   4
ENDBRANCH   1   3
BRANCH   1  14
ATOM     14  O   UNN dAMED       0.519  -0.616  -0.759  0.00  0.00    -0.253 OA
BRANCH  14  15
ATOM     15  C   UNN dAMED       1.858  -0.256  -0.555  0.00  0.00     0.105 A 
ATOM     16  C   UNN dAMED       2.288   0.170   0.696  0.00  0.00     0.026 A 
ATOM     17  C   UNN dAMED       3.639   0.492   0.861  0.00  0.00     0.021 A 
ATOM     18  C   UNN dAMED       4.570   0.365  -0.185  0.00  0.00     0.085 A 
ATOM     19  C   UNN dAMED       4.100  -0.119  -1.414  0.00  0.00     0.021 A 
ATOM     20  C   UNN dAMED       2.760  -0.453  -1.599  0.00  0.00     0.026 A 
BRANCH  18  21
ATOM     21  N   UNN dAMED       5.830   0.830  -0.075  0.00  0.00    -0.212 NA
ATOM     22  C   UNN dAMED       6.623  -0.039   0.545  0.00  0.00     0.256 C 
ATOM     23  O   UNN dAMED       7.838  -0.130   0.410  0.00  0.00    -0.270 OA
ATOM     24  C   UNN dAMED       5.998  -0.868   1.634  0.00  0.00     0.100 C 
ENDBRANCH  18  21
ENDBRANCH  14  15
ENDBRANCH   1  14
TORSDOF 6
