REMARK  4 active torsions:
REMARK  status: ('A' for Active; 'I' for Inactive)
REMARK    1  A    between atoms: C_1  and  C_2 
REMARK    2  A    between atoms: C_1  and  N_5 
REMARK       I    between atoms: N_5  and  C_6 
REMARK    3  A    between atoms: C_6  and  C_8 
REMARK    4  A    between atoms: C_8  and  C_9 
ROOT
ATOM      1  N   UNN dAMED      -0.955   0.993  -0.565  0.00  0.00    -0.221 NA
ATOM      2  C   UNN dAMED      -0.622   2.264  -0.387  0.00  0.00     0.255 C 
ATOM      3  O   UNN dAMED      -1.385   3.185  -0.123  0.00  0.00    -0.270 OA
ENDROOT
BRANCH   2   4
ATOM      4  C   UNN dAMED       0.825   2.619  -0.606  0.00  0.00     0.090 C 
BRANCH   4   5
ATOM      5  C   UNN dAMED       1.900   2.171   0.391  0.00  0.00     0.009 C 
ATOM      6  C   UNN dAMED       3.344   2.017  -0.096  0.00  0.00     0.001 C 
ATOM      7  C   UNN dAMED       1.631   2.300   1.894  0.00  0.00     0.001 C 
ENDBRANCH   4   5
ENDBRANCH   2   4
BRANCH   1   8
ATOM      8  C   UNN dAMED      -2.280   0.533  -0.184  0.00  0.00     0.040 C 
ATOM      9  C   UNN dAMED      -2.475  -0.935   0.208  0.00  0.00     0.047 C 
BRANCH   8  10
ATOM     10  C   UNN dAMED      -3.317   1.562   0.271  0.00  0.00     0.042 C 
ATOM     11  C   UNN dAMED      -3.182   2.206   1.654  0.00  0.00     0.006 C 
ENDBRANCH   8  10
ENDBRANCH   1   8
TORSDOF 4
