REMARK  4 active torsions:
REMARK  status: ('A' for Active; 'I' for Inactive)
REMARK    1  A    between atoms: C_7  and  C_11 
REMARK    2  A    between atoms: C_11  and  C_12 
REMARK    3  A    between atoms: C_13  and  N_31 
REMARK    4  A    between atoms: C_19  and  C_21 
REMARK       I    between atoms: C_19  and  N_31 
ROOT
ATOM      1  C   UNN dAMED      -1.360   1.352  -0.400  0.00  0.00     0.002 A 
ATOM      2  C   UNN dAMED      -1.484   2.225  -1.487  0.00  0.00     0.081 A 
ATOM      3  C   UNN dAMED      -1.463   3.602  -1.218  0.00  0.00     0.019 A 
ATOM      4  C   UNN dAMED      -1.230   4.091   0.065  0.00  0.00     0.002 A 
ATOM      5  C   UNN dAMED      -1.051   3.202   1.118  0.00  0.00    -0.000 A 
ATOM      6  C   UNN dAMED      -1.140   1.833   0.892  0.00  0.00    -0.002 A 
ENDROOT
BRANCH   2   7
ATOM      7  N   UNN dAMED      -1.684   1.730  -2.726  0.00  0.00    -0.208 NA
ATOM      8  C   UNN dAMED      -0.810   2.151  -3.654  0.00  0.00     0.286 C 
ATOM      9  O   UNN dAMED       0.255   2.742  -3.492  0.00  0.00    -0.265 OA
BRANCH   8  10
ATOM     10  C   UNN dAMED      -1.259   1.736  -4.969  0.00  0.00     0.098 A 
ATOM     11  C   UNN dAMED      -0.662   0.831  -5.819  0.00  0.00     0.069 A 
ATOM     12 CL   UNN dAMED       0.776  -0.042  -5.472  0.00  0.00    -0.082 Cl
ATOM     13  C   UNN dAMED      -1.373   0.677  -7.056  0.00  0.00     0.017 A 
ATOM     14  C   UNN dAMED      -2.508   1.490  -7.091  0.00  0.00     0.030 A 
ATOM     15  C   UNN dAMED      -1.113  -0.140  -8.181  0.00  0.00     0.001 A 
ATOM     16  S   UNN dAMED      -2.641   2.451  -5.672  0.00  0.00    -0.081 SA
ATOM     17  C   UNN dAMED      -3.386   1.495  -8.189  0.00  0.00     0.006 A 
ATOM     18  C   UNN dAMED      -3.101   0.666  -9.274  0.00  0.00     0.001 A 
ATOM     19  C   UNN dAMED      -1.973  -0.138  -9.278  0.00  0.00     0.000 A 
ENDBRANCH   8  10
ENDBRANCH   2   7
BRANCH   1  20
ATOM     20  C   UNN dAMED      -1.603  -0.121  -0.613  0.00  0.00     0.071 C 
BRANCH  20  21
ATOM     21  C   UNN dAMED      -2.802  -0.826   0.046  0.00  0.00     0.037 C 
ATOM     22  C   UNN dAMED      -4.189  -0.661  -0.561  0.00  0.00     0.008 A 
ATOM     23  C   UNN dAMED      -4.335  -0.142  -1.844  0.00  0.00     0.001 A 
ATOM     24  C   UNN dAMED      -5.331  -0.982   0.174  0.00  0.00    -0.019 A 
ATOM     25  C   UNN dAMED      -5.606   0.087  -2.369  0.00  0.00     0.000 A 
ATOM     26  C   UNN dAMED      -6.738  -0.211  -1.613  0.00  0.00    -0.000 A 
ATOM     27  C   UNN dAMED      -6.603  -0.748  -0.336  0.00  0.00    -0.004 A 
ATOM     28  C   UNN dAMED      -5.128  -1.511   1.558  0.00  0.00     0.051 C 
ATOM     29  C   UNN dAMED      -3.761  -2.140   1.822  0.00  0.00     0.106 C 
ATOM     30  N   UNN dAMED      -2.612  -1.426   1.404  0.00  0.00    -0.349 N 
ATOM     31  C   UNN dAMED      -1.444  -0.702   0.980  0.00  0.00     0.125 C 
ENDBRANCH  20  21
ENDBRANCH   1  20
TORSDOF 4
