REMARK  4 active torsions:
REMARK  status: ('A' for Active; 'I' for Inactive)
REMARK    1  A    between atoms: C_8  and  N_16 
REMARK    2  A    between atoms: N_16  and  CA_18 
REMARK    3  A    between atoms: C_17  and  CA_18 
REMARK    4  A    between atoms: CA_18  and  C_20 
ROOT
ATOM      1  C   UNN dAMED       6.223   6.364  -2.820  0.00  0.00     0.000 A 
ATOM      2  C   UNN dAMED       5.090   5.727  -3.308  0.00  0.00     0.000 A 
ATOM      3  C   UNN dAMED       6.858   5.867  -1.685  0.00  0.00     0.000 A 
ATOM      4  C   UNN dAMED       4.604   4.598  -2.658  0.00  0.00     0.003 A 
ATOM      5  C   UNN dAMED       6.384   4.727  -1.011  0.00  0.00     0.004 A 
ATOM      6  C   UNN dAMED       5.235   4.082  -1.510  0.00  0.00     0.036 A 
ATOM      7  C   UNN dAMED       8.159   4.822   0.701  0.00  0.00     0.013 A 
ATOM      8  C   UNN dAMED       4.770   2.947  -0.833  0.00  0.00     0.162 A 
ATOM      9  C   UNN dAMED       7.018   4.219   0.142  0.00  0.00     0.019 A 
ATOM     10  C   UNN dAMED       6.478   3.070   0.749  0.00  0.00     0.083 A 
ATOM     11  C   UNN dAMED       8.755   4.298   1.839  0.00  0.00     0.058 A 
ATOM     12 CL   UNN dAMED      10.131   5.067   2.511  0.00  0.00    -0.082 Cl
ATOM     13  N   UNN dAMED       5.385   2.453   0.272  0.00  0.00    -0.227 NA
ATOM     14  C   UNN dAMED       8.231   3.164   2.437  0.00  0.00     0.013 A 
ATOM     15  C   UNN dAMED       7.101   2.565   1.884  0.00  0.00     0.020 A 
ENDROOT
BRANCH   8  16
ATOM     16  N   UNN dAMED       3.680   2.258  -1.215  0.00  0.00    -0.233 NA
BRANCH  16  17
ATOM     17  CA  UNN dAMED       3.297   1.050  -0.505  0.00  0.00     0.071 C 
BRANCH  17  18
ATOM     18  C   UNN dAMED       4.351  -0.027  -0.235  0.00  0.00     0.044 C 
ATOM     19  C   UNN dAMED       5.078  -0.055   1.112  0.00  0.00     0.006 C 
ENDBRANCH  17  18
BRANCH  17  20
ATOM     20  C   UNN dAMED       1.975   1.019   0.269  0.00  0.00     0.223 C 
ATOM     21  O   UNN dAMED       1.227  -0.126   0.305  0.00  0.00    -0.214 OA
ENDBRANCH  17  20
ENDBRANCH  16  17
ENDBRANCH   8  16
TORSDOF 4
