REMARK  0 active torsions:
REMARK  status: ('A' for Active; 'I' for Inactive)
ROOT
ATOM      1 CL   UNN dAMED      -2.262  -2.004  -0.000  0.00  0.00     0.037 Cl
ATOM      2 CL   UNN dAMED      -2.896   0.863   0.000  0.00  0.00     0.037 Cl
ATOM      3  N   UNN dAMED      -0.574  -1.889   0.000  0.00  0.00    -0.174 NA
ATOM      4  C   UNN dAMED       0.069  -0.767  -0.000  0.00  0.00     0.114 A 
ATOM      5  N   UNN dAMED      -1.317   1.470  -0.000  0.00  0.00    -0.174 NA
ATOM      6  C   UNN dAMED      -0.261   0.724   0.000  0.00  0.00     0.114 A 
ATOM      7  C   UNN dAMED       1.550  -1.099  -0.000  0.00  0.00     0.022 A 
ATOM      8  C   UNN dAMED       2.538  -0.213  -0.000  0.00  0.00     0.002 A 
ATOM      9  C   UNN dAMED       0.942   1.651   0.000  0.00  0.00     0.022 A 
ATOM     10  C   UNN dAMED       2.211   1.263   0.000  0.00  0.00     0.002 A 
ENDROOT
TORSDOF 0
