REMARK  2 active torsions:
REMARK  status: ('A' for Active; 'I' for Inactive)
REMARK    1  A    between atoms: C_3  and  N_17 
REMARK    2  A    between atoms: C_9  and  N_14 
REMARK       I    between atoms: N_14  and  C_15 
REMARK       I    between atoms: C_15  and  N_17 
ROOT
ATOM      1  N   UNN dAMED      -0.564   0.899  -0.285  0.00  0.00    -0.191 NA
ATOM      2  C   UNN dAMED      -0.158  -0.367  -0.022  0.00  0.00     0.369 C 
ATOM      3  O   UNN dAMED      -0.673  -1.159   0.765  0.00  0.00    -0.242 OA
ATOM      4  N   UNN dAMED       0.884  -0.699  -0.819  0.00  0.00    -0.191 NA
ENDROOT
BRANCH   1   5
ATOM      5  C   UNN dAMED      -1.760   1.280   0.207  0.00  0.00     0.086 A 
ATOM      6  C   UNN dAMED      -2.042   1.308   1.581  0.00  0.00     0.020 A 
ATOM      7  C   UNN dAMED      -3.228   1.847   2.076  0.00  0.00     0.016 A 
ATOM      8  C   UNN dAMED      -4.143   2.417   1.199  0.00  0.00     0.070 A 
ATOM      9  C   UNN dAMED      -3.882   2.430  -0.166  0.00  0.00     0.016 A 
ATOM     10  N   UNN dAMED      -5.311   3.054   1.707  0.00  0.00    -0.101 NA
ATOM     11  C   UNN dAMED      -2.702   1.864  -0.650  0.00  0.00     0.020 A 
ENDBRANCH   1   5
BRANCH   4  12
ATOM     12  C   UNN dAMED       2.075  -0.195  -0.418  0.00  0.00     0.086 A 
ATOM     13  C   UNN dAMED       2.567   0.989  -0.988  0.00  0.00     0.020 A 
ATOM     14  C   UNN dAMED       3.836   1.480  -0.691  0.00  0.00     0.016 A 
ATOM     15  C   UNN dAMED       4.657   0.773   0.178  0.00  0.00     0.070 A 
ATOM     16  C   UNN dAMED       4.200  -0.408   0.758  0.00  0.00     0.016 A 
ATOM     17  N   UNN dAMED       6.000   1.197   0.381  0.00  0.00    -0.101 NA
ATOM     18  C   UNN dAMED       2.922  -0.886   0.458  0.00  0.00     0.020 A 
ENDBRANCH   4  12
TORSDOF 2
