REMARK  1 active torsions:
REMARK  status: ('A' for Active; 'I' for Inactive)
REMARK    1  A    between atoms: C_3  and  C_9 
ROOT
ATOM      1  N   UNN dAMED       0.840  -0.899   0.235  0.00  0.00    -0.216 NA
ATOM      2  N   UNN dAMED      -0.374   1.168   0.225  0.00  0.00    -0.216 NA
ATOM      3  C   UNN dAMED       0.759   0.444   0.353  0.00  0.00     0.153 A 
ATOM      4  C   UNN dAMED      -0.310  -1.544  -0.051  0.00  0.00     0.155 A 
ATOM      5  C   UNN dAMED      -1.520  -0.897  -0.209  0.00  0.00     0.067 A 
ATOM      6  C   UNN dAMED      -1.496   0.475  -0.060  0.00  0.00     0.155 A 
ATOM      7  N   UNN dAMED      -0.267  -2.958  -0.218  0.00  0.00    -0.080 NA
ATOM      8  N   UNN dAMED      -2.712   1.199  -0.229  0.00  0.00    -0.080 NA
ENDROOT
BRANCH   3   9
ATOM      9  C   UNN dAMED       2.037   1.196   0.635  0.00  0.00     0.134 C 
ATOM     10  S   UNN dAMED       3.082   1.749  -0.677  0.00  0.00    -0.073 SA
ENDBRANCH   3   9
TORSDOF 1
