REMARK  3 active torsions:
REMARK  status: ('A' for Active; 'I' for Inactive)
REMARK    1  A    between atoms: C_11  and  C_14 
REMARK    2  A    between atoms: C_12  and  N_17 
REMARK    3  A    between atoms: C_14  and  C_15 
ROOT
ATOM      1  C   UNN dAMED      -2.398  -2.643   0.366  0.00  0.00     0.000 A 
ATOM      2  C   UNN dAMED      -3.623  -2.089  -0.004  0.00  0.00     0.000 A 
ATOM      3  C   UNN dAMED      -3.701  -0.755  -0.404  0.00  0.00     0.000 A 
ATOM      4  C   UNN dAMED      -2.555   0.038  -0.439  0.00  0.00     0.000 A 
ATOM      5  C   UNN dAMED      -1.313  -0.527  -0.064  0.00  0.00     0.002 A 
ATOM      6  C   UNN dAMED      -1.241  -1.868   0.338  0.00  0.00     0.000 A 
ATOM      7  C   UNN dAMED      -2.629   1.373  -0.839  0.00  0.00     0.002 A 
ATOM      8  C   UNN dAMED      -1.502   2.200  -0.883  0.00  0.00     0.025 A 
ATOM      9  C   UNN dAMED      -0.293   1.614  -0.506  0.00  0.00     0.102 A 
ATOM     10  C   UNN dAMED      -0.154   0.284  -0.103  0.00  0.00     0.022 A 
ATOM     11  C   UNN dAMED       1.220   0.135   0.182  0.00  0.00     0.028 A 
ATOM     12  C   UNN dAMED       1.816   1.341  -0.039  0.00  0.00     0.223 A 
ATOM     13  O   UNN dAMED       0.914   2.262  -0.463  0.00  0.00    -0.286 OA
ENDROOT
BRANCH  11  14
ATOM     14  C   UNN dAMED       1.871  -1.077   0.771  0.00  0.00     0.066 C 
BRANCH  14  15
ATOM     15  C   UNN dAMED       2.140  -1.129   2.279  0.00  0.00     0.187 C 
ATOM     16  O   UNN dAMED       2.534  -2.298   2.867  0.00  0.00    -0.220 OA
ENDBRANCH  14  15
ENDBRANCH  11  14
BRANCH  12  17
ATOM     17  N   UNN dAMED       3.143   1.803   0.124  0.00  0.00    -0.090 N 
ATOM     18  O   UNN dAMED       3.419   2.913  -0.346  0.00  0.00    -0.530 OA
ATOM     19  O   UNN dAMED       3.920   1.051   0.723  0.00  0.00    -0.530 OA
ENDBRANCH  12  17
TORSDOF 3
