REMARK  7 active torsions:
REMARK  status: ('A' for Active; 'I' for Inactive)
REMARK    1  A    between atoms: C_8  and  C_27 
REMARK    2  A    between atoms: C_12  and  C_27 
REMARK    3  A    between atoms: C_13  and  C_23 
REMARK    4  A    between atoms: C_15  and  C_23 
REMARK    5  A    between atoms: C_18  and  O_29 
REMARK    6  A    between atoms: C_19  and  O_21 
REMARK    7  A    between atoms: C_20  and  O_25 
ROOT
ATOM      1  O   UNN dAMED      -0.366   2.926   1.627  0.00  0.00    -0.303 OA
ATOM      2  C   UNN dAMED      -1.439   2.092   1.590  0.00  0.00     0.126 A 
ATOM      3  C   UNN dAMED      -1.259   1.111   0.634  0.00  0.00     0.069 A 
ATOM      4  C   UNN dAMED       0.026   1.360   0.061  0.00  0.00     0.069 A 
ATOM      5  C   UNN dAMED       0.523   2.477   0.701  0.00  0.00     0.126 A 
ENDROOT
BRANCH   4   6
ATOM      6  C   UNN dAMED       0.703   0.685  -1.026  0.00  0.00     0.198 C 
ATOM      7  O   UNN dAMED       0.588   1.077  -2.183  0.00  0.00    -0.286 OA
BRANCH   6   8
ATOM      8  C   UNN dAMED       1.583  -0.470  -0.729  0.00  0.00     0.043 A 
ATOM      9  C   UNN dAMED       2.394  -0.958  -1.760  0.00  0.00     0.029 A 
ATOM     10  C   UNN dAMED       3.208  -2.064  -1.537  0.00  0.00     0.118 A 
ATOM     11  C   UNN dAMED       3.227  -2.686  -0.298  0.00  0.00     0.138 A 
ATOM     12  C   UNN dAMED       2.423  -2.196   0.725  0.00  0.00     0.118 A 
ATOM     13  C   UNN dAMED       1.596  -1.093   0.520  0.00  0.00     0.029 A 
BRANCH  10  14
ATOM     14  O   UNN dAMED       3.970  -2.530  -2.566  0.00  0.00    -0.326 OA
ATOM     15  C   UNN dAMED       4.873  -3.422  -1.983  0.00  0.00     0.181 C 
ENDBRANCH  10  14
BRANCH  11  16
ATOM     16  O   UNN dAMED       4.015  -3.778  -0.088  0.00  0.00    -0.324 OA
ATOM     17  C   UNN dAMED       5.327  -3.320  -0.234  0.00  0.00     0.182 C 
ENDBRANCH  11  16
BRANCH  12  18
ATOM     18  O   UNN dAMED       2.421  -2.803   1.947  0.00  0.00    -0.326 OA
ATOM     19  C   UNN dAMED       2.311  -1.765   2.874  0.00  0.00     0.181 C 
ENDBRANCH  12  18
ENDBRANCH   6   8
ENDBRANCH   4   6
BRANCH   3  20
ATOM     20  C   UNN dAMED      -2.189   0.040   0.341  0.00  0.00     0.198 C 
ATOM     21  O   UNN dAMED      -1.830  -1.121   0.179  0.00  0.00    -0.286 OA
BRANCH  20  22
ATOM     22  C   UNN dAMED      -3.626   0.350   0.265  0.00  0.00     0.041 A 
ATOM     23  C   UNN dAMED      -4.082   1.284  -0.694  0.00  0.00     0.005 A 
ATOM     24  C   UNN dAMED      -5.452   1.544  -0.893  0.00  0.00     0.026 A 
ATOM     25  C   UNN dAMED      -6.293   0.775  -0.098  0.00  0.00     0.119 A 
ATOM     26  O   UNN dAMED      -7.659   0.788  -0.099  0.00  0.00    -0.300 OA
ATOM     27  C   UNN dAMED      -5.838  -0.160   0.835  0.00  0.00     0.119 A 
ATOM     28  C   UNN dAMED      -7.964  -0.160   0.831  0.00  0.00     0.304 A 
ATOM     29  O   UNN dAMED      -6.904  -0.771   1.429  0.00  0.00    -0.300 OA
ATOM     30  C   UNN dAMED      -4.494  -0.417   1.072  0.00  0.00     0.029 A 
ENDBRANCH  20  22
ENDBRANCH   3  20
TORSDOF 7
