REMARK  0 active torsions:
REMARK  status: ('A' for Active; 'I' for Inactive)
ROOT
ATOM      1  C   UNN dAMED      -3.722  -0.062  -0.220  0.00  0.00     0.228 A 
ATOM      2  C   UNN dAMED      -3.383   1.431  -0.432  0.00  0.00     0.161 A 
ATOM      3  C   UNN dAMED      -2.637  -0.847  -0.029  0.00  0.00     0.117 A 
ATOM      4  N   UNN dAMED      -2.210   1.904  -0.435  0.00  0.00    -0.054 NA
ATOM      5  N   UNN dAMED      -1.365  -0.313  -0.034  0.00  0.00     0.034 N 
ATOM      6  C   UNN dAMED      -1.166   1.045  -0.236  0.00  0.00     0.766 A 
ATOM      7  N   UNN dAMED       0.109   1.391  -0.215  0.00  0.00     0.043 NA
ATOM      8  C   UNN dAMED      -0.147  -0.868   0.131  0.00  0.00     0.769 A 
ATOM      9  N   UNN dAMED       0.749   0.154   0.027  0.00  0.00    -0.042 N 
ATOM     10  O   UNN dAMED      -4.948  -0.335  -0.253  0.00  0.00    -0.284 OA
ATOM     11  C   UNN dAMED      -2.818  -2.324   0.190  0.00  0.00     0.055 C 
ATOM     12  N   UNN dAMED       0.108  -2.103   0.339  0.00  0.00     0.061 N 
ATOM     13  C   UNN dAMED       2.157   0.132   0.110  0.00  0.00     0.101 A 
ATOM     14  C   UNN dAMED       2.849   1.025   0.939  0.00  0.00     0.020 A 
ATOM     15  C   UNN dAMED       4.244   1.009   1.012  0.00  0.00     0.002 A 
ATOM     16  C   UNN dAMED       4.972   0.093   0.258  0.00  0.00     0.000 A 
ATOM     17  C   UNN dAMED       4.302  -0.800  -0.571  0.00  0.00     0.002 A 
ATOM     18  C   UNN dAMED       2.908  -0.772  -0.649  0.00  0.00     0.020 A 
ENDROOT
TORSDOF 0
