REMARK  5 active torsions:
REMARK  status: ('A' for Active; 'I' for Inactive)
REMARK    1  A    between atoms: O_1  and  C_5 
REMARK    2  A    between atoms: O_1  and  C_21 
REMARK    3  A    between atoms: C_11  and  N_17 
REMARK    4  A    between atoms: C_12  and  C_15 
REMARK       I    between atoms: N_17  and  C_19 
REMARK    5  A    between atoms: C_19  and  C_21 
ROOT
ATOM      1  N   UNN dAMED      -0.070  -2.726  -0.964  0.00  0.00    -0.209 NA
ATOM      2  C   UNN dAMED       0.879  -3.239  -1.753  0.00  0.00     0.286 C 
ATOM      3  O   UNN dAMED       0.811  -4.228  -2.475  0.00  0.00    -0.267 OA
ENDROOT
BRANCH   2   4
ATOM      4  C   UNN dAMED       2.079  -2.344  -1.964  0.00  0.00     0.238 C 
BRANCH   4   5
ATOM      5  O   UNN dAMED       3.342  -2.710  -1.489  0.00  0.00    -0.321 OA
BRANCH   5   6
ATOM      6  C   UNN dAMED       3.730  -1.700  -0.657  0.00  0.00     0.095 A 
ATOM      7  C   UNN dAMED       2.776  -0.832  -0.136  0.00  0.00     0.025 A 
ATOM      8  C   UNN dAMED       3.179   0.186   0.724  0.00  0.00     0.013 A 
ATOM      9  C   UNN dAMED       4.526   0.319   1.047  0.00  0.00     0.058 A 
ATOM     10 CL   UNN dAMED       5.022   1.588   2.091  0.00  0.00    -0.082 Cl
ATOM     11  C   UNN dAMED       5.477  -0.556   0.526  0.00  0.00     0.013 A 
ATOM     12  C   UNN dAMED       5.075  -1.576  -0.332  0.00  0.00     0.025 A 
ENDBRANCH   5   6
ENDBRANCH   4   5
ENDBRANCH   2   4
BRANCH   1  13
ATOM     13  C   UNN dAMED      -0.845  -3.648  -0.351  0.00  0.00     0.088 A 
ATOM     14  C   UNN dAMED      -0.335  -4.422   0.704  0.00  0.00     0.019 A 
ATOM     15  C   UNN dAMED      -1.124  -5.343   1.397  0.00  0.00     0.002 A 
ATOM     16  C   UNN dAMED      -2.464  -5.503   1.061  0.00  0.00     0.000 A 
ATOM     17  C   UNN dAMED      -3.010  -4.742   0.038  0.00  0.00     0.006 A 
ATOM     18  C   UNN dAMED      -2.210  -3.825  -0.647  0.00  0.00     0.071 A 
BRANCH  18  19
ATOM     19  C   UNN dAMED      -2.943  -3.087  -1.687  0.00  0.00     0.268 C 
ATOM     20  O   UNN dAMED      -2.692  -1.917  -1.936  0.00  0.00    -0.271 OA
ATOM     21  N   UNN dAMED      -4.227  -3.590  -2.046  0.00  0.00    -0.057 NA
ENDBRANCH  18  19
ENDBRANCH   1  13
TORSDOF 5
