REMARK  3 active torsions:
REMARK  status: ('A' for Active; 'I' for Inactive)
REMARK    1  A    between atoms: C_5  and  S_6 
REMARK    2  A    between atoms: S_6  and  C_7 
REMARK    3  A    between atoms: C_9  and  N_18 
ROOT
ATOM      1  C   UNN dAMED       0.913  -1.063   1.648  0.00  0.00     0.010 A 
ATOM      2  C   UNN dAMED       2.213  -0.521   1.753  0.00  0.00     0.026 A 
ATOM      3  C   UNN dAMED       0.143  -1.041   0.467  0.00  0.00     0.052 A 
ATOM      4  C   UNN dAMED       2.828   0.085   0.655  0.00  0.00     0.148 A 
ATOM      5  C   UNN dAMED       2.124   0.124  -0.562  0.00  0.00     0.152 A 
ATOM      6  C   UNN dAMED       0.776  -0.447  -0.654  0.00  0.00     0.138 A 
ATOM      7  N   UNN dAMED       0.357  -0.297  -1.919  0.00  0.00    -0.101 NA
ATOM      8  O   UNN dAMED       1.384   0.340  -2.593  0.00  0.00    -0.106 OA
ATOM      9  N   UNN dAMED       2.461   0.603  -1.766  0.00  0.00    -0.100 NA
ENDROOT
BRANCH   3  10
ATOM     10  S   UNN dAMED      -1.441  -1.796   0.324  0.00  0.00    -0.066 SA
BRANCH  10  11
ATOM     11  C   UNN dAMED      -2.444  -0.836   1.446  0.00  0.00     0.119 A 
ATOM     12  C   UNN dAMED      -2.499   0.554   1.308  0.00  0.00     0.026 A 
ATOM     13  C   UNN dAMED      -3.312   1.316   2.136  0.00  0.00     0.004 A 
ATOM     14  C   UNN dAMED      -4.095   0.694   3.095  0.00  0.00     0.021 A 
ATOM     15  C   UNN dAMED      -4.061  -0.692   3.227  0.00  0.00     0.109 A 
ATOM     16  N   UNN dAMED      -3.240  -1.465   2.409  0.00  0.00    -0.178 N 
ATOM     17  O   UNN dAMED      -3.251  -2.731   2.561  0.00  0.00    -0.079 OA
ENDBRANCH  10  11
ENDBRANCH   3  10
BRANCH   4  18
ATOM     18  N   UNN dAMED       4.158   0.607   0.756  0.00  0.00    -0.112 N 
ATOM     19  O   UNN dAMED       5.016   0.116   0.012  0.00  0.00    -0.532 OA
ATOM     20  O   UNN dAMED       4.349   1.498   1.593  0.00  0.00    -0.532 OA
ENDBRANCH   4  18
TORSDOF 3
