REMARK  3 active torsions:
REMARK  status: ('A' for Active; 'I' for Inactive)
REMARK    1  A    between atoms: C_6  and  C_16 
REMARK    2  A    between atoms: C_10  and  C_11 
REMARK       I    between atoms: C_10  and  N_17 
REMARK    3  A    between atoms: C_16  and  N_17 
ROOT
ATOM      1  C   UNN dAMED      -0.768   0.231   0.996  0.00  0.00     0.158 C 
ENDROOT
BRANCH   1   2
ATOM      2  C   UNN dAMED      -2.061   0.102   0.241  0.00  0.00     0.040 A 
ATOM      3  C   UNN dAMED      -2.227  -0.912  -0.697  0.00  0.00     0.139 A 
ATOM      4  C   UNN dAMED      -3.433  -1.075  -1.370  0.00  0.00     0.029 A 
ATOM      5  F   UNN dAMED      -1.207  -1.742  -0.958  0.00  0.00    -0.204 F 
ATOM      6  C   UNN dAMED      -4.491  -0.211  -1.095  0.00  0.00     0.003 A 
ATOM      7  C   UNN dAMED      -4.337   0.812  -0.160  0.00  0.00     0.011 A 
ATOM      8  C   UNN dAMED      -3.123   0.963   0.503  0.00  0.00     0.058 A 
ATOM      9 CL   UNN dAMED      -2.932   2.227   1.647  0.00  0.00    -0.083 Cl
ENDBRANCH   1   2
BRANCH   1  10
ATOM     10  N   UNN dAMED       0.361   0.956   0.430  0.00  0.00    -0.229 NA
ATOM     11  C   UNN dAMED       1.401   1.244   1.204  0.00  0.00     0.283 C 
ATOM     12  O   UNN dAMED       1.617   0.785   2.320  0.00  0.00    -0.265 OA
BRANCH  11  13
ATOM     13  C   UNN dAMED       2.252   2.203   0.562  0.00  0.00     0.115 A 
ATOM     14  S   UNN dAMED       2.121   3.880   0.893  0.00  0.00     0.009 SA
ATOM     15  N   UNN dAMED       3.382   4.277  -0.142  0.00  0.00    -0.036 NA
ATOM     16  N   UNN dAMED       3.923   3.218  -0.724  0.00  0.00    -0.172 NA
ATOM     17  C   UNN dAMED       3.295   2.056  -0.325  0.00  0.00     0.087 A 
ATOM     18  C   UNN dAMED       3.728   0.715  -0.842  0.00  0.00     0.054 C 
ENDBRANCH  11  13
ENDBRANCH   1  10
TORSDOF 3
