REMARK  3 active torsions:
REMARK  status: ('A' for Active; 'I' for Inactive)
REMARK    1  A    between atoms: C_10  and  S_15 
REMARK    2  A    between atoms: S_15  and  C_16 
REMARK    3  A    between atoms: C_16  and  C_17 
ROOT
ATOM      1  O   UNN dAMED      -3.351   2.111  -0.495  0.00  0.00    -0.246 OA
ATOM      2  N   UNN dAMED      -2.641  -0.087  -0.802  0.00  0.00    -0.246 N 
ATOM      3  N   UNN dAMED      -1.311   1.429   0.368  0.00  0.00    -0.263 N 
ATOM      4  O   UNN dAMED      -2.289  -2.388  -0.755  0.00  0.00    -0.266 OA
ATOM      5  N   UNN dAMED       0.099  -1.675   1.017  0.00  0.00    -0.204 NA
ATOM      6  N   UNN dAMED       0.575   0.430   1.582  0.00  0.00    -0.209 NA
ATOM      7  C   UNN dAMED      -1.950  -1.250  -0.449  0.00  0.00     0.278 C 
ATOM      8  C   UNN dAMED      -0.831  -0.909   0.386  0.00  0.00     0.133 A 
ATOM      9  C   UNN dAMED      -0.533   0.377   0.785  0.00  0.00     0.164 A 
ATOM     10  C   UNN dAMED       0.967  -0.827   1.646  0.00  0.00     0.152 A 
ATOM     11  C   UNN dAMED      -2.502   1.237  -0.332  0.00  0.00     0.335 C 
ATOM     12  C   UNN dAMED      -3.950  -0.356  -1.282  0.00  0.00     0.138 C 
ATOM     13  C   UNN dAMED      -1.372   2.495   1.301  0.00  0.00     0.137 C 
ATOM     14  C   UNN dAMED       0.815  -2.430   0.047  0.00  0.00     0.102 C 
ENDROOT
BRANCH  10  15
ATOM     15  S   UNN dAMED       2.363  -1.441   2.448  0.00  0.00    -0.083 SA
BRANCH  15  16
ATOM     16  C   UNN dAMED       3.357  -1.579   0.966  0.00  0.00     0.065 C 
BRANCH  16  17
ATOM     17  C   UNN dAMED       4.864  -1.315   1.032  0.00  0.00     0.012 C 
ATOM     18  C   UNN dAMED       5.730  -1.506  -0.217  0.00  0.00     0.001 C 
ENDBRANCH  16  17
ENDBRANCH  15  16
ENDBRANCH  10  15
TORSDOF 3
