REMARK  1 active torsions:
REMARK  status: ('A' for Active; 'I' for Inactive)
REMARK    1  A    between atoms: C_6  and  O_12 
ROOT
ATOM      1 BR   UNN dAMED      -3.653  -0.550  -0.546  0.00  0.00    -0.050 Br
ATOM      2  O   UNN dAMED       2.623  -1.291  -0.087  0.00  0.00    -0.291 OA
ATOM      3  C   UNN dAMED       1.417  -1.333  -0.227  0.00  0.00     0.175 A 
ATOM      4  C   UNN dAMED       0.679  -2.573  -0.657  0.00  0.00     0.074 A 
ATOM      5  C   UNN dAMED       0.452  -0.239  -0.020  0.00  0.00     0.053 A 
ATOM      6  C   UNN dAMED       0.655   1.065   0.372  0.00  0.00     0.097 A 
ATOM      7  C   UNN dAMED      -0.450   1.903   0.491  0.00  0.00     0.025 A 
ATOM      8  C   UNN dAMED      -0.798  -2.176  -0.702  0.00  0.00     0.035 A 
ATOM      9  C   UNN dAMED      -0.830  -0.731  -0.296  0.00  0.00    -0.011 A 
ATOM     10  C   UNN dAMED      -1.738   1.418   0.216  0.00  0.00     0.008 A 
ATOM     11  C   UNN dAMED      -1.927   0.093  -0.180  0.00  0.00     0.031 A 
ENDROOT
BRANCH   6  12
ATOM     12  O   UNN dAMED       1.895   1.546   0.641  0.00  0.00    -0.328 OA
ATOM     13  C   UNN dAMED       2.766   0.487   0.373  0.00  0.00     0.181 C 
ENDBRANCH   6  12
TORSDOF 1
