REMARK  2 active torsions:
REMARK  status: ('A' for Active; 'I' for Inactive)
REMARK    1  A    between atoms: N_7  and  C_11 
REMARK    2  A    between atoms: N_8  and  C_15 
ROOT
ATOM      1  O   UNN dAMED       5.123   0.760   0.081  0.00  0.00    -0.246 OA
ATOM      2  H   UNN dAMED       4.048  -0.369  -1.901  0.00  0.00     0.173 HD
ATOM      3  N   UNN dAMED       3.386  -0.052  -1.198  0.00  0.00    -0.273 N 
ATOM      4  N   UNN dAMED       2.972   0.999   0.856  0.00  0.00    -0.246 N 
ATOM      5  O   UNN dAMED       1.683  -1.212  -2.235  0.00  0.00    -0.265 OA
ATOM      6  O   UNN dAMED       1.170   0.298   2.118  0.00  0.00    -0.265 OA
ATOM      7  C   UNN dAMED       2.066  -0.472  -1.333  0.00  0.00     0.285 C 
ATOM      8  C   UNN dAMED       1.114  -0.160  -0.194  0.00  0.00     0.214 C 
ATOM      9  C   UNN dAMED       1.707   0.482   1.032  0.00  0.00     0.288 C 
ATOM     10  C   UNN dAMED       3.911   0.609  -0.085  0.00  0.00     0.333 C 
ATOM     11  C   UNN dAMED       3.591   1.268   2.106  0.00  0.00     0.139 C 
ENDROOT
BRANCH   8  12
ATOM     12  N   UNN dAMED      -0.293  -0.054  -0.425  0.00  0.00    -0.138 NA
ATOM     13  N   UNN dAMED      -0.974  -1.070  -0.669  0.00  0.00    -0.148 NA
BRANCH  13  14
ATOM     14  C   UNN dAMED      -2.327  -0.721  -0.761  0.00  0.00     0.103 A 
ATOM     15  C   UNN dAMED      -2.845  -0.155  -1.931  0.00  0.00     0.022 A 
ATOM     16  C   UNN dAMED      -4.203   0.137  -2.033  0.00  0.00     0.013 A 
ATOM     17  C   UNN dAMED      -5.048  -0.156  -0.968  0.00  0.00     0.058 A 
ATOM     18 CL   UNN dAMED      -6.725   0.179  -1.097  0.00  0.00    -0.082 Cl
ATOM     19  C   UNN dAMED      -4.552  -0.735   0.195  0.00  0.00     0.013 A 
ATOM     20  C   UNN dAMED      -3.193  -1.020   0.294  0.00  0.00     0.022 A 
ENDBRANCH  13  14
ENDBRANCH   8  12
TORSDOF 2
