REMARK  0 active torsions:
REMARK  status: ('A' for Active; 'I' for Inactive)
ROOT
ATOM      1  N   UNN dAMED       1.693   1.175   0.000  0.00  0.00    -0.237 NA
ATOM      2  S   UNN dAMED      -0.798   2.116   0.000  0.00  0.00    -0.067 SA
ATOM      3 BR   UNN dAMED      -2.734  -1.819  -0.000  0.00  0.00    -0.049 Br
ATOM      4  C   UNN dAMED      -2.054   0.981  -0.000  0.00  0.00     0.044 A 
ATOM      5  C   UNN dAMED      -1.604  -0.309  -0.000  0.00  0.00     0.043 A 
ATOM      6  C   UNN dAMED      -0.182  -0.401  -0.000  0.00  0.00     0.031 A 
ATOM      7  C   UNN dAMED       0.378   0.876   0.000  0.00  0.00     0.111 A 
ATOM      8  C   UNN dAMED       0.718  -1.484  -0.000  0.00  0.00     0.004 A 
ATOM      9  C   UNN dAMED       2.085  -1.228   0.000  0.00  0.00     0.021 A 
ATOM     10  C   UNN dAMED       2.496   0.092   0.000  0.00  0.00     0.100 A 
ENDROOT
TORSDOF 0
