REMARK  0 active torsions:
REMARK  status: ('A' for Active; 'I' for Inactive)
ROOT
ATOM      1  O   UNN dAMED      -2.204   2.435   0.292  0.00  0.00    -0.266 OA
ATOM      2  N   UNN dAMED      -1.136   0.359   0.054  0.00  0.00    -0.227 N 
ATOM      3  O   UNN dAMED       0.000  -1.670  -0.151  0.00  0.00    -0.245 OA
ATOM      4  N   UNN dAMED       1.256   0.294  -0.009  0.00  0.00    -0.227 N 
ATOM      5  O   UNN dAMED       2.447   2.312   0.137  0.00  0.00    -0.266 OA
ATOM      6  C   UNN dAMED       0.037  -0.439  -0.045  0.00  0.00     0.344 A 
ATOM      7  C   UNN dAMED       2.884  -0.949  -1.342  0.00  0.00     0.018 A 
ATOM      8  C   UNN dAMED       4.078  -1.660  -1.434  0.00  0.00    -0.003 A 
ATOM      9  C   UNN dAMED       2.467  -0.453  -0.104  0.00  0.00     0.071 A 
ATOM     10  C   UNN dAMED       4.865  -1.853  -0.299  0.00  0.00    -0.022 A 
ATOM     11  C   UNN dAMED       3.258  -0.642   1.032  0.00  0.00     0.018 A 
ATOM     12  C   UNN dAMED       4.462  -1.336   0.931  0.00  0.00    -0.003 A 
ATOM     13  C   UNN dAMED      -3.160  -0.287  -1.149  0.00  0.00     0.018 A 
ATOM     14  C   UNN dAMED      -4.401  -0.920  -1.174  0.00  0.00    -0.003 A 
ATOM     15  C   UNN dAMED      -2.388  -0.318   0.016  0.00  0.00     0.071 A 
ATOM     16  C   UNN dAMED      -2.862  -0.970   1.156  0.00  0.00     0.018 A 
ATOM     17  C   UNN dAMED      -4.863  -1.592  -0.044  0.00  0.00    -0.022 A 
ATOM     18  C   UNN dAMED      -4.096  -1.617   1.120  0.00  0.00    -0.003 A 
ATOM     19  C   UNN dAMED       1.393   1.680   0.110  0.00  0.00     0.274 A 
ATOM     20  C   UNN dAMED       0.120   2.408   0.218  0.00  0.00     0.127 A 
ATOM     21  C   UNN dAMED      -1.190   1.748   0.194  0.00  0.00     0.274 A 
ATOM     22  C   UNN dAMED      -6.185  -2.305  -0.085  0.00  0.00     0.031 C 
ATOM     23  C   UNN dAMED       0.158   3.735   0.347  0.00  0.00     0.093 C 
ATOM     24  N   UNN dAMED      -1.072   4.504   0.455  0.00  0.00    -0.099 NA
ATOM     25  C   UNN dAMED       6.144  -2.635  -0.401  0.00  0.00     0.031 C 
ENDROOT
TORSDOF 0
