REMARK  3 active torsions:
REMARK  status: ('A' for Active; 'I' for Inactive)
REMARK    1  A    between atoms: C_3  and  N_19 
REMARK    2  A    between atoms: C_8  and  N_15 
REMARK    3  A    between atoms: C_10  and  C_13 
REMARK       I    between atoms: N_15  and  C_16 
REMARK       I    between atoms: C_16  and  N_19 
ROOT
ATOM      1  N   UNN dAMED       0.402   1.265  -1.226  0.00  0.00    -0.191 NA
ATOM      2  C   UNN dAMED       0.628   1.262   0.104  0.00  0.00     0.369 C 
ATOM      3  O   UNN dAMED       0.249   2.175   0.835  0.00  0.00    -0.242 OA
ATOM      4  N   UNN dAMED       1.304   0.192   0.566  0.00  0.00    -0.191 NA
ENDROOT
BRANCH   1   5
ATOM      5  C   UNN dAMED      -0.090   0.136  -1.794  0.00  0.00     0.090 A 
ATOM      6  C   UNN dAMED       0.667  -0.470  -2.810  0.00  0.00     0.019 A 
ATOM      7  C   UNN dAMED       0.239  -1.615  -3.481  0.00  0.00     0.002 A 
ATOM      8  C   UNN dAMED      -0.987  -2.181  -3.159  0.00  0.00     0.000 A 
ATOM      9  C   UNN dAMED      -1.781  -1.599  -2.177  0.00  0.00     0.006 A 
ATOM     10  C   UNN dAMED      -1.331  -0.458  -1.507  0.00  0.00     0.071 A 
BRANCH  10  11
ATOM     11  C   UNN dAMED      -2.231   0.139  -0.514  0.00  0.00     0.268 C 
ATOM     12  O   UNN dAMED      -2.713  -0.546   0.378  0.00  0.00    -0.271 OA
ATOM     13  N   UNN dAMED      -2.195   1.553  -0.347  0.00  0.00    -0.057 NA
ENDBRANCH  10  11
ENDBRANCH   1   5
BRANCH   4  14
ATOM     14  C   UNN dAMED       2.642   0.263   0.391  0.00  0.00     0.086 A 
ATOM     15  C   UNN dAMED       3.260  -0.537  -0.580  0.00  0.00     0.019 A 
ATOM     16  C   UNN dAMED       4.639  -0.531  -0.764  0.00  0.00    -0.003 A 
ATOM     17  C   UNN dAMED       5.432   0.269   0.047  0.00  0.00    -0.022 A 
ATOM     18  C   UNN dAMED       4.850   1.054   1.038  0.00  0.00    -0.003 A 
ATOM     19  C   UNN dAMED       6.924   0.253  -0.124  0.00  0.00     0.031 C 
ATOM     20  C   UNN dAMED       3.466   1.041   1.211  0.00  0.00     0.019 A 
ENDBRANCH   4  14
TORSDOF 3
