REMARK  5 active torsions:
REMARK  status: ('A' for Active; 'I' for Inactive)
REMARK    1  A    between atoms: C_1  and  O_15 
REMARK    2  A    between atoms: C_3  and  C_18 
REMARK    3  A    between atoms: C_5  and  O_13 
REMARK    4  A    between atoms: C_8  and  C_21 
REMARK    5  A    between atoms: C_18  and  C_20 
ROOT
ATOM      1  C   UNN dAMED      -2.593   0.950   0.426  0.00  0.00     0.102 A 
ATOM      2  C   UNN dAMED      -3.762   0.228   0.248  0.00  0.00     0.049 A 
ATOM      3  C   UNN dAMED      -1.344   0.361   0.170  0.00  0.00     0.100 A 
ATOM      4  C   UNN dAMED      -1.204  -0.978  -0.285  0.00  0.00     0.203 A 
ATOM      5  C   UNN dAMED      -3.663  -1.078  -0.191  0.00  0.00     0.099 A 
ATOM      6  C   UNN dAMED      -2.424  -1.659  -0.449  0.00  0.00     0.066 A 
ATOM      7  O   UNN dAMED      -0.093  -1.553  -0.544  0.00  0.00    -0.286 OA
ENDROOT
BRANCH   3   8
ATOM      8  C   UNN dAMED      -0.096   1.146   0.280  0.00  0.00     0.201 C 
ATOM      9  O   UNN dAMED       0.044   2.113   1.010  0.00  0.00    -0.286 OA
BRANCH   8  10
ATOM     10  C   UNN dAMED       1.057   0.701  -0.578  0.00  0.00     0.042 C 
ATOM     11  C   UNN dAMED       2.274   1.191  -0.359  0.00  0.00     0.003 C 
BRANCH  11  12
ATOM     12  C   UNN dAMED       3.398   0.913  -1.316  0.00  0.00     0.000 A 
ATOM     13  C   UNN dAMED       4.422   1.849  -1.439  0.00  0.00     0.000 A 
ATOM     14  C   UNN dAMED       5.557   1.546  -2.185  0.00  0.00     0.000 A 
ATOM     15  C   UNN dAMED       5.667   0.306  -2.809  0.00  0.00     0.000 A 
ATOM     16  C   UNN dAMED       4.641  -0.629  -2.689  0.00  0.00     0.000 A 
ATOM     17  C   UNN dAMED       3.506  -0.328  -1.940  0.00  0.00     0.000 A 
ENDBRANCH  11  12
ENDBRANCH   8  10
ENDBRANCH   3   8
BRANCH   1  18
ATOM     18  O   UNN dAMED      -2.719   2.240   0.849  0.00  0.00    -0.328 OA
ATOM     19  C   UNN dAMED      -1.428   2.651   1.185  0.00  0.00     0.181 C 
ENDBRANCH   1  18
BRANCH   5  20
ATOM     20  O   UNN dAMED      -4.794  -1.814  -0.368  0.00  0.00    -0.328 OA
ATOM     21  C   UNN dAMED      -5.743  -1.224   0.468  0.00  0.00     0.181 C 
ENDBRANCH   5  20
TORSDOF 5
