REMARK  2 active torsions:
REMARK  status: ('A' for Active; 'I' for Inactive)
REMARK    1  A    between atoms: O_4  and  C_14 
REMARK    2  A    between atoms: O_4  and  C_19 
ROOT
ATOM      1 CL   UNN dAMED      -4.622   2.238   0.001  0.00  0.00    -0.081 Cl
ATOM      2  S   UNN dAMED      -0.686  -1.121  -0.056  0.00  0.00    -0.041 SA
ATOM      3  N   UNN dAMED      -1.736   1.229  -0.025  0.00  0.00    -0.215 NA
ATOM      4  C   UNN dAMED      -3.338  -2.072  -0.004  0.00  0.00     0.008 A 
ATOM      5  C   UNN dAMED      -4.696  -1.746   0.004  0.00  0.00     0.002 A 
ATOM      6  C   UNN dAMED      -2.403  -1.024  -0.022  0.00  0.00     0.051 A 
ATOM      7  C   UNN dAMED      -5.118  -0.424   0.006  0.00  0.00     0.013 A 
ATOM      8  C   UNN dAMED      -2.788   0.321  -0.017  0.00  0.00     0.101 A 
ATOM      9  C   UNN dAMED      -4.170   0.593   0.002  0.00  0.00     0.076 A 
ATOM     10  C   UNN dAMED      -0.592   0.587  -0.078  0.00  0.00     0.215 A 
ENDROOT
BRANCH  10  11
ATOM     11  O   UNN dAMED       0.585   1.205   0.017  0.00  0.00    -0.284 OA
BRANCH  11  12
ATOM     12  C   UNN dAMED       1.015   2.099  -0.930  0.00  0.00     0.103 A 
ATOM     13  C   UNN dAMED       0.316   2.434  -2.089  0.00  0.00     0.037 A 
ATOM     14  C   UNN dAMED       0.855   3.363  -2.983  0.00  0.00     0.070 A 
ATOM     15 CL   UNN dAMED      -0.064   3.735  -4.394  0.00  0.00    -0.081 Cl
ATOM     16  C   UNN dAMED       2.097   3.949  -2.718  0.00  0.00     0.068 A 
ATOM     17 CL   UNN dAMED       2.841   5.085  -3.779  0.00  0.00    -0.082 Cl
ATOM     18  C   UNN dAMED       2.791   3.613  -1.558  0.00  0.00     0.014 A 
ATOM     19  C   UNN dAMED       2.249   2.692  -0.667  0.00  0.00     0.026 A 
ENDBRANCH  11  12
ENDBRANCH  10  11
TORSDOF 2
