REMARK  2 active torsions:
REMARK  status: ('A' for Active; 'I' for Inactive)
REMARK    1  A    between atoms: C_1  and  N_27 
REMARK    2  A    between atoms: C_5  and  N_26 
REMARK       I    between atoms: C_7  and  N_17 
REMARK       I    between atoms: C_7  and  N_26 
REMARK       I    between atoms: C_9  and  N_11 
REMARK       I    between atoms: C_9  and  N_27 
ROOT
ATOM      1  C   UNN dAMED       0.406   5.638   2.386  0.00  0.00     0.083 A 
ATOM      2  C   UNN dAMED      -0.275   6.856   2.521  0.00  0.00    -0.004 A 
ATOM      3  C   UNN dAMED      -0.542   7.656   1.413  0.00  0.00    -0.001 A 
ATOM      4  C   UNN dAMED      -0.130   7.244   0.150  0.00  0.00     0.019 A 
ATOM      5  C   UNN dAMED       0.552   6.036  -0.037  0.00  0.00     0.087 A 
ATOM      6  C   UNN dAMED       0.837   5.273   1.102  0.00  0.00     0.038 A 
ATOM      7  C   UNN dAMED      -0.806   7.263   3.865  0.00  0.00     0.033 C 
ENDROOT
BRANCH   1   8
ATOM      8  N   UNN dAMED       0.636   4.834   3.443  0.00  0.00    -0.198 NA
ATOM      9  C   UNN dAMED      -0.402   4.003   3.673  0.00  0.00     0.325 C 
ATOM     10  O   UNN dAMED      -0.749   3.061   2.964  0.00  0.00    -0.251 OA
ATOM     11  N   UNN dAMED      -0.980   4.271   4.909  0.00  0.00    -0.200 NA
ATOM     12  C   UNN dAMED      -2.348   4.724   4.688  0.00  0.00     0.117 C 
ATOM     13  C   UNN dAMED      -2.117   3.364   5.115  0.00  0.00     0.117 C 
ATOM     14  C   UNN dAMED      -3.513   3.715   4.635  0.00  0.00     0.268 C 
ATOM     15  N   UNN dAMED      -4.121   3.198   3.134  0.00  0.00     0.142 N 
ATOM     16  C   UNN dAMED      -3.555   3.673   4.666  0.00  0.00     0.268 C 
ATOM     17  C   UNN dAMED      -3.560   3.669   4.654  0.00  0.00     0.285 C 
ENDBRANCH   1   8
BRANCH   5  18
ATOM     18  N   UNN dAMED       0.946   5.646  -1.265  0.00  0.00    -0.198 NA
ATOM     19  C   UNN dAMED       0.070   4.807  -1.863  0.00  0.00     0.325 C 
ATOM     20  O   UNN dAMED      -1.146   4.768  -1.733  0.00  0.00    -0.251 OA
ATOM     21  N   UNN dAMED       0.731   3.996  -2.782  0.00  0.00    -0.200 NA
ATOM     22  C   UNN dAMED       0.132   2.680  -2.699  0.00  0.00     0.105 C 
ATOM     23  C   UNN dAMED       1.729   3.246  -2.053  0.00  0.00     0.105 C 
ATOM     24  C   UNN dAMED       0.682   1.528  -3.551  0.00  0.00     0.115 C 
ATOM     25  N   UNN dAMED       2.024   1.012  -3.326  0.00  0.00    -0.365 N 
ATOM     26  C   UNN dAMED       2.604   2.223  -2.788  0.00  0.00     0.115 C 
ATOM     27  C   UNN dAMED       2.537  -0.104  -4.065  0.00  0.00     0.121 C 
ENDBRANCH   5  18
TORSDOF 2
