REMARK  4 active torsions:
REMARK  status: ('A' for Active; 'I' for Inactive)
REMARK    1  A    between atoms: N_6  and  C_8 
REMARK    2  A    between atoms: C_8  and  S_9 
REMARK    3  A    between atoms: S_9  and  C_21 
REMARK    4  A    between atoms: C_10  and  C_21 
ROOT
ATOM      1  C   UNN dAMED       1.861  -3.813   4.058  0.00  0.00     0.029 A 
ATOM      2  O   UNN dAMED       4.021  -4.716   3.574  0.00  0.00    -0.302 OA
ATOM      3  C   UNN dAMED       5.075  -5.216   4.359  0.00  0.00     0.299 C 
ATOM      4  C   UNN dAMED       2.948  -4.601   4.410  0.00  0.00     0.096 A 
ATOM      5  C   UNN dAMED       0.807  -3.687   4.961  0.00  0.00     0.014 A 
ATOM      6  O   UNN dAMED       5.050  -6.523   4.900  0.00  0.00    -0.322 OA
ATOM      7  C   UNN dAMED       0.848  -4.362   6.179  0.00  0.00     0.058 A 
ATOM      8  C   UNN dAMED       2.987  -5.290   5.615  0.00  0.00     0.031 A 
ATOM      9  C   UNN dAMED       1.935  -5.165   6.517  0.00  0.00     0.011 A 
ATOM     10  C   UNN dAMED       4.216  -6.084   5.948  0.00  0.00     0.174 C 
ATOM     11 CL   UNN dAMED      -0.459  -4.194   7.278  0.00  0.00    -0.082 Cl
ENDROOT
BRANCH   1  12
ATOM     12  C   UNN dAMED       1.901  -2.998   2.789  0.00  0.00     0.039 C 
BRANCH  12  13
ATOM     13  S   UNN dAMED       0.467  -2.820   1.720  0.00  0.00    -0.064 SA
BRANCH  13  14
ATOM     14  C   UNN dAMED       1.328  -1.993   0.446  0.00  0.00     0.123 C 
ATOM     15  S   UNN dAMED       0.669  -1.620  -1.036  0.00  0.00    -0.059 SA
BRANCH  14  16
ATOM     16  N   UNN dAMED       2.625  -1.716   0.785  0.00  0.00    -0.237 NA
ATOM     17  C   UNN dAMED       3.142  -2.880   1.443  0.00  0.00     0.089 C 
ATOM     18  C   UNN dAMED       3.054  -4.252   0.761  0.00  0.00     0.075 C 
ATOM     19  S   UNN dAMED       3.961  -4.584  -0.749  0.00  0.00    -0.137 SA
ATOM     20  C   UNN dAMED       3.312  -3.015  -1.323  0.00  0.00     0.075 C 
ATOM     21  C   UNN dAMED       3.384  -1.769  -0.430  0.00  0.00     0.089 C 
ENDBRANCH  14  16
ENDBRANCH  13  14
ENDBRANCH  12  13
ENDBRANCH   1  12
TORSDOF 4
