REMARK  2 active torsions:
REMARK  status: ('A' for Active; 'I' for Inactive)
REMARK    1  A    between atoms: C_21  and  O_24 
REMARK    2  A    between atoms: C_22  and  O_26 
ROOT
ATOM      1  C   UNN dAMED      -2.456   2.567   0.707  0.00  0.00     0.119 A 
ATOM      2  C   UNN dAMED      -3.718   1.978   0.789  0.00  0.00     0.121 A 
ATOM      3  C   UNN dAMED      -3.953   0.626   0.575  0.00  0.00     0.051 A 
ATOM      4  C   UNN dAMED      -2.789  -0.111   0.275  0.00  0.00     0.102 A 
ATOM      5  O   UNN dAMED      -2.998  -1.469   0.070  0.00  0.00    -0.309 OA
ATOM      6  C   UNN dAMED      -1.913  -2.261  -0.204  0.00  0.00     0.113 A 
ATOM      7  C   UNN dAMED      -0.649  -1.864  -0.284  0.00  0.00     0.084 A 
ATOM      8  C   UNN dAMED      -0.306  -0.416  -0.123  0.00  0.00     0.009 A 
ATOM      9  C   UNN dAMED      -1.492   0.487   0.195  0.00  0.00     0.025 A 
ATOM     10  C   UNN dAMED      -1.298   1.868   0.402  0.00  0.00     0.028 A 
ATOM     11  O   UNN dAMED      -4.646   2.927   1.108  0.00  0.00    -0.299 OA
ATOM     12  C   UNN dAMED      -3.889   4.055   1.210  0.00  0.00     0.304 A 
ATOM     13  O   UNN dAMED      -2.556   3.901   0.977  0.00  0.00    -0.300 OA
ATOM     14  C   UNN dAMED      -1.939  -3.711  -0.450  0.00  0.00     0.203 A 
ATOM     15  O   UNN dAMED      -0.639  -4.162  -0.713  0.00  0.00    -0.291 OA
ATOM     16  C   UNN dAMED       0.160  -3.042  -0.631  0.00  0.00     0.298 A 
ATOM     17  O   UNN dAMED       1.366  -3.031  -0.813  0.00  0.00    -0.259 OA
ATOM     18  C   UNN dAMED       1.133   0.045   0.032  0.00  0.00     0.002 A 
ATOM     19  C   UNN dAMED       1.876   0.381  -1.103  0.00  0.00     0.002 A 
ATOM     20  C   UNN dAMED       3.151   0.927  -0.971  0.00  0.00     0.026 A 
ATOM     21  C   UNN dAMED       3.669   1.148   0.298  0.00  0.00     0.116 A 
ATOM     22  C   UNN dAMED       2.932   0.821   1.427  0.00  0.00     0.116 A 
ATOM     23  C   UNN dAMED       1.666   0.262   1.304  0.00  0.00     0.026 A 
ENDROOT
BRANCH  22  24
ATOM     24  O   UNN dAMED       3.429   1.050   2.674  0.00  0.00    -0.326 OA
ATOM     25  C   UNN dAMED       2.334   0.923   3.533  0.00  0.00     0.181 C 
ENDBRANCH  22  24
BRANCH  21  26
ATOM     26  O   UNN dAMED       4.911   1.697   0.413  0.00  0.00    -0.326 OA
ATOM     27  C   UNN dAMED       5.435   1.686  -0.882  0.00  0.00     0.181 C 
ENDBRANCH  21  26
TORSDOF 2
