REMARK  2 active torsions:
REMARK  status: ('A' for Active; 'I' for Inactive)
REMARK    1  A    between atoms: C_1  and  O_7 
REMARK    2  A    between atoms: C_6  and  O_9 
ROOT
ATOM      1  C   UNN dAMED      -1.720  -0.659   2.448  0.00  0.00     0.116 A 
ATOM      2  C   UNN dAMED      -0.824  -1.690   2.696  0.00  0.00     0.022 A 
ATOM      3  C   UNN dAMED       0.464  -1.579   2.189  0.00  0.00    -0.017 A 
ATOM      4  C   UNN dAMED       0.883  -0.445   1.490  0.00  0.00     0.014 A 
ATOM      5  C   UNN dAMED      -0.032   0.571   1.231  0.00  0.00     0.027 A 
ATOM      6  C   UNN dAMED      -1.334   0.452   1.704  0.00  0.00     0.116 A 
ATOM      7  C   UNN dAMED       1.478  -2.672   2.265  0.00  0.00     0.053 C 
ATOM      8  C   UNN dAMED       2.765  -2.407   1.474  0.00  0.00     0.130 C 
ATOM      9  N   UNN dAMED       3.394  -1.073   1.531  0.00  0.00    -0.272 NA
ATOM     10  C   UNN dAMED       2.245  -0.492   0.800  0.00  0.00     0.081 C 
ATOM     11  C   UNN dAMED       2.239  -0.676  -0.877  0.00  0.00     0.161 C 
ATOM     12  O   UNN dAMED       2.388   0.495  -1.443  0.00  0.00    -0.220 OA
ATOM     13  C   UNN dAMED       2.267  -0.481   0.803  0.00  0.00     0.036 C 
ATOM     14  C   UNN dAMED       3.438   0.294   1.422  0.00  0.00     0.003 C 
ATOM     15  C   UNN dAMED       4.825  -0.190   1.014  0.00  0.00     0.000 C 
ATOM     16  C   UNN dAMED       4.880  -0.700  -0.418  0.00  0.00     0.003 C 
ATOM     17  C   UNN dAMED       3.618  -1.430  -0.891  0.00  0.00     0.036 C 
ENDROOT
BRANCH   6  18
ATOM     18  O   UNN dAMED      -2.240   1.430   1.425  0.00  0.00    -0.326 OA
ATOM     19  C   UNN dAMED      -3.378   1.084   2.162  0.00  0.00     0.181 C 
ENDBRANCH   6  18
BRANCH   1  20
ATOM     20  O   UNN dAMED      -2.992  -0.755   2.932  0.00  0.00    -0.326 OA
ATOM     21  C   UNN dAMED      -3.599   0.458   2.608  0.00  0.00     0.181 C 
ENDBRANCH   1  20
TORSDOF 2
