REMARK  0 active torsions:
REMARK  status: ('A' for Active; 'I' for Inactive)
ROOT
ATOM      1  C   UNN dAMED       3.684  -1.370  -0.343  0.00  0.00     0.021 A 
ATOM      2  C   UNN dAMED       2.683  -2.292   0.038  0.00  0.00     0.021 A 
ATOM      3  C   UNN dAMED       3.109  -0.123  -0.322  0.00  0.00     0.082 A 
ATOM      4  N   UNN dAMED       1.786  -0.250   0.030  0.00  0.00    -0.289 N 
ATOM      5  C   UNN dAMED       1.523  -1.581   0.243  0.00  0.00     0.082 A 
ATOM      6  C   UNN dAMED       0.898   0.805   0.136  0.00  0.00     0.161 C 
ATOM      7  C   UNN dAMED       0.563   1.727  -0.826  0.00  0.00     0.123 C 
ATOM      8  C   UNN dAMED       0.844   0.233   3.395  0.00  0.00     0.019 A 
ATOM      9  C   UNN dAMED       0.491  -0.497   4.527  0.00  0.00     0.002 A 
ATOM     10  N   UNN dAMED       0.189   1.153   1.263  0.00  0.00    -0.213 N 
ATOM     11  C   UNN dAMED      -0.096   0.369   2.380  0.00  0.00     0.085 A 
ATOM     12  C   UNN dAMED      -0.789  -1.046   4.639  0.00  0.00     0.011 A 
ATOM     13  N   UNN dAMED      -0.431   2.351   1.127  0.00  0.00    -0.162 NA
ATOM     14  C   UNN dAMED      -1.710  -0.892   3.604  0.00  0.00     0.059 A 
ATOM     15  C   UNN dAMED      -0.230   2.671  -0.153  0.00  0.00     0.134 C 
ATOM     16  C   UNN dAMED      -1.371  -0.184   2.463  0.00  0.00     0.031 A 
ATOM     17 CL   UNN dAMED      -3.284  -1.555   3.748  0.00  0.00    -0.082 Cl
ATOM     18  C   UNN dAMED       0.927   1.731  -2.199  0.00  0.00     0.106 C 
ATOM     19  N   UNN dAMED       1.199   1.727  -3.326  0.00  0.00    -0.191 NA
ENDROOT
TORSDOF 0
