REMARK  6 active torsions:
REMARK  status: ('A' for Active; 'I' for Inactive)
REMARK    1  A    between atoms: C_4  and  C_15 
REMARK    2  A    between atoms: C_6  and  C_10 
REMARK    3  A    between atoms: C_10  and  O_12 
REMARK    4  A    between atoms: O_12  and  C_13 
REMARK    5  A    between atoms: C_15  and  O_17 
REMARK    6  A    between atoms: O_17  and  C_18 
ROOT
ATOM      1  O   UNN dAMED       0.549  -1.962   0.432  0.00  0.00    -0.315 OA
ATOM      2  O   UNN dAMED      -1.332   1.548  -0.290  0.00  0.00    -0.286 OA
ATOM      3  C   UNN dAMED       1.275  -0.792   0.298  0.00  0.00     0.086 A 
ATOM      4  C   UNN dAMED       0.730   0.407   0.036  0.00  0.00     0.121 A 
ATOM      5  C   UNN dAMED      -0.749   0.488  -0.094  0.00  0.00     0.209 A 
ATOM      6  C   UNN dAMED      -1.491  -0.784   0.023  0.00  0.00     0.121 A 
ATOM      7  C   UNN dAMED      -0.823  -1.916   0.272  0.00  0.00     0.086 A 
ATOM      8  C   UNN dAMED      -1.602  -3.197   0.390  0.00  0.00     0.059 C 
ATOM      9  C   UNN dAMED       2.767  -0.860   0.480  0.00  0.00     0.059 C 
ENDROOT
BRANCH   4  10
ATOM     10  C   UNN dAMED       1.603   1.591  -0.125  0.00  0.00     0.300 C 
ATOM     11  O   UNN dAMED       1.191   2.710  -0.393  0.00  0.00    -0.259 OA
BRANCH  10  12
ATOM     12  O   UNN dAMED       2.916   1.293   0.013  0.00  0.00    -0.298 OA
BRANCH  12  13
ATOM     13  C   UNN dAMED       3.570   2.202  -0.823  0.00  0.00     0.152 C 
ATOM     14  C   UNN dAMED       5.100   2.236  -0.882  0.00  0.00     0.035 C 
ENDBRANCH  12  13
ENDBRANCH  10  12
ENDBRANCH   4  10
BRANCH   6  15
ATOM     15  C   UNN dAMED      -2.950  -0.886  -0.085  0.00  0.00     0.300 C 
ATOM     16  O   UNN dAMED      -3.710  -1.063   0.853  0.00  0.00    -0.259 OA
BRANCH  15  17
ATOM     17  O   UNN dAMED      -3.321  -0.681  -1.369  0.00  0.00    -0.298 OA
BRANCH  17  18
ATOM     18  C   UNN dAMED      -4.713  -0.559  -1.329  0.00  0.00     0.152 C 
ATOM     19  C   UNN dAMED      -5.367   0.827  -1.324  0.00  0.00     0.035 C 
ENDBRANCH  17  18
ENDBRANCH  15  17
ENDBRANCH   6  15
TORSDOF 6
