REMARK  4 active torsions:
REMARK  status: ('A' for Active; 'I' for Inactive)
REMARK    1  A    between atoms: N_10  and  C_21 
REMARK    2  A    between atoms: C_12  and  C_21 
REMARK       I    between atoms: C_12  and  N_22 
REMARK    3  A    between atoms: N_14  and  N_22 
REMARK    4  A    between atoms: C_15  and  C_23 
ROOT
ATOM      1  C   UNN dAMED       0.004  -1.360   2.541  0.00  0.00     0.293 C 
ATOM      2  O   UNN dAMED       1.096  -0.895   2.236  0.00  0.00    -0.267 OA
ATOM      3  N   UNN dAMED      -0.271  -2.063   3.633  0.00  0.00    -0.108 NA
ENDROOT
BRANCH   1   4
ATOM      4  C   UNN dAMED      -1.125  -1.170   1.554  0.00  0.00     0.209 C 
BRANCH   4   5
ATOM      5  N   UNN dAMED      -1.859   0.052   1.495  0.00  0.00    -0.057 NA
ATOM      6  N   UNN dAMED      -3.168  -0.226   1.608  0.00  0.00     0.014 NA
ATOM      7  C   UNN dAMED      -3.651   0.488   0.580  0.00  0.00     0.754 C 
ATOM      8  N   UNN dAMED      -4.949   0.648   0.222  0.00  0.00    -0.181 N 
ATOM      9  N   UNN dAMED      -2.656   1.071  -0.170  0.00  0.00     0.030 NA
ATOM     10  C   UNN dAMED      -5.420   0.084  -1.047  0.00  0.00     0.120 C 
ATOM     11  C   UNN dAMED      -6.001   0.454   1.225  0.00  0.00     0.120 C 
ATOM     12  C   UNN dAMED      -6.820   0.460  -1.543  0.00  0.00     0.025 C 
ATOM     13  C   UNN dAMED      -7.912   0.369  -0.487  0.00  0.00     0.004 C 
ATOM     14  C   UNN dAMED      -7.439   0.852   0.876  0.00  0.00     0.025 C 
ATOM     15  N   UNN dAMED      -1.505   0.717   0.386  0.00  0.00     0.017 NA
ENDBRANCH   4   5
ENDBRANCH   1   4
BRANCH   3  16
ATOM     16  N   UNN dAMED      -1.346  -2.815   3.387  0.00  0.00    -0.144 NA
ATOM     17  C   UNN dAMED      -2.298  -2.840   4.204  0.00  0.00     0.126 C 
BRANCH  17  18
ATOM     18  C   UNN dAMED      -3.507  -3.712   3.966  0.00  0.00     0.060 A 
ATOM     19  C   UNN dAMED      -3.565  -4.963   4.612  0.00  0.00     0.197 A 
ATOM     20  C   UNN dAMED      -4.740  -5.694   4.368  0.00  0.00     0.042 A 
ATOM     21  O   UNN dAMED      -2.628  -5.395   5.359  0.00  0.00    -0.286 OA
ATOM     22  C   UNN dAMED      -5.781  -5.236   3.557  0.00  0.00     0.003 A 
ATOM     23  C   UNN dAMED      -5.681  -3.994   2.950  0.00  0.00     0.000 A 
ATOM     24  C   UNN dAMED      -4.543  -3.228   3.157  0.00  0.00     0.005 A 
ENDBRANCH  17  18
ENDBRANCH   3  16
TORSDOF 4
