REMARK  4 active torsions:
REMARK  status: ('A' for Active; 'I' for Inactive)
REMARK    1  A    between atoms: C_8  and  C_9 
REMARK    2  A    between atoms: C_9  and  O_10 
REMARK    3  A    between atoms: O_10  and  C_11 
REMARK    4  A    between atoms: C_14  and  C_17 
ROOT
ATOM      1  N   UNN dAMED       5.408  -0.730  -0.531  0.00  0.00    -0.246 N 
ATOM      2  C   UNN dAMED       5.549  -0.416   0.829  0.00  0.00     0.335 C 
ATOM      3  N   UNN dAMED       4.309  -0.413   1.467  0.00  0.00    -0.263 N 
ATOM      4  C   UNN dAMED       3.153  -0.367   0.764  0.00  0.00     0.171 A 
ATOM      5  C   UNN dAMED       3.228  -0.671  -0.660  0.00  0.00     0.173 A 
ATOM      6  C   UNN dAMED       4.319  -0.949  -1.316  0.00  0.00     0.285 C 
ATOM      7  N   UNN dAMED       1.937  -0.067   1.098  0.00  0.00    -0.209 NA
ATOM      8  C   UNN dAMED       1.263  -0.171  -0.120  0.00  0.00     0.172 A 
ATOM      9  O   UNN dAMED       4.346  -1.352  -2.421  0.00  0.00    -0.265 OA
ATOM     10  O   UNN dAMED       6.604  -0.070   1.353  0.00  0.00    -0.246 OA
ATOM     11  C   UNN dAMED       4.295   0.435   2.604  0.00  0.00     0.137 C 
ATOM     12  N   UNN dAMED       1.970  -0.510  -1.167  0.00  0.00    -0.220 NA
ATOM     13  C   UNN dAMED       6.394  -0.025  -1.275  0.00  0.00     0.139 C 
ENDROOT
BRANCH   8  14
ATOM     14  C   UNN dAMED      -0.219   0.061  -0.234  0.00  0.00     0.214 C 
BRANCH  14  15
ATOM     15  O   UNN dAMED      -0.726   1.356  -0.381  0.00  0.00    -0.323 OA
BRANCH  15  16
ATOM     16  C   UNN dAMED      -1.324   1.389  -1.607  0.00  0.00     0.095 A 
ATOM     17  C   UNN dAMED      -2.526   0.721  -1.808  0.00  0.00     0.024 A 
ATOM     18  C   UNN dAMED      -3.159   0.822  -3.045  0.00  0.00    -0.002 A 
ATOM     19  C   UNN dAMED      -2.590   1.588  -4.065  0.00  0.00    -0.023 A 
ATOM     20  C   UNN dAMED      -1.384   2.252  -3.849  0.00  0.00    -0.002 A 
ATOM     21  C   UNN dAMED      -0.748   2.155  -2.613  0.00  0.00     0.024 A 
BRANCH  19  22
ATOM     22  C   UNN dAMED      -3.274   1.698  -5.389  0.00  0.00     0.019 C 
ATOM     23  C   UNN dAMED      -1.975   1.655  -6.698  0.00  0.00     0.004 C 
ATOM     24  C   UNN dAMED      -1.969   1.653  -6.696  0.00  0.00     0.004 C 
ATOM     25  C   UNN dAMED      -1.970   1.652  -6.698  0.00  0.00     0.004 C 
ENDBRANCH  19  22
ENDBRANCH  15  16
ENDBRANCH  14  15
ENDBRANCH   8  14
TORSDOF 4
