REMARK  0 active torsions:
REMARK  status: ('A' for Active; 'I' for Inactive)
ROOT
ATOM      1  C   UNN dAMED      -3.059   2.026  -0.097  0.00  0.00     0.160 A 
ATOM      2  N   UNN dAMED      -3.239   1.142   0.858  0.00  0.00    -0.138 NA
ATOM      3  S   UNN dAMED      -1.779   1.690  -1.179  0.00  0.00    -0.031 SA
ATOM      4  N   UNN dAMED      -2.328   0.106   0.757  0.00  0.00    -0.128 NA
ATOM      5  C   UNN dAMED      -1.516   0.272  -0.265  0.00  0.00     0.184 A 
ATOM      6  O   UNN dAMED      -1.588  -2.548  -1.046  0.00  0.00    -0.277 OA
ATOM      7  N   UNN dAMED      -0.474  -0.539  -0.653  0.00  0.00    -0.151 NA
ATOM      8  C   UNN dAMED      -0.665  -1.899  -0.572  0.00  0.00     0.234 C 
ATOM      9  C   UNN dAMED       0.668  -0.288   0.182  0.00  0.00     0.081 C 
ATOM     10  C   UNN dAMED       0.258  -2.542   0.409  0.00  0.00     0.145 C 
ATOM     11  C   UNN dAMED       2.038   1.843   0.063  0.00  0.00     0.009 A 
ATOM     12  S   UNN dAMED       0.999  -1.408   1.574  0.00  0.00    -0.092 SA
ATOM     13  C   UNN dAMED       1.807   0.558  -0.348  0.00  0.00     0.046 A 
ATOM     14  C   UNN dAMED       3.217   2.361  -0.532  0.00  0.00     0.007 A 
ATOM     15  S   UNN dAMED       2.973  -0.034  -1.425  0.00  0.00    -0.085 SA
ATOM     16  C   UNN dAMED       3.819   1.438  -1.349  0.00  0.00     0.035 A 
ENDROOT
TORSDOF 0
