REMARK  2 active torsions:
REMARK  status: ('A' for Active; 'I' for Inactive)
REMARK    1  A    between atoms: C_13  and  O_20 
REMARK    2  A    between atoms: C_14  and  O_18 
ROOT
ATOM      1  O   UNN dAMED      -0.304   0.269  -0.274  0.00  0.00    -0.305 OA
ATOM      2  O   UNN dAMED      -0.031  -2.361   2.817  0.00  0.00    -0.286 OA
ATOM      3  N   UNN dAMED      -4.429   0.101  -1.880  0.00  0.00    -0.242 NA
ATOM      4  C   UNN dAMED      -5.118   1.013  -1.158  0.00  0.00     0.099 A 
ATOM      5  C   UNN dAMED      -4.675   1.557   0.037  0.00  0.00     0.021 A 
ATOM      6  C   UNN dAMED      -3.442   1.135   0.520  0.00  0.00     0.005 A 
ATOM      7  C   UNN dAMED      -2.701   0.203  -0.197  0.00  0.00     0.042 A 
ATOM      8  C   UNN dAMED      -3.237  -0.286  -1.377  0.00  0.00     0.101 A 
ATOM      9  C   UNN dAMED      -1.431  -0.277   0.309  0.00  0.00     0.105 A 
ATOM     10  C   UNN dAMED      -1.388  -1.123   1.338  0.00  0.00     0.067 A 
ATOM     11  C   UNN dAMED      -0.070  -1.575   1.884  0.00  0.00     0.200 A 
ATOM     12  C   UNN dAMED       1.121  -1.022   1.249  0.00  0.00     0.064 A 
ATOM     13  C   UNN dAMED       2.054   0.406  -0.423  0.00  0.00     0.139 A 
ATOM     14  C   UNN dAMED       3.330   0.049   0.006  0.00  0.00     0.118 A 
ATOM     15  C   UNN dAMED       0.925  -0.127   0.196  0.00  0.00     0.127 A 
ATOM     16  C   UNN dAMED       3.508  -0.843   1.058  0.00  0.00     0.026 A 
ATOM     17  C   UNN dAMED       2.393  -1.386   1.687  0.00  0.00     0.007 A 
ENDROOT
BRANCH  13  18
ATOM     18  O   UNN dAMED       1.920   1.284  -1.459  0.00  0.00    -0.324 OA
ATOM     19  C   UNN dAMED       3.226   1.568  -1.865  0.00  0.00     0.182 C 
ENDBRANCH  13  18
BRANCH  14  20
ATOM     20  O   UNN dAMED       4.434   0.568  -0.603  0.00  0.00    -0.326 OA
ATOM     21  C   UNN dAMED       3.954   1.177  -1.765  0.00  0.00     0.181 C 
ENDBRANCH  14  20
TORSDOF 2
