REMARK  5 active torsions:
REMARK  status: ('A' for Active; 'I' for Inactive)
REMARK    1  A    between atoms: C_7  and  C_12 
REMARK    2  A    between atoms: C_12  and  C_13 
REMARK    3  A    between atoms: C_13  and  C_14 
REMARK    4  A    between atoms: C_14  and  C_15 
REMARK    5  A    between atoms: C_15  and  C_16 
ROOT
ATOM      1  O   UNN dAMED      -1.964  -2.670  -0.152  0.00  0.00    -0.247 OA
ATOM      2  H   UNN dAMED      -3.857  -0.876  -0.986  0.00  0.00     0.165 HD
ATOM      3  N   UNN dAMED      -3.049  -0.631  -0.432  0.00  0.00    -0.327 N 
ATOM      4  H   UNN dAMED       0.099  -0.956   0.393  0.00  0.00     0.165 HD
ATOM      5  N   UNN dAMED      -0.869  -0.674   0.335  0.00  0.00    -0.327 N 
ATOM      6  S   UNN dAMED      -2.058   3.177   0.398  0.00  0.00    -0.137 SA
ATOM      7  C   UNN dAMED      -0.812   1.880   0.574  0.00  0.00     0.070 C 
ATOM      8  C   UNN dAMED      -1.087   0.608  -0.220  0.00  0.00     0.113 C 
ATOM      9  C   UNN dAMED      -2.488   0.632  -0.717  0.00  0.00     0.113 C 
ATOM     10  C   UNN dAMED      -3.172   1.917  -0.262  0.00  0.00     0.082 C 
ATOM     11  C   UNN dAMED      -1.968  -1.445  -0.071  0.00  0.00     0.317 C 
ENDROOT
BRANCH   7  12
ATOM     12  C   UNN dAMED       0.600   2.215   1.061  0.00  0.00     0.013 C 
BRANCH  12  13
ATOM     13  C   UNN dAMED       0.875   3.564   1.736  0.00  0.00     0.002 C 
BRANCH  13  14
ATOM     14  C   UNN dAMED       0.842   3.685   3.263  0.00  0.00     0.011 C 
BRANCH  14  15
ATOM     15  C   UNN dAMED       2.150   3.858   4.044  0.00  0.00     0.098 C 
BRANCH  15  16
ATOM     16  C   UNN dAMED       3.133   2.721   4.134  0.00  0.00     0.185 C 
ATOM     17  O   UNN dAMED       4.218   2.858   3.494  0.00  0.00    -0.647 OA
ATOM     18  O   UNN dAMED       2.783   1.726   4.837  0.00  0.00    -0.647 OA
ENDBRANCH  15  16
ENDBRANCH  14  15
ENDBRANCH  13  14
ENDBRANCH  12  13
ENDBRANCH   7  12
TORSDOF 5
