REMARK  6 active torsions:
REMARK  status: ('A' for Active; 'I' for Inactive)
REMARK    1  A    between atoms: O_3  and  C_6 
REMARK    2  A    between atoms: O_3  and  C_17 
REMARK    3  A    between atoms: C_17  and  C_18 
REMARK    4  A    between atoms: C_18  and  C_19 
REMARK    5  A    between atoms: C_19  and  O_22 
REMARK    6  A    between atoms: O_22  and  C_23 
ROOT
ATOM      1 CL   UNN dAMED      -1.018  -3.482   1.989  0.00  0.00    -0.080 Cl
ATOM      2  N   UNN dAMED      -5.616   1.808  -0.469  0.00  0.00    -0.184 NA
ATOM      3  N   UNN dAMED      -4.065   0.088  -0.014  0.00  0.00    -0.287 N 
ATOM      4  N   UNN dAMED      -6.504  -0.370  -0.064  0.00  0.00    -0.223 NA
ATOM      5  C   UNN dAMED      -0.142  -1.270   0.663  0.00  0.00     0.105 A 
ATOM      6  C   UNN dAMED      -0.350  -0.078  -0.020  0.00  0.00     0.026 A 
ATOM      7  C   UNN dAMED      -1.220  -2.003   1.139  0.00  0.00     0.081 A 
ATOM      8  C   UNN dAMED      -1.654   0.368  -0.243  0.00  0.00     0.019 A 
ATOM      9  C   UNN dAMED      -2.515  -1.543   0.919  0.00  0.00     0.031 A 
ATOM     10  C   UNN dAMED      -2.762  -0.353   0.222  0.00  0.00     0.065 A 
ATOM     11  C   UNN dAMED      -5.149  -0.841   0.200  0.00  0.00     0.158 A 
ATOM     12  C   UNN dAMED      -4.400   1.387  -0.291  0.00  0.00     0.222 A 
ATOM     13  C   UNN dAMED      -6.634   0.880  -0.365  0.00  0.00     0.237 A 
ATOM     14  N   UNN dAMED      -3.345   2.339  -0.394  0.00  0.00    -0.061 NA
ATOM     15  N   UNN dAMED      -7.959   1.357  -0.581  0.00  0.00    -0.060 NA
ATOM     16  C   UNN dAMED      -4.883  -2.136  -0.587  0.00  0.00     0.048 C 
ATOM     17  C   UNN dAMED      -5.072  -1.410   1.630  0.00  0.00     0.048 C 
ENDROOT
BRANCH   5  18
ATOM     18  O   UNN dAMED       1.141  -1.685   0.865  0.00  0.00    -0.330 OA
BRANCH  18  19
ATOM     19  C   UNN dAMED       1.290  -2.840   0.091  0.00  0.00     0.151 C 
BRANCH  19  20
ATOM     20  C   UNN dAMED       2.626  -3.593   0.101  0.00  0.00     0.065 C 
BRANCH  20  21
ATOM     21  C   UNN dAMED       3.335  -3.891   1.428  0.00  0.00     0.151 C 
BRANCH  21  22
ATOM     22  O   UNN dAMED       4.593  -4.500   1.428  0.00  0.00    -0.331 OA
BRANCH  22  23
ATOM     23  C   UNN dAMED       5.482  -3.481   1.265  0.00  0.00     0.094 A 
ATOM     24  C   UNN dAMED       6.665  -3.486   1.994  0.00  0.00     0.024 A 
ATOM     25  C   UNN dAMED       7.564  -2.435   1.836  0.00  0.00     0.002 A 
ATOM     26  C   UNN dAMED       7.273  -1.393   0.956  0.00  0.00     0.000 A 
ATOM     27  C   UNN dAMED       6.082  -1.402   0.230  0.00  0.00     0.002 A 
ATOM     28  C   UNN dAMED       5.180  -2.451   0.383  0.00  0.00     0.024 A 
ENDBRANCH  22  23
ENDBRANCH  21  22
ENDBRANCH  20  21
ENDBRANCH  19  20
ENDBRANCH  18  19
ENDBRANCH   5  18
TORSDOF 6
