REMARK  2 active torsions:
REMARK  status: ('A' for Active; 'I' for Inactive)
REMARK    1  A    between atoms: C_6  and  N_12 
REMARK    2  A    between atoms: C_8  and  N_12 
ROOT
ATOM      1  C   UNN dAMED      -3.386   0.719  -1.198  0.00  0.00     0.001 C 
ATOM      2  C   UNN dAMED      -2.240   1.630  -0.756  0.00  0.00     0.006 C 
ATOM      3  C   UNN dAMED      -3.357  -0.684  -0.593  0.00  0.00     0.006 C 
ATOM      4  C   UNN dAMED      -1.983  -1.360  -0.564  0.00  0.00     0.042 C 
ATOM      5  C   UNN dAMED      -0.854   0.977  -0.721  0.00  0.00     0.042 C 
ATOM      6  C   UNN dAMED      -0.788  -0.467  -0.203  0.00  0.00     0.040 C 
ENDROOT
BRANCH   6   7
ATOM      7  N   UNN dAMED       0.512  -1.082   0.003  0.00  0.00    -0.214 NA
BRANCH   7   8
ATOM      8  C   UNN dAMED       1.210  -1.514  -1.026  0.00  0.00     0.265 A 
ATOM      9  O   UNN dAMED       0.638  -1.340  -2.264  0.00  0.00    -0.298 OA
ATOM     10  C   UNN dAMED       1.613  -1.894  -3.112  0.00  0.00     0.178 A 
ATOM     11  C   UNN dAMED       2.774  -2.391  -2.282  0.00  0.00     0.162 A 
ATOM     12  N   UNN dAMED       2.375  -2.081  -0.965  0.00  0.00    -0.229 NA
ENDBRANCH   7   8
ENDBRANCH   6   7
TORSDOF 2
