REMARK  2 active torsions:
REMARK  status: ('A' for Active; 'I' for Inactive)
REMARK    1  A    between atoms: C_2  and  N_12 
REMARK    2  A    between atoms: C_5  and  N_6 
REMARK       I    between atoms: N_6  and  C_7 
REMARK       I    between atoms: N_12  and  C_14 
ROOT
ATOM      1  C   UNN dAMED       0.969   2.068   0.381  0.00  0.00     0.037 A 
ATOM      2  C   UNN dAMED       1.263   0.744   0.080  0.00  0.00     0.144 A 
ATOM      3  C   UNN dAMED      -0.363   2.424   0.533  0.00  0.00     0.006 A 
ATOM      4  C   UNN dAMED      -1.351   1.465   0.374  0.00  0.00     0.037 A 
ATOM      5  C   UNN dAMED      -0.975   0.157   0.093  0.00  0.00     0.144 A 
ATOM      6  N   UNN dAMED       0.314  -0.212  -0.062  0.00  0.00    -0.212 NA
ENDROOT
BRANCH   2   7
ATOM      7  N   UNN dAMED       2.616   0.406  -0.074  0.00  0.00    -0.310 N 
ATOM      8  H   UNN dAMED       3.316   1.138  -0.010  0.00  0.00     0.170 HD
ATOM      9  C   UNN dAMED       2.990  -0.894  -0.343  0.00  0.00     0.236 C 
ATOM     10  O   UNN dAMED       4.103  -1.232  -0.731  0.00  0.00    -0.272 OA
ATOM     11  C   UNN dAMED       1.960  -1.973  -0.139  0.00  0.00     0.098 C 
ENDBRANCH   2   7
BRANCH   5  12
ATOM     12  N   UNN dAMED      -1.955  -0.837  -0.078  0.00  0.00    -0.310 N 
ATOM     13  C   UNN dAMED      -3.257  -0.726   0.367  0.00  0.00     0.236 C 
ATOM     14  O   UNN dAMED      -3.658  -0.013   1.279  0.00  0.00    -0.272 OA
ATOM     15  C   UNN dAMED      -4.279  -1.579  -0.328  0.00  0.00     0.098 C 
ATOM     16  H   UNN dAMED      -1.644  -1.711  -0.492  0.00  0.00     0.170 HD
ENDBRANCH   5  12
TORSDOF 2
