REMARK  4 active torsions:
REMARK  status: ('A' for Active; 'I' for Inactive)
REMARK    1  A    between atoms: C_2  and  C_11 
REMARK    2  A    between atoms: C_5  and  S_8 
REMARK       I    between atoms: C_11  and  N_13 
REMARK    3  A    between atoms: N_13  and  C_14 
REMARK    4  A    between atoms: C_14  and  C_15 
ROOT
ATOM      1  C   UNN dAMED      -0.009  -0.432   0.840  0.00  0.00     0.005 A 
ATOM      2  C   UNN dAMED       0.482  -0.021  -0.401  0.00  0.00     0.058 A 
ATOM      3  C   UNN dAMED      -1.383  -0.431   1.059  0.00  0.00     0.013 A 
ATOM      4  C   UNN dAMED      -0.372   0.403  -1.422  0.00  0.00     0.005 A 
ATOM      5  C   UNN dAMED      -2.226  -0.016   0.032  0.00  0.00     0.107 A 
ATOM      6  C   UNN dAMED      -1.746   0.401  -1.204  0.00  0.00     0.013 A 
ENDROOT
BRANCH   2   7
ATOM      7  C   UNN dAMED       1.931   0.025  -0.618  0.00  0.00     0.275 C 
ATOM      8  O   UNN dAMED       2.538   1.044  -0.310  0.00  0.00    -0.266 OA
ATOM      9  N   UNN dAMED       2.431  -1.084  -1.149  0.00  0.00    -0.234 NA
BRANCH   9  10
ATOM     10  C   UNN dAMED       1.528  -2.111  -1.641  0.00  0.00     0.129 C 
BRANCH  10  11
ATOM     11  C   UNN dAMED       0.016  -1.865  -1.618  0.00  0.00     0.026 C 
ATOM     12  C   UNN dAMED      -0.948  -3.007  -1.957  0.00  0.00     0.002 C 
ENDBRANCH  10  11
ENDBRANCH   9  10
ENDBRANCH   2   7
BRANCH   5  13
ATOM     13  S   UNN dAMED      -3.963   0.017   0.294  0.00  0.00     0.302 S 
ATOM     14  N   UNN dAMED      -4.733   0.312  -1.201  0.00  0.00    -0.043 N 
ATOM     15  O   UNN dAMED      -4.195   1.156   1.163  0.00  0.00    -0.197 OA
ATOM     16  O   UNN dAMED      -4.317  -1.320   0.733  0.00  0.00    -0.197 OA
ENDBRANCH   5  13
TORSDOF 4
