REMARK  0 active torsions:
REMARK  status: ('A' for Active; 'I' for Inactive)
ROOT
ATOM      1  O   UNN dAMED       0.583   2.229   0.820  0.00  0.00    -0.283 OA
ATOM      2  O   UNN dAMED      -1.480   1.567  -1.594  0.00  0.00    -0.259 OA
ATOM      3  O   UNN dAMED      -2.612   0.064  -0.400  0.00  0.00    -0.240 OA
ATOM      4  O   UNN dAMED      -3.555  -1.657   0.711  0.00  0.00    -0.263 OA
ATOM      5  C   UNN dAMED      -1.441   0.667  -0.759  0.00  0.00     0.305 C 
ATOM      6  C   UNN dAMED      -0.152   0.232  -0.155  0.00  0.00     0.102 C 
ATOM      7  C   UNN dAMED       0.891   1.245   0.152  0.00  0.00     0.239 C 
ATOM      8  C   UNN dAMED       2.272   0.932  -0.351  0.00  0.00     0.234 C 
ATOM      9  C   UNN dAMED      -0.031  -1.018   0.315  0.00  0.00    -0.004 C 
ATOM     10  C   UNN dAMED       2.635  -0.335  -0.532  0.00  0.00     0.045 C 
ATOM     11  C   UNN dAMED       1.167  -1.486   1.085  0.00  0.00    -0.003 C 
ATOM     12  C   UNN dAMED      -1.265  -1.845   0.326  0.00  0.00     0.123 C 
ATOM     13  C   UNN dAMED      -2.545  -1.070   0.339  0.00  0.00     0.283 C 
ATOM     14  C   UNN dAMED       2.392  -1.342   0.588  0.00  0.00     0.003 C 
ATOM     15  O   UNN dAMED       3.142   1.817  -0.544  0.00  0.00    -0.283 OA
ENDROOT
TORSDOF 0
