REMARK  0 active torsions:
REMARK  status: ('A' for Active; 'I' for Inactive)
ROOT
ATOM      1  S   UNN dAMED      -0.948  -0.498   1.566  0.00  0.00    -0.066 SA
ATOM      2  N   UNN dAMED      -0.906   0.101  -0.941  0.00  0.00    -0.238 NA
ATOM      3  C   UNN dAMED       2.060  -1.110  -0.112  0.00  0.00     0.009 A 
ATOM      4  C   UNN dAMED       1.319   0.057   0.110  0.00  0.00     0.063 A 
ATOM      5  C   UNN dAMED       3.451  -1.070  -0.142  0.00  0.00     0.042 A 
ATOM      6  C   UNN dAMED       4.174   0.110   0.035  0.00  0.00     0.199 A 
ATOM      7  C   UNN dAMED       1.956   1.308   0.290  0.00  0.00     0.201 A 
ATOM      8  C   UNN dAMED      -0.139  -0.078   0.112  0.00  0.00     0.114 A 
ATOM      9  C   UNN dAMED       3.367   1.246   0.242  0.00  0.00     0.084 A 
ATOM     10  C   UNN dAMED      -3.741  -0.686   1.242  0.00  0.00     0.008 A 
ATOM     11  C   UNN dAMED      -4.818  -0.576   0.361  0.00  0.00     0.001 A 
ATOM     12  C   UNN dAMED      -2.455  -0.443   0.738  0.00  0.00     0.049 A 
ATOM     13  C   UNN dAMED      -2.233  -0.103  -0.598  0.00  0.00     0.088 A 
ATOM     14  C   UNN dAMED      -4.624  -0.237  -0.971  0.00  0.00     0.002 A 
ATOM     15  C   UNN dAMED      -3.340   0.002  -1.463  0.00  0.00     0.020 A 
ATOM     16  O   UNN dAMED       1.356   2.420   0.481  0.00  0.00    -0.286 OA
ATOM     17  O   UNN dAMED       5.445   0.159   0.011  0.00  0.00    -0.286 OA
ENDROOT
TORSDOF 0
