REMARK  1 active torsions:
REMARK  status: ('A' for Active; 'I' for Inactive)
REMARK    1  A    between atoms: C_11  and  C_13 
ROOT
ATOM      1  N   UNN dAMED       2.260  -0.381  -1.351  0.00  0.00    -0.239 NA
ATOM      2  S   UNN dAMED       1.318   0.445   0.909  0.00  0.00    -0.068 SA
ATOM      3  C   UNN dAMED       0.886  -0.476  -1.405  0.00  0.00     0.106 A 
ATOM      4  C   UNN dAMED       0.185  -0.077  -0.281  0.00  0.00     0.050 A 
ATOM      5  C   UNN dAMED      -1.252  -0.050  -0.034  0.00  0.00     0.007 A 
ATOM      6  C   UNN dAMED      -1.863   1.075   0.528  0.00  0.00     0.001 A 
ATOM      7  C   UNN dAMED      -3.238   1.104   0.757  0.00  0.00     0.000 A 
ATOM      8  C   UNN dAMED      -4.024   0.012   0.404  0.00  0.00     0.000 A 
ATOM      9  C   UNN dAMED      -2.053  -1.139  -0.389  0.00  0.00     0.001 A 
ATOM     10  C   UNN dAMED      -3.433  -1.108  -0.175  0.00  0.00     0.000 A 
ATOM     11  C   UNN dAMED       2.582   0.113  -0.182  0.00  0.00     0.122 A 
ENDROOT
BRANCH  11  12
ATOM     12  C   UNN dAMED       4.008   0.496   0.127  0.00  0.00     0.234 C 
ATOM     13  O   UNN dAMED       4.539   1.669  -0.345  0.00  0.00    -0.213 OA
ENDBRANCH  11  12
TORSDOF 1
