REMARK  3 active torsions:
REMARK  status: ('A' for Active; 'I' for Inactive)
REMARK    1  A    between atoms: C_5  and  C_17 
REMARK    2  A    between atoms: C_8  and  C_14 
REMARK    3  A    between atoms: C_14  and  C_16 
ROOT
ATOM      1  C   UNN dAMED      -0.774  -0.239  -1.883  0.00  0.00     0.199 C 
ATOM      2  O   UNN dAMED      -0.723   0.552  -2.811  0.00  0.00    -0.286 OA
ENDROOT
BRANCH   1   3
ATOM      3  C   UNN dAMED      -2.013  -0.920  -1.483  0.00  0.00     0.078 A 
ATOM      4  C   UNN dAMED      -2.811  -1.452  -2.502  0.00  0.00     0.006 A 
ATOM      5  C   UNN dAMED      -3.955  -2.162  -2.168  0.00  0.00     0.000 A 
ATOM      6  C   UNN dAMED      -4.274  -2.346  -0.831  0.00  0.00     0.003 A 
ATOM      7  C   UNN dAMED      -3.441  -1.818   0.161  0.00  0.00     0.042 A 
ATOM      8  C   UNN dAMED      -2.272  -1.085  -0.103  0.00  0.00     0.199 A 
ATOM      9  O   UNN dAMED      -1.540  -0.633   0.839  0.00  0.00    -0.286 OA
ENDBRANCH   1   3
BRANCH   1  10
ATOM     10  C   UNN dAMED       0.477  -0.596  -1.136  0.00  0.00     0.042 C 
ATOM     11  C   UNN dAMED       1.390   0.337  -0.882  0.00  0.00     0.005 C 
BRANCH  11  12
ATOM     12  C   UNN dAMED       2.611  -0.001  -0.080  0.00  0.00     0.019 A 
ATOM     13  C   UNN dAMED       2.603   0.148   1.301  0.00  0.00     0.003 A 
ATOM     14  C   UNN dAMED       3.797   0.090   2.007  0.00  0.00     0.021 A 
ATOM     15  C   UNN dAMED       4.963  -0.110   1.286  0.00  0.00     0.099 A 
ATOM     16  N   UNN dAMED       5.010  -0.251  -0.057  0.00  0.00    -0.242 NA
ATOM     17  C   UNN dAMED       3.830  -0.189  -0.709  0.00  0.00     0.099 A 
ENDBRANCH  11  12
ENDBRANCH   1  10
TORSDOF 3
