REMARK  4 active torsions:
REMARK  status: ('A' for Active; 'I' for Inactive)
REMARK       I    between atoms: N_1  and  C_11 
REMARK       I    between atoms: C_11  and  N_13 
REMARK       I    between atoms: N_13  and  C_14 
REMARK    1  A    between atoms: C_14  and  C_16 
REMARK    2  A    between atoms: C_16  and  C_17 
REMARK    3  A    between atoms: C_16  and  C_19 
REMARK    4  A    between atoms: C_19  and  C_20 
ROOT
ATOM      1  N   UNN dAMED       4.316   2.808   1.259  0.00  0.00    -0.281 N 
ATOM      2  C   UNN dAMED       2.736   3.570   2.929  0.00  0.00     0.017 A 
ATOM      3  C   UNN dAMED       3.962   3.715   2.273  0.00  0.00     0.060 A 
ATOM      4  C   UNN dAMED       2.312   4.500   3.876  0.00  0.00     0.002 A 
ATOM      5  C   UNN dAMED       4.760   4.827   2.582  0.00  0.00    -0.006 A 
ATOM      6  C   UNN dAMED       3.115   5.593   4.181  0.00  0.00    -0.000 A 
ATOM      7  C   UNN dAMED       6.099   5.034   1.939  0.00  0.00     0.030 C 
ATOM      8  C   UNN dAMED       5.699   2.780   0.941  0.00  0.00     0.111 C 
ATOM      9  C   UNN dAMED       6.395   4.114   0.779  0.00  0.00     0.029 C 
ATOM     10  C   UNN dAMED       4.340   5.751   3.540  0.00  0.00    -0.003 A 
ATOM     11  C   UNN dAMED       3.715   1.607   0.914  0.00  0.00     0.353 C 
ATOM     12  O   UNN dAMED       2.496   1.511   0.759  0.00  0.00    -0.244 OA
ATOM     13  N   UNN dAMED       4.637   0.679   0.597  0.00  0.00    -0.154 NA
ATOM     14  C   UNN dAMED       4.284  -0.534   1.028  0.00  0.00     0.275 C 
ATOM     15  O   UNN dAMED       3.194  -1.084   0.917  0.00  0.00    -0.266 OA
ENDROOT
BRANCH  14  16
ATOM     16  C   UNN dAMED       5.387  -1.404   1.563  0.00  0.00     0.018 C 
BRANCH  16  17
ATOM     17  C   UNN dAMED       5.066  -2.882   1.807  0.00  0.00     0.027 C 
ATOM     18  C   UNN dAMED       5.294  -3.491   3.193  0.00  0.00     0.005 C 
ENDBRANCH  16  17
BRANCH  16  19
ATOM     19  C   UNN dAMED       6.498  -0.758   2.391  0.00  0.00     0.053 C 
BRANCH  19  20
ATOM     20  C   UNN dAMED       6.663  -1.156   3.860  0.00  0.00    -0.022 C 
ATOM     21  C   UNN dAMED       6.475  -0.252   4.820  0.00  0.00    -0.005 C 
ENDBRANCH  19  20
ENDBRANCH  16  19
ENDBRANCH  14  16
TORSDOF 4
