REMARK  4 active torsions:
REMARK  status: ('A' for Active; 'I' for Inactive)
REMARK    1  A    between atoms: N_4  and  C_6 
REMARK    2  A    between atoms: C_5  and  C_14 
REMARK    3  A    between atoms: C_9  and  N_19 
REMARK       I    between atoms: C_14  and  N_16 
REMARK    4  A    between atoms: N_18  and  N_19 
ROOT
ATOM      1  N   UNN dAMED      -3.393   0.401   0.167  0.00  0.00    -0.218 NA
ATOM      2  N   UNN dAMED      -3.030  -1.494   1.260  0.00  0.00    -0.319 N 
ATOM      3  H   UNN dAMED      -3.162  -2.257   1.911  0.00  0.00     0.169 HD
ATOM      4  C   UNN dAMED      -2.247  -0.193  -0.303  0.00  0.00     0.178 A 
ATOM      5  C   UNN dAMED      -1.990  -1.377   0.366  0.00  0.00     0.187 A 
ATOM      6  C   UNN dAMED      -3.849  -0.411   1.094  0.00  0.00     0.176 A 
ENDROOT
BRANCH   5   7
ATOM      7  N   UNN dAMED      -1.001  -2.300   0.330  0.00  0.00    -0.116 NA
ATOM      8  N   UNN dAMED      -1.385  -3.405  -0.110  0.00  0.00    -0.090 NA
BRANCH   8   9
ATOM      9  N   UNN dAMED      -0.414  -4.328   0.050  0.00  0.00    -0.160 NA
ATOM     10  C   UNN dAMED       0.286  -4.467  -1.275  0.00  0.00     0.117 C 
BRANCH   9  11
ATOM     11  C   UNN dAMED       0.285  -4.459  -1.275  0.00  0.00     0.082 C 
ATOM     12  C   UNN dAMED       1.763  -4.873  -1.270  0.00  0.00     0.018 C 
ATOM     13  C   UNN dAMED       2.445  -5.028  -2.630  0.00  0.00     0.002 C 
ATOM     14  C   UNN dAMED       2.097  -3.940  -3.643  0.00  0.00     0.000 C 
ATOM     15  C   UNN dAMED       0.609  -3.604  -3.736  0.00  0.00     0.002 C 
ATOM     16  C   UNN dAMED      -0.127  -3.495  -2.397  0.00  0.00     0.018 C 
ENDBRANCH   9  11
ENDBRANCH   8   9
ENDBRANCH   5   7
BRANCH   4  17
ATOM     17  C   UNN dAMED      -1.444   0.471  -1.300  0.00  0.00     0.319 C 
ATOM     18  O   UNN dAMED      -0.639   1.345  -1.006  0.00  0.00    -0.262 OA
ATOM     19  N   UNN dAMED      -1.763   0.085  -2.528  0.00  0.00    -0.083 NA
ATOM     20  N   UNN dAMED      -2.858  -0.828  -2.777  0.00  0.00    -0.019 N 
ENDBRANCH   4  17
TORSDOF 4
