REMARK  9 active torsions:
REMARK  status: ('A' for Active; 'I' for Inactive)
REMARK    1  A    between atoms: N_2  and  C_18 
REMARK    2  A    between atoms: C_14  and  C_22 
REMARK    3  A    between atoms: C_16  and  N_23 
REMARK    4  A    between atoms: C_18  and  C_19 
REMARK    5  A    between atoms: C_18  and  C_22 
REMARK    6  A    between atoms: N_23  and  C_24 
REMARK    7  A    between atoms: N_23  and  C_29 
REMARK    8  A    between atoms: C_24  and  C_25 
REMARK    9  A    between atoms: C_28  and  C_29 
ROOT
ATOM      1  C   UNN dAMED      -0.779   1.314   0.496  0.00  0.00     0.163 C 
ENDROOT
BRANCH   1   2
ATOM      2  N   UNN dAMED      -1.870   0.517   0.948  0.00  0.00    -0.156 NA
ATOM      3  C   UNN dAMED      -3.066   0.895   0.396  0.00  0.00     0.243 C 
ATOM      4  O   UNN dAMED      -3.464   1.992   0.058  0.00  0.00    -0.273 OA
ATOM      5  C   UNN dAMED      -3.759  -0.363   0.121  0.00  0.00     0.055 A 
ATOM      6  C   UNN dAMED      -2.882  -1.407   0.395  0.00  0.00     0.055 A 
ATOM      7  C   UNN dAMED      -5.003  -0.571  -0.435  0.00  0.00     0.004 A 
ATOM      8  C   UNN dAMED      -1.613  -0.825   0.836  0.00  0.00     0.243 C 
ATOM      9  C   UNN dAMED      -3.205  -2.719   0.123  0.00  0.00     0.004 A 
ATOM     10  O   UNN dAMED      -0.559  -1.427   0.906  0.00  0.00    -0.273 OA
ATOM     11  C   UNN dAMED      -4.473  -2.954  -0.414  0.00  0.00     0.000 A 
ATOM     12  C   UNN dAMED      -5.359  -1.896  -0.690  0.00  0.00     0.000 A 
ENDBRANCH   1   2
BRANCH   1  13
ATOM     13  C   UNN dAMED      -0.464   2.624   1.187  0.00  0.00     0.202 C 
ATOM     14  O   UNN dAMED       0.046   2.551   2.346  0.00  0.00    -0.646 OA
ATOM     15  O   UNN dAMED      -0.711   3.678   0.528  0.00  0.00    -0.646 OA
ENDBRANCH   1  13
BRANCH   1  16
ATOM     16  C   UNN dAMED      -0.146   1.005  -0.872  0.00  0.00     0.056 C 
BRANCH  16  17
ATOM     17  C   UNN dAMED       1.319   1.246  -1.116  0.00  0.00    -0.005 A 
ATOM     18  C   UNN dAMED       2.263   0.668  -0.270  0.00  0.00    -0.003 A 
ATOM     19  C   UNN dAMED       3.613   0.967  -0.428  0.00  0.00    -0.000 A 
ATOM     20  C   UNN dAMED       4.018   1.844  -1.430  0.00  0.00     0.002 A 
ATOM     21  C   UNN dAMED       3.073   2.419  -2.278  0.00  0.00     0.017 A 
ATOM     22  C   UNN dAMED       1.719   2.123  -2.125  0.00  0.00     0.052 A 
BRANCH  22  23
ATOM     23  N   UNN dAMED       0.766   2.704  -2.980  0.00  0.00    -0.344 N 
BRANCH  23  24
ATOM     24  C   UNN dAMED      -0.631   2.308  -2.890  0.00  0.00     0.137 C 
BRANCH  24  25
ATOM     25  C   UNN dAMED      -1.116   1.042  -3.605  0.00  0.00     0.206 C 
ATOM     26  O   UNN dAMED      -2.437   0.694  -3.551  0.00  0.00    -0.219 OA
ENDBRANCH  24  25
ENDBRANCH  23  24
BRANCH  23  27
ATOM     27  C   UNN dAMED       0.948   4.062  -3.472  0.00  0.00     0.137 C 
BRANCH  27  28
ATOM     28  C   UNN dAMED       2.356   4.607  -3.740  0.00  0.00     0.206 C 
ATOM     29  O   UNN dAMED       2.552   5.955  -3.867  0.00  0.00    -0.219 OA
ENDBRANCH  27  28
ENDBRANCH  23  27
ENDBRANCH  22  23
ENDBRANCH  16  17
ENDBRANCH   1  16
TORSDOF 9
