REMARK  0 active torsions:
REMARK  status: ('A' for Active; 'I' for Inactive)
ROOT
ATOM      1  O   UNN dAMED      -3.178   1.533   1.031  0.00  0.00    -0.272 OA
ATOM      2  H   UNN dAMED      -0.800   2.050   0.572  0.00  0.00     0.170 HD
ATOM      3  N   UNN dAMED      -1.052   1.085   0.381  0.00  0.00    -0.315 N 
ATOM      4  N   UNN dAMED      -0.050  -1.159   0.206  0.00  0.00    -0.222 NA
ATOM      5  C   UNN dAMED       1.346   0.541   0.050  0.00  0.00     0.092 A 
ATOM      6  C   UNN dAMED       2.071  -0.662  -0.047  0.00  0.00    -0.003 A 
ATOM      7  C   UNN dAMED       0.000   0.212   0.177  0.00  0.00     0.112 A 
ATOM      8  C   UNN dAMED       1.184  -1.695   0.026  0.00  0.00     0.016 A 
ATOM      9  C   UNN dAMED      -2.379   0.732   0.545  0.00  0.00     0.235 C 
ATOM     10  C   UNN dAMED      -3.000  -0.284  -0.376  0.00  0.00     0.089 C 
ATOM     11  C   UNN dAMED      -2.381  -1.652  -0.581  0.00  0.00     0.028 C 
ATOM     12  C   UNN dAMED      -0.886  -1.680  -0.810  0.00  0.00     0.083 C 
ATOM     13  C   UNN dAMED       1.889   1.857  -0.011  0.00  0.00     0.103 C 
ATOM     14  N   UNN dAMED       2.332   2.929  -0.060  0.00  0.00    -0.191 NA
ATOM     15  C   UNN dAMED       1.434  -3.043  -0.579  0.00  0.00     0.043 C 
ATOM     16  C   UNN dAMED       3.485  -0.771  -0.528  0.00  0.00     0.033 C 
ENDROOT
TORSDOF 0
