REMARK  1 active torsions:
REMARK  status: ('A' for Active; 'I' for Inactive)
REMARK    1  A    between atoms: C_7  and  C_11 
REMARK       I    between atoms: C_11  and  N_13 
ROOT
ATOM      1  N   UNN dAMED       2.011  -1.337  -0.209  0.00  0.00    -0.163 NA
ATOM      2  N   UNN dAMED       1.483  -2.523   0.036  0.00  0.00    -0.036 NA
ATOM      3  S   UNN dAMED      -0.164  -2.456   0.296  0.00  0.00     0.007 SA
ATOM      4  N   UNN dAMED      -1.452   1.457   0.101  0.00  0.00    -0.167 NA
ATOM      5  S   UNN dAMED      -3.851   0.819   0.433  0.00  0.00     0.005 SA
ATOM      6  N   UNN dAMED      -2.662   1.980   0.225  0.00  0.00    -0.036 NA
ATOM      7  C   UNN dAMED       1.051  -0.325  -0.203  0.00  0.00     0.165 A 
ATOM      8  C   UNN dAMED      -0.241  -0.758   0.065  0.00  0.00     0.086 A 
ATOM      9  C   UNN dAMED      -1.477   0.069   0.171  0.00  0.00     0.114 A 
ATOM     10  C   UNN dAMED      -2.735  -0.468   0.354  0.00  0.00     0.071 A 
ENDROOT
BRANCH   7  11
ATOM     11  C   UNN dAMED       1.476   1.047  -0.396  0.00  0.00     0.318 C 
ATOM     12  O   UNN dAMED       1.606   1.820   0.545  0.00  0.00    -0.262 OA
ATOM     13  N   UNN dAMED       1.716   1.301  -1.677  0.00  0.00    -0.083 NA
ATOM     14  N   UNN dAMED       1.581   0.251  -2.669  0.00  0.00    -0.019 N 
ENDBRANCH   7  11
TORSDOF 1
