REMARK  3 active torsions:
REMARK  status: ('A' for Active; 'I' for Inactive)
REMARK    1  A    between atoms: N_6  and  C_11 
REMARK    2  A    between atoms: C_7  and  N_15 
REMARK       I    between atoms: C_9  and  N_15 
REMARK       I    between atoms: C_9  and  N_16 
REMARK    3  A    between atoms: N_16  and  C_17 
ROOT
ATOM      1  C   UNN dAMED      -5.683  -0.262   0.048  0.00  0.00     0.006 A 
ATOM      2  C   UNN dAMED      -5.560   1.264   0.107  0.00  0.00     0.006 A 
ATOM      3  C   UNN dAMED      -4.788   0.472  -0.953  0.00  0.00     0.042 A 
ATOM      4  N   UNN dAMED      -2.651  -0.567  -0.178  0.00  0.00    -0.173 NA
ATOM      5  C   UNN dAMED      -3.296   0.387  -0.853  0.00  0.00     0.081 A 
ATOM      6  N   UNN dAMED      -1.364  -0.199  -0.318  0.00  0.00    -0.238 N 
ATOM      7  C   UNN dAMED      -1.195   0.938  -1.053  0.00  0.00     0.165 A 
ATOM      8  C   UNN dAMED      -2.455   1.376  -1.387  0.00  0.00     0.055 A 
ENDROOT
BRANCH   7   9
ATOM      9  N   UNN dAMED      -0.044   1.579  -1.337  0.00  0.00    -0.172 NA
ATOM     10  C   UNN dAMED       0.377   1.336  -2.600  0.00  0.00     0.370 C 
ATOM     11  O   UNN dAMED       0.797   0.248  -2.986  0.00  0.00    -0.242 OA
ATOM     12  N   UNN dAMED       0.488   2.501  -3.282  0.00  0.00    -0.191 NA
BRANCH  12  13
ATOM     13  C   UNN dAMED      -0.129   2.535  -4.486  0.00  0.00     0.086 A 
ATOM     14  C   UNN dAMED       0.179   1.646  -5.527  0.00  0.00     0.019 A 
ATOM     15  C   UNN dAMED      -0.354   1.789  -6.809  0.00  0.00     0.002 A 
ATOM     16  C   UNN dAMED      -1.186   2.864  -7.096  0.00  0.00     0.000 A 
ATOM     17  C   UNN dAMED      -1.494   3.778  -6.093  0.00  0.00     0.002 A 
ATOM     18  C   UNN dAMED      -0.968   3.609  -4.809  0.00  0.00     0.019 A 
ENDBRANCH  12  13
ENDBRANCH   7   9
BRANCH   6  19
ATOM     19  C   UNN dAMED      -0.337  -0.984   0.340  0.00  0.00     0.088 C 
ATOM     20  C   UNN dAMED      -0.554  -2.748  -0.174  0.00  0.00     0.025 C 
ATOM     21  C   UNN dAMED      -0.553  -2.743  -0.173  0.00  0.00     0.025 C 
ATOM     22  C   UNN dAMED      -0.554  -2.747  -0.174  0.00  0.00     0.025 C 
ENDBRANCH   6  19
TORSDOF 3
