REMARK  1 active torsions:
REMARK  status: ('A' for Active; 'I' for Inactive)
REMARK    1  A    between atoms: C_10  and  C_17 
ROOT
ATOM      1  N   UNN dAMED      -0.167   1.283  -0.565  0.00  0.00    -0.246 NA
ATOM      2  C   UNN dAMED       2.501   0.361   1.248  0.00  0.00     0.001 A 
ATOM      3  C   UNN dAMED       1.850   0.153   0.027  0.00  0.00     0.014 A 
ATOM      4  C   UNN dAMED       3.893   0.331   1.331  0.00  0.00    -0.004 A 
ATOM      5  C   UNN dAMED       4.652   0.102   0.187  0.00  0.00    -0.022 A 
ATOM      6  C   UNN dAMED       2.628  -0.073  -1.114  0.00  0.00    -0.021 A 
ATOM      7  C   UNN dAMED       0.396   0.162  -0.054  0.00  0.00     0.081 A 
ATOM      8  C   UNN dAMED      -0.351  -0.926   0.365  0.00  0.00     0.025 A 
ATOM      9  C   UNN dAMED       4.021  -0.098  -1.037  0.00  0.00    -0.009 A 
ATOM     10  C   UNN dAMED      -1.741  -0.864   0.277  0.00  0.00     0.067 A 
ATOM     11  C   UNN dAMED      -2.348   0.295  -0.248  0.00  0.00     0.024 A 
ATOM     12  C   UNN dAMED      -2.088   2.486  -1.203  0.00  0.00     0.019 A 
ATOM     13  C   UNN dAMED      -1.506   1.346  -0.665  0.00  0.00     0.082 A 
ATOM     14  C   UNN dAMED      -3.468   2.621  -1.340  0.00  0.00     0.002 A 
ATOM     15  C   UNN dAMED      -4.301   1.593  -0.927  0.00  0.00     0.000 A 
ATOM     16  C   UNN dAMED      -3.741   0.442  -0.382  0.00  0.00     0.002 A 
ATOM     17  C   UNN dAMED       1.958  -0.290  -2.440  0.00  0.00     0.031 C 
ATOM     18  C   UNN dAMED       6.152   0.077   0.270  0.00  0.00     0.031 C 
ENDROOT
BRANCH  10  19
ATOM     19  C   UNN dAMED      -2.517  -2.050   0.757  0.00  0.00     0.211 C 
ATOM     20  O   UNN dAMED      -2.243  -2.467   1.925  0.00  0.00    -0.644 OA
ATOM     21  O   UNN dAMED      -3.354  -2.558  -0.051  0.00  0.00    -0.644 OA
ENDBRANCH  10  19
TORSDOF 1
