REMARK  3 active torsions:
REMARK  status: ('A' for Active; 'I' for Inactive)
REMARK    1  A    between atoms: 4_4  and  8_8 
REMARK    2  A    between atoms: 5_5  and  12_12 
REMARK    3  A    between atoms: 8_8  and  9_9 
ROOT
ATOM      1  1   UNN dAMED       3.142   1.943   0.209  0.00  0.00    -0.006 C 
ATOM      2  2   UNN dAMED       2.404   2.490   1.434  0.00  0.00     0.012 C 
ATOM      3  3   UNN dAMED       2.239   0.754  -0.183  0.00  0.00     0.005 C 
ATOM      4  4   UNN dAMED       2.955   3.055  -0.862  0.00  0.00     0.047 C 
ATOM      5  5   UNN dAMED       1.548   3.612  -0.483  0.00  0.00     0.128 C 
ATOM      6  6   UNN dAMED       0.826   1.275   0.122  0.00  0.00     0.007 C 
ATOM      7  7   UNN dAMED       1.091   2.692   0.670  0.00  0.00     0.015 C 
ENDROOT
BRANCH   4   8
ATOM      8  8   UNN dAMED       4.078   4.113  -0.890  0.00  0.00     0.279 C 
BRANCH   8   9
ATOM      9  9   UNN dAMED       5.345   3.556  -1.407  0.00  0.00     0.080 N 
ATOM     10  10  UNN dAMED       5.449   3.750  -2.858  0.00  0.00     0.309 C 
ATOM     11  11  UNN dAMED       6.502   4.150  -0.733  0.00  0.00     0.309 C 
ENDBRANCH   8   9
ENDBRANCH   4   8
BRANCH   5  12
ATOM     12  12  UNN dAMED       1.588   4.957  -0.023  0.00  0.00    -0.395 OA
ATOM     13  H2  UNN dAMED       0.748   5.374  -0.262  0.00  0.00     0.210 HD
ENDBRANCH   5  12
TORSDOF 3
