REMARK  2 active torsions:
REMARK  status: ('A' for Active; 'I' for Inactive)
REMARK    1  A    between atoms: C_8  and  C_21 
REMARK    2  A    between atoms: C_16  and  C_17 
ROOT
ATOM      1  N   UNN dAMED      -5.200  -1.658  -0.057  0.00  0.00    -0.109 NA
ATOM      2  N   UNN dAMED      -5.138  -0.345   0.067  0.00  0.00    -0.136 NA
ATOM      3  S   UNN dAMED      -3.697  -2.369  -0.161  0.00  0.00     0.038 SA
ATOM      4  S   UNN dAMED       3.791   0.786   0.226  0.00  0.00     0.005 SA
ATOM      5  N   UNN dAMED       5.204  -1.207  -0.288  0.00  0.00    -0.163 NA
ATOM      6  N   UNN dAMED       5.285   0.075   0.016  0.00  0.00    -0.036 NA
ATOM      7  C   UNN dAMED       2.920  -0.665  -0.120  0.00  0.00     0.066 A 
ATOM      8  C   UNN dAMED       3.885  -1.636  -0.373  0.00  0.00     0.157 A 
ATOM      9  C   UNN dAMED       1.457  -0.707  -0.095  0.00  0.00     0.009 A 
ATOM     10  C   UNN dAMED       0.686   0.454  -0.208  0.00  0.00     0.001 A 
ATOM     11  C   UNN dAMED      -0.710   0.401  -0.185  0.00  0.00     0.001 A 
ATOM     12  C   UNN dAMED       0.786  -1.922   0.037  0.00  0.00     0.001 A 
ATOM     13  C   UNN dAMED      -1.381  -0.815  -0.054  0.00  0.00     0.009 A 
ATOM     14  C   UNN dAMED      -0.608  -1.974   0.055  0.00  0.00     0.001 A 
ATOM     15  C   UNN dAMED      -2.845  -0.869  -0.027  0.00  0.00     0.073 A 
ATOM     16  C   UNN dAMED      -3.826   0.111   0.089  0.00  0.00     0.164 A 
ENDROOT
BRANCH   8  17
ATOM     17  C   UNN dAMED       3.605  -3.019  -0.680  0.00  0.00     0.286 C 
ATOM     18  N   UNN dAMED       2.390  -3.577  -0.189  0.00  0.00    -0.056 NA
ATOM     19  O   UNN dAMED       4.343  -3.722  -1.356  0.00  0.00    -0.269 OA
ENDBRANCH   8  17
BRANCH  16  20
ATOM     20  C   UNN dAMED      -3.586   1.528   0.201  0.00  0.00     0.286 C 
ATOM     21  O   UNN dAMED      -3.561   2.118   1.273  0.00  0.00    -0.269 OA
ATOM     22  N   UNN dAMED      -3.332   2.263  -0.993  0.00  0.00    -0.056 NA
ENDBRANCH  16  20
TORSDOF 2
