REMARK  4 active torsions:
REMARK  status: ('A' for Active; 'I' for Inactive)
REMARK    1  A    between atoms: C_4  and  C_21 
REMARK    2  A    between atoms: C_9  and  N_20 
REMARK    3  A    between atoms: C_12  and  N_19 
REMARK    4  A    between atoms: C_16  and  N_19 
REMARK       I    between atoms: N_20  and  C_21 
ROOT
ATOM      1  C   UNN dAMED      -3.484  -1.512   4.175  0.00  0.00     0.021 A 
ATOM      2  C   UNN dAMED      -3.490  -0.630   5.263  0.00  0.00     0.085 A 
ATOM      3  C   UNN dAMED      -3.587  -1.053   2.856  0.00  0.00     0.021 A 
ATOM      4  C   UNN dAMED      -3.637   0.730   4.957  0.00  0.00     0.021 A 
ATOM      5  C   UNN dAMED      -3.746   0.309   2.560  0.00  0.00     0.082 A 
ATOM      6  C   UNN dAMED      -3.757   1.192   3.642  0.00  0.00     0.021 A 
ENDROOT
BRANCH   2   7
ATOM      7  N   UNN dAMED      -3.422  -0.979   6.568  0.00  0.00    -0.208 NA
ATOM      8  C   UNN dAMED      -3.128  -2.249   6.855  0.00  0.00     0.279 C 
ATOM      9  O   UNN dAMED      -3.845  -3.237   6.710  0.00  0.00    -0.265 OA
BRANCH   8  10
ATOM     10  C   UNN dAMED      -1.874  -2.423   7.617  0.00  0.00     0.058 A 
ATOM     11  C   UNN dAMED      -0.953  -3.383   7.200  0.00  0.00     0.006 A 
ATOM     12  C   UNN dAMED       0.191  -3.606   7.962  0.00  0.00     0.014 A 
ATOM     13  C   UNN dAMED       0.411  -2.871   9.127  0.00  0.00     0.070 A 
ATOM     14  C   UNN dAMED      -0.518  -1.919   9.543  0.00  0.00     0.014 A 
ATOM     15  N   UNN dAMED       1.615  -3.054   9.865  0.00  0.00    -0.101 NA
ATOM     16  C   UNN dAMED      -1.673  -1.705   8.798  0.00  0.00     0.006 A 
ENDBRANCH   8  10
ENDBRANCH   2   7
BRANCH   5  17
ATOM     17  N   UNN dAMED      -3.731   0.797   1.299  0.00  0.00    -0.245 NA
BRANCH  17  18
ATOM     18  C   UNN dAMED      -4.767   0.400   0.528  0.00  0.00     0.085 A 
ATOM     19  C   UNN dAMED      -4.603  -0.624  -0.410  0.00  0.00     0.040 A 
ATOM     20  C   UNN dAMED      -5.646  -0.940  -1.268  0.00  0.00     0.101 A 
ATOM     21  N   UNN dAMED      -6.832  -0.300  -1.275  0.00  0.00    -0.242 NA
ATOM     22  C   UNN dAMED      -6.972   0.700  -0.380  0.00  0.00     0.101 A 
ATOM     23  C   UNN dAMED      -5.985   1.087   0.518  0.00  0.00     0.040 A 
ENDBRANCH  17  18
ENDBRANCH   5  17
TORSDOF 4
