REMARK  5 active torsions:
REMARK  status: ('A' for Active; 'I' for Inactive)
REMARK    1  A    between atoms: C_3  and  C_21 
REMARK    2  A    between atoms: C_4  and  C_5 
REMARK       I    between atoms: C_10  and  N_24 
REMARK       I    between atoms: C_11  and  N_25 
REMARK    3  A    between atoms: C_14  and  C_15 
REMARK    4  A    between atoms: C_19  and  C_26 
REMARK    5  A    between atoms: N_24  and  N_25 
ROOT
ATOM      1  C   UNN dAMED      -4.450  -0.509  -0.127  0.00  0.00     0.043 A 
ATOM      2  C   UNN dAMED      -3.810  -0.650  -1.342  0.00  0.00     0.093 A 
ATOM      3  C   UNN dAMED      -3.639  -0.225   0.957  0.00  0.00     0.173 A 
ATOM      4  N   UNN dAMED      -2.474  -0.524  -1.494  0.00  0.00    -0.059 NA
ATOM      5  N   UNN dAMED      -2.300  -0.070   0.850  0.00  0.00    -0.054 NA
ATOM      6  C   UNN dAMED      -1.764  -0.240  -0.381  0.00  0.00     0.768 A 
ATOM      7  N   UNN dAMED      -0.448  -0.036  -0.588  0.00  0.00     0.062 NA
ENDROOT
BRANCH   7   8
ATOM      8  N   UNN dAMED       0.374  -0.063   0.631  0.00  0.00     0.062 NA
ATOM      9  C   UNN dAMED       0.931   1.132   0.926  0.00  0.00     0.768 A 
ATOM     10  N   UNN dAMED       0.874   2.148   0.032  0.00  0.00    -0.054 NA
ATOM     11  N   UNN dAMED       1.523   1.213   2.136  0.00  0.00    -0.059 NA
ATOM     12  C   UNN dAMED       1.439   3.319   0.397  0.00  0.00     0.173 A 
ATOM     13  C   UNN dAMED       2.065   3.498   1.616  0.00  0.00     0.043 A 
ATOM     14  C   UNN dAMED       2.084   2.401   2.455  0.00  0.00     0.093 A 
BRANCH  12  15
ATOM     15  C   UNN dAMED       1.342   4.460  -0.567  0.00  0.00     0.436 C 
ATOM     16  F   UNN dAMED       2.541   5.061  -0.798  0.00  0.00    -0.165 F 
ATOM     17  F   UNN dAMED       0.505   5.441  -0.131  0.00  0.00    -0.165 F 
ATOM     18  F   UNN dAMED       0.873   4.088  -1.791  0.00  0.00    -0.165 F 
ENDBRANCH  12  15
BRANCH  14  19
ATOM     19  C   UNN dAMED       2.781   2.530   3.780  0.00  0.00    -0.025 C 
ATOM     20  C   UNN dAMED       4.032   1.693   4.065  0.00  0.00     0.028 C 
ATOM     21  C   UNN dAMED       2.393   3.665   4.734  0.00  0.00     0.028 C 
ENDBRANCH  14  19
ENDBRANCH   7   8
BRANCH   2  22
ATOM     22  C   UNN dAMED      -4.641  -0.934  -2.562  0.00  0.00    -0.025 C 
ATOM     23  C   UNN dAMED      -5.182   0.224  -3.408  0.00  0.00     0.028 C 
ATOM     24  C   UNN dAMED      -4.997  -2.379  -2.924  0.00  0.00     0.028 C 
ENDBRANCH   2  22
BRANCH   3  25
ATOM     25  C   UNN dAMED      -4.249  -0.052   2.314  0.00  0.00     0.436 C 
ATOM     26  F   UNN dAMED      -5.246  -0.944   2.569  0.00  0.00    -0.165 F 
ATOM     27  F   UNN dAMED      -3.349  -0.206   3.325  0.00  0.00    -0.165 F 
ATOM     28  F   UNN dAMED      -4.794   1.183   2.484  0.00  0.00    -0.165 F 
ENDBRANCH   3  25
TORSDOF 5
