REMARK  0 active torsions:
REMARK  status: ('A' for Active; 'I' for Inactive)
ROOT
ATOM      1  N   UNN dAMED       1.554  -2.175  -0.776  0.00  0.00    -0.125 NA
ATOM      2  N   UNN dAMED       0.255  -2.665  -0.950  0.00  0.00    -0.101 NA
ATOM      3  N   UNN dAMED       0.172  -0.614  -0.216  0.00  0.00    -0.169 N 
ATOM      4  O   UNN dAMED      -1.835  -1.516  -0.539  0.00  0.00    -0.253 OA
ATOM      5  N   UNN dAMED      -0.624   0.380   0.142  0.00  0.00    -0.135 NA
ATOM      6  S   UNN dAMED      -4.470  -0.495   0.496  0.00  0.00    -0.083 SA
ATOM      7  C   UNN dAMED      -5.414   0.912   0.603  0.00  0.00     0.035 A 
ATOM      8  C   UNN dAMED      -4.696   2.057   0.395  0.00  0.00     0.008 A 
ATOM      9  C   UNN dAMED      -3.337   1.766   0.137  0.00  0.00     0.011 A 
ATOM     10  C   UNN dAMED      -3.058   0.417   0.154  0.00  0.00     0.072 A 
ATOM     11  C   UNN dAMED      -1.781  -0.203  -0.060  0.00  0.00     0.210 A 
ATOM     12  C   UNN dAMED      -0.524  -1.684  -0.597  0.00  0.00     0.297 A 
ATOM     13  C   UNN dAMED       1.495  -0.919  -0.327  0.00  0.00     0.189 A 
ATOM     14  C   UNN dAMED       2.614  -0.043  -0.021  0.00  0.00     0.038 A 
ATOM     15  C   UNN dAMED       3.904  -0.404  -0.417  0.00  0.00     0.003 A 
ATOM     16  C   UNN dAMED       4.993   0.420  -0.136  0.00  0.00     0.000 A 
ATOM     17  C   UNN dAMED       2.434   1.160   0.665  0.00  0.00     0.003 A 
ATOM     18  C   UNN dAMED       4.799   1.617   0.546  0.00  0.00     0.000 A 
ATOM     19  C   UNN dAMED       3.519   1.989   0.947  0.00  0.00     0.000 A 
ENDROOT
TORSDOF 0
