REMARK  4 active torsions:
REMARK  status: ('A' for Active; 'I' for Inactive)
REMARK    1  A    between atoms: C_9  and  C_13 
REMARK    2  A    between atoms: C_13  and  C_14 
REMARK    3  A    between atoms: C_14  and  O_16 
REMARK    4  A    between atoms: O_16  and  C_17 
ROOT
ATOM      1  N   UNN dAMED      -0.075   1.266  -1.067  0.00  0.00    -0.249 NA
ATOM      2  C   UNN dAMED      -2.388   1.634  -1.039  0.00  0.00     0.019 A 
ATOM      3  C   UNN dAMED      -1.276   0.949  -0.570  0.00  0.00     0.084 A 
ATOM      4  C   UNN dAMED      -3.674   1.362  -0.577  0.00  0.00    -0.003 A 
ATOM      5  C   UNN dAMED      -1.455  -0.058   0.410  0.00  0.00     0.056 A 
ATOM      6  C   UNN dAMED      -3.859   0.382   0.383  0.00  0.00    -0.022 A 
ATOM      7  C   UNN dAMED      -2.761  -0.317   0.868  0.00  0.00     0.000 A 
ATOM      8  C   UNN dAMED      -0.334  -0.780   0.910  0.00  0.00     0.198 A 
ATOM      9  C   UNN dAMED       0.994   0.590  -0.606  0.00  0.00     0.072 A 
ATOM     10  C   UNN dAMED       0.895  -0.407   0.351  0.00  0.00     0.057 A 
ATOM     11  C   UNN dAMED      -5.236   0.072   0.897  0.00  0.00     0.031 C 
ATOM     12  O   UNN dAMED      -0.395  -1.700   1.795  0.00  0.00    -0.286 OA
ENDROOT
BRANCH   9  13
ATOM     13  C   UNN dAMED       2.352   0.879  -1.197  0.00  0.00     0.141 C 
BRANCH  13  14
ATOM     14  C   UNN dAMED       3.120   2.133  -0.856  0.00  0.00     0.278 C 
ATOM     15  O   UNN dAMED       3.306   2.412   0.322  0.00  0.00    -0.264 OA
BRANCH  14  16
ATOM     16  O   UNN dAMED       3.710   2.818  -1.871  0.00  0.00    -0.301 OA
BRANCH  16  17
ATOM     17  C   UNN dAMED       3.359   2.121  -3.029  0.00  0.00     0.152 C 
ATOM     18  C   UNN dAMED       4.037   2.456  -4.361  0.00  0.00     0.035 C 
ENDBRANCH  16  17
ENDBRANCH  14  16
ENDBRANCH  13  14
ENDBRANCH   9  13
TORSDOF 4
