REMARK  0 active torsions:
REMARK  status: ('A' for Active; 'I' for Inactive)
ROOT
ATOM      1  N   UNN dAMED      -0.253  -0.041   0.029  0.00  0.00    -0.307 N 
ATOM      2  C   UNN dAMED      -4.336  -0.694   0.492  0.00  0.00     0.000 A 
ATOM      3  C   UNN dAMED      -3.825  -0.359  -0.763  0.00  0.00     0.002 A 
ATOM      4  C   UNN dAMED      -3.486  -0.811   1.592  0.00  0.00     0.002 A 
ATOM      5  C   UNN dAMED      -2.120  -0.592   1.445  0.00  0.00     0.018 A 
ATOM      6  C   UNN dAMED      -2.461  -0.141  -0.926  0.00  0.00     0.018 A 
ATOM      7  C   UNN dAMED      -1.629  -0.261   0.185  0.00  0.00     0.064 A 
ATOM      8  C   UNN dAMED       0.544  -2.427  -0.249  0.00  0.00     0.018 A 
ATOM      9  C   UNN dAMED       0.691  -1.034  -0.164  0.00  0.00     0.064 A 
ATOM     10  C   UNN dAMED       1.697  -3.189  -0.446  0.00  0.00     0.002 A 
ATOM     11  C   UNN dAMED       2.946  -2.589  -0.557  0.00  0.00     0.000 A 
ATOM     12  C   UNN dAMED       1.935  -0.410  -0.273  0.00  0.00     0.018 A 
ATOM     13  C   UNN dAMED       3.081  -1.202  -0.474  0.00  0.00     0.002 A 
ATOM     14  C   UNN dAMED       1.725   0.995  -0.143  0.00  0.00     0.018 A 
ATOM     15  C   UNN dAMED      -0.190   2.484   0.209  0.00  0.00     0.018 A 
ATOM     16  C   UNN dAMED       0.357   1.202   0.046  0.00  0.00     0.064 A 
ATOM     17  C   UNN dAMED       0.687   3.570   0.176  0.00  0.00     0.002 A 
ATOM     18  C   UNN dAMED       2.052   3.389  -0.010  0.00  0.00     0.000 A 
ATOM     19  C   UNN dAMED       2.586   2.109  -0.170  0.00  0.00     0.002 A 
ENDROOT
TORSDOF 0
