REMARK  3 active torsions:
REMARK  status: ('A' for Active; 'I' for Inactive)
REMARK    1  A    between atoms: N_1  and  C_4 
REMARK    2  A    between atoms: N_9  and  C_10 
REMARK    3  A    between atoms: C_10  and  C_11 
ROOT
ATOM      1  C   UNN dAMED      -2.921   0.024  -0.025  0.00  0.00     0.180 A 
ATOM      2  N   UNN dAMED      -1.767   0.619   0.058  0.00  0.00    -0.197 NA
ATOM      3  C   UNN dAMED      -0.679  -0.198  -0.122  0.00  0.00     0.198 A 
ATOM      4  S   UNN dAMED      -0.948  -1.888  -0.477  0.00  0.00    -0.009 SA
ATOM      5  S   UNN dAMED      -2.970  -1.709  -0.349  0.00  0.00    -0.011 SA
ATOM      6  N   UNN dAMED       0.516   0.276  -0.030  0.00  0.00    -0.240 NA
ENDROOT
BRANCH   6   7
ATOM      7  C   UNN dAMED       1.647  -0.561  -0.253  0.00  0.00     0.179 C 
BRANCH   7   8
ATOM      8  C   UNN dAMED       3.031   0.022  -0.310  0.00  0.00     0.102 A 
ATOM      9  C   UNN dAMED       4.142  -0.737  -0.584  0.00  0.00     0.024 A 
ATOM     10  C   UNN dAMED       5.150   0.183  -0.959  0.00  0.00     0.029 A 
ATOM     11  C   UNN dAMED       4.576   1.436  -0.913  0.00  0.00     0.122 A 
ATOM     12  O   UNN dAMED       3.268   1.337  -0.542  0.00  0.00    -0.307 OA
ENDBRANCH   7   8
ENDBRANCH   6   7
BRANCH   1  13
ATOM     13  N   UNN dAMED      -4.145   0.626   0.130  0.00  0.00    -0.324 N 
ATOM     14  C   UNN dAMED      -4.932   0.338   1.312  0.00  0.00     0.128 C 
ATOM     15  C   UNN dAMED      -4.617   1.557  -0.876  0.00  0.00     0.128 C 
ENDBRANCH   1  13
TORSDOF 3
