REMARK  1 active torsions:
REMARK  status: ('A' for Active; 'I' for Inactive)
REMARK    1  A    between atoms: C_4  and  AS_9 
ROOT
ATOM      1  C   UNN dAMED       0.037   1.196  -0.145  0.00  0.00     0.004 A 
ATOM      2  C   UNN dAMED       1.354   1.622  -0.204  0.00  0.00     0.014 A 
ATOM      3  C   UNN dAMED      -0.258  -0.190  -0.008  0.00  0.00     0.042 A 
ATOM      4  C   UNN dAMED       0.721  -1.170   0.079  0.00  0.00     0.197 A 
ATOM      5  C   UNN dAMED       2.362   0.675  -0.123  0.00  0.00     0.073 A 
ATOM      6  C   UNN dAMED       2.038  -0.679   0.016  0.00  0.00     0.056 A 
ATOM      7  N   UNN dAMED       3.726   1.079  -0.149  0.00  0.00    -0.100 NA
ATOM      8  O   UNN dAMED       0.458  -2.409   0.207  0.00  0.00    -0.286 OA
ENDROOT
BRANCH   3   9
ATOM      9 AS   UNN dAMED      -2.178  -0.101   0.005  0.00  0.00     0.000 As
ATOM     10  O   UNN dAMED      -2.784  -1.570   0.018  0.00  0.00     0.000 OA
ATOM     11  O   UNN dAMED      -2.762   0.738  -1.427  0.00  0.00     0.000 OA
ATOM     12  O   UNN dAMED      -2.723   0.749   1.446  0.00  0.00     0.000 OA
ENDBRANCH   3   9
TORSDOF 1
