REMARK  3 active torsions:
REMARK  status: ('A' for Active; 'I' for Inactive)
REMARK    1  A    between atoms: N_10  and  C_11 
REMARK    2  A    between atoms: C_12  and  C_13 
REMARK    3  A    between atoms: C_12  and  C_15 
ROOT
ATOM      1  N   UNN dAMED      -3.478   1.513   1.012  0.00  0.00    -0.078 NA
ATOM      2  C   UNN dAMED      -2.712   0.564   0.280  0.00  0.00     0.173 A 
ATOM      3  N   UNN dAMED      -3.303  -0.537  -0.246  0.00  0.00    -0.208 NA
ATOM      4  C   UNN dAMED      -2.510  -1.449  -0.857  0.00  0.00     0.201 A 
ATOM      5  N   UNN dAMED      -1.171  -1.427  -1.017  0.00  0.00    -0.210 NA
ATOM      6  C   UNN dAMED      -0.650  -0.316  -0.478  0.00  0.00     0.151 A 
ATOM      7  C   UNN dAMED      -1.330   0.703   0.167  0.00  0.00     0.142 A 
ATOM      8  N   UNN dAMED      -0.459   1.670   0.605  0.00  0.00    -0.226 NA
ATOM      9  C   UNN dAMED       0.737   1.225   0.273  0.00  0.00     0.158 A 
ATOM     10  N   UNN dAMED       0.664   0.043  -0.414  0.00  0.00    -0.175 NA
ENDROOT
BRANCH  10  11
ATOM     11  C   UNN dAMED       1.360  -0.947   0.348  0.00  0.00     0.058 C 
ATOM     12  C   UNN dAMED       2.024  -1.950  -0.235  0.00  0.00     0.011 C 
BRANCH  12  13
ATOM     13  C   UNN dAMED       3.086  -1.203   0.061  0.00  0.00     0.010 C 
BRANCH  13  14
ATOM     14  C   UNN dAMED       3.230   0.195  -0.550  0.00  0.00     0.209 C 
ATOM     15  O   UNN dAMED       4.472   0.731  -0.747  0.00  0.00    -0.215 OA
ENDBRANCH  13  14
ENDBRANCH  12  13
ENDBRANCH  10  11
TORSDOF 3
