REMARK  0 active torsions:
REMARK  status: ('A' for Active; 'I' for Inactive)
ROOT
ATOM      1  C   UNN dAMED      -0.322   2.344   0.319  0.00  0.00     0.300 A 
ATOM      2  C   UNN dAMED      -2.528   1.380   0.171  0.00  0.00     0.050 A 
ATOM      3  C   UNN dAMED      -1.159   1.135   0.147  0.00  0.00     0.072 A 
ATOM      4  C   UNN dAMED      -3.535   0.426   0.033  0.00  0.00     0.224 A 
ATOM      5  C   UNN dAMED       1.591   0.903   0.135  0.00  0.00     0.130 A 
ATOM      6  C   UNN dAMED      -0.628  -0.151  -0.025  0.00  0.00     0.071 A 
ATOM      7  C   UNN dAMED      -3.053  -0.967  -0.154  0.00  0.00     0.208 A 
ATOM      8  C   UNN dAMED       3.086   0.790   0.131  0.00  0.00     0.074 A 
ATOM      9  C   UNN dAMED       0.877  -0.214  -0.023  0.00  0.00     0.130 A 
ATOM     10  C   UNN dAMED      -1.539  -1.262  -0.184  0.00  0.00     0.226 A 
ATOM     11  C   UNN dAMED       3.739  -0.360  -0.023  0.00  0.00     0.261 A 
ATOM     12  C   UNN dAMED       2.930  -1.624  -0.202  0.00  0.00     0.340 A 
ATOM     13  O   UNN dAMED       1.565  -1.455  -0.188  0.00  0.00    -0.269 OA
ATOM     14  O   UNN dAMED      -0.771   3.481   0.472  0.00  0.00    -0.259 OA
ATOM     15  O   UNN dAMED       1.032   2.172   0.305  0.00  0.00    -0.271 OA
ATOM     16  O   UNN dAMED       3.455  -2.730  -0.350  0.00  0.00    -0.255 OA
ATOM     17  O   UNN dAMED      -4.759   0.852   0.083  0.00  0.00    -0.284 OA
ATOM     18  O   UNN dAMED      -3.918  -1.935  -0.293  0.00  0.00    -0.183 OA
ATOM     19  O   UNN dAMED      -1.069  -2.461  -0.345  0.00  0.00    -0.284 OA
ATOM     20  O   UNN dAMED       5.007  -0.324  -0.009  0.00  0.00    -0.281 OA
ENDROOT
TORSDOF 0
