REMARK  2 active torsions:
REMARK  status: ('A' for Active; 'I' for Inactive)
REMARK    1  A    between atoms: C_4  and  N_15 
REMARK    2  A    between atoms: C_9  and  C_13 
REMARK       I    between atoms: C_13  and  N_15 
ROOT
ATOM      1  C   UNN dAMED      -0.663  -0.443   1.351  0.00  0.00     0.261 C 
ATOM      2  O   UNN dAMED      -0.481  -1.660   1.372  0.00  0.00    -0.267 OA
ATOM      3  N   UNN dAMED       0.028   0.444   2.133  0.00  0.00    -0.294 N 
ATOM      4  C   UNN dAMED       0.975  -0.221   2.958  0.00  0.00     0.134 C 
ENDROOT
BRANCH   1   5
ATOM      5  C   UNN dAMED      -1.701   0.050   0.444  0.00  0.00     0.059 A 
ATOM      6  C   UNN dAMED      -3.030  -0.080   0.832  0.00  0.00     0.025 A 
ATOM      7  C   UNN dAMED      -3.996   0.215  -0.117  0.00  0.00     0.099 A 
ATOM      8  N   UNN dAMED      -3.728   0.608  -1.383  0.00  0.00    -0.242 NA
ATOM      9  C   UNN dAMED      -2.420   0.673  -1.724  0.00  0.00     0.099 A 
ATOM     10  C   UNN dAMED      -1.370   0.391  -0.863  0.00  0.00     0.025 A 
ENDBRANCH   1   5
BRANCH   3  11
ATOM     11  C   UNN dAMED       0.045   1.810   2.374  0.00  0.00     0.063 A 
ATOM     12  C   UNN dAMED      -0.551   2.744   1.535  0.00  0.00     0.017 A 
ATOM     13  C   UNN dAMED      -0.445   4.107   1.817  0.00  0.00     0.002 A 
ATOM     14  C   UNN dAMED       0.269   4.543   2.930  0.00  0.00     0.000 A 
ATOM     15  C   UNN dAMED       0.881   3.610   3.761  0.00  0.00     0.002 A 
ATOM     16  C   UNN dAMED       0.769   2.248   3.482  0.00  0.00     0.017 A 
ENDBRANCH   3  11
TORSDOF 2
