REMARK  1 active torsions:
REMARK  status: ('A' for Active; 'I' for Inactive)
REMARK    1  A    between atoms: C_11  and  C_25 
ROOT
ATOM      1  N   UNN dAMED      -2.294   0.998  -0.437  0.00  0.00    -0.244 NA
ATOM      2  N   UNN dAMED       0.122  -1.668  -0.130  0.00  0.00    -0.290 N 
ATOM      3  O   UNN dAMED       1.510  -3.355   0.602  0.00  0.00    -0.267 OA
ATOM      4  O   UNN dAMED       4.708  -0.602   1.158  0.00  0.00    -0.295 OA
ATOM      5  O   UNN dAMED       5.703   1.192   0.203  0.00  0.00    -0.261 OA
ATOM      6  C   UNN dAMED       1.308  -2.188   0.288  0.00  0.00     0.259 C 
ATOM      7  C   UNN dAMED       2.405  -1.183   0.331  0.00  0.00     0.063 C 
ATOM      8  C   UNN dAMED       3.832  -1.539   0.588  0.00  0.00     0.183 C 
ATOM      9  C   UNN dAMED       2.174   0.103   0.040  0.00  0.00     0.019 C 
ATOM     10  C   UNN dAMED       0.757   0.571  -0.258  0.00  0.00     0.017 C 
ATOM     11  C   UNN dAMED       3.289   1.089   0.083  0.00  0.00     0.222 C 
ATOM     12  C   UNN dAMED       4.682   0.541   0.415  0.00  0.00     0.304 C 
ATOM     13  C   UNN dAMED      -0.197  -0.353  -0.346  0.00  0.00     0.080 A 
ATOM     14  C   UNN dAMED      -1.636  -0.163  -0.338  0.00  0.00     0.095 A 
ATOM     15  C   UNN dAMED      -1.089  -2.379   0.142  0.00  0.00     0.138 A 
ATOM     16  C   UNN dAMED      -2.199  -1.402  -0.077  0.00  0.00     0.020 A 
ATOM     17  C   UNN dAMED      -3.553  -1.495   0.120  0.00  0.00     0.001 A 
ATOM     18  C   UNN dAMED      -4.292  -0.315   0.008  0.00  0.00     0.018 A 
ATOM     19  C   UNN dAMED      -5.675  -0.356   0.183  0.00  0.00     0.002 A 
ATOM     20  C   UNN dAMED      -6.427   0.809   0.078  0.00  0.00     0.000 A 
ATOM     21  C   UNN dAMED      -3.630   0.913  -0.276  0.00  0.00     0.081 A 
ATOM     22  C   UNN dAMED      -5.795   2.014  -0.203  0.00  0.00     0.002 A 
ATOM     23  C   UNN dAMED      -4.411   2.055  -0.375  0.00  0.00     0.019 A 
ATOM     24  O   UNN dAMED       2.989   1.995   0.982  0.00  0.00    -0.211 OA
ENDROOT
BRANCH  11  25
ATOM     25  C   UNN dAMED       3.375   1.777  -1.286  0.00  0.00     0.045 C 
ATOM     26  C   UNN dAMED       4.165   3.080  -1.433  0.00  0.00     0.004 C 
ENDBRANCH  11  25
TORSDOF 1
