REMARK  3 active torsions:
REMARK  status: ('A' for Active; 'I' for Inactive)
REMARK    1  A    between atoms: O_2  and  C_5 
REMARK    2  A    between atoms: O_2  and  C_16 
REMARK    3  A    between atoms: C_9  and  N_18 
REMARK       I    between atoms: C_16  and  N_18 
ROOT
ATOM      1  C   UNN dAMED      -0.370   1.921  -0.147  0.00  0.00     0.392 C 
ATOM      2  O   UNN dAMED      -0.011   1.547   0.966  0.00  0.00    -0.236 OA
ATOM      3  N   UNN dAMED       0.305   2.797  -0.903  0.00  0.00    -0.186 NA
ENDROOT
BRANCH   1   4
ATOM      4  O   UNN dAMED      -1.487   1.422  -0.796  0.00  0.00    -0.253 OA
BRANCH   4   5
ATOM      5  C   UNN dAMED      -2.180   0.435  -0.077  0.00  0.00     0.163 C 
ATOM      6  C   UNN dAMED      -3.109   0.843   0.749  0.00  0.00     0.302 C 
ATOM      7  O   UNN dAMED      -3.721   1.845   0.670  0.00  0.00    -0.263 OA
ATOM      8  N   UNN dAMED      -3.253  -0.079   1.717  0.00  0.00    -0.205 NA
ATOM      9  C   UNN dAMED      -3.203  -1.311   1.475  0.00  0.00     0.102 C 
ATOM     10  C   UNN dAMED      -3.020  -1.774   0.033  0.00  0.00     0.023 C 
ATOM     11  C   UNN dAMED      -2.400  -0.893  -0.736  0.00  0.00     0.031 C 
ENDBRANCH   4   5
ENDBRANCH   1   4
BRANCH   3  12
ATOM     12  C   UNN dAMED      -0.446   3.725  -1.537  0.00  0.00     0.087 A 
ATOM     13  C   UNN dAMED      -0.440   3.776  -2.938  0.00  0.00     0.022 A 
ATOM     14  C   UNN dAMED      -1.170   4.732  -3.641  0.00  0.00     0.031 A 
ATOM     15  C   UNN dAMED      -1.919   5.661  -2.934  0.00  0.00     0.140 A 
ATOM     16  F   UNN dAMED      -2.624   6.585  -3.601  0.00  0.00    -0.204 F 
ATOM     17  C   UNN dAMED      -1.941   5.653  -1.544  0.00  0.00     0.031 A 
ATOM     18  C   UNN dAMED      -1.196   4.696  -0.856  0.00  0.00     0.022 A 
ENDBRANCH   3  12
TORSDOF 3
