REMARK  2 active torsions:
REMARK  status: ('A' for Active; 'I' for Inactive)
REMARK    1  A    between atoms: C_4  and  C_16 
REMARK    2  A    between atoms: C_11  and  N_15 
REMARK       I    between atoms: N_15  and  C_16 
ROOT
ATOM      1  N   UNN dAMED       0.123  -0.357  -0.151  0.00  0.00    -0.189 NA
ATOM      2  C   UNN dAMED       0.798  -0.765   0.929  0.00  0.00     0.281 C 
ATOM      3  O   UNN dAMED       0.388  -1.247   1.983  0.00  0.00    -0.265 OA
ENDROOT
BRANCH   1   4
ATOM      4  C   UNN dAMED      -1.218  -0.382  -0.025  0.00  0.00     0.168 A 
ATOM      5  N   UNN dAMED      -1.827  -1.527  -0.414  0.00  0.00    -0.212 NA
ATOM      6  C   UNN dAMED      -3.179  -1.532  -0.414  0.00  0.00     0.141 A 
ATOM      7  N   UNN dAMED      -3.963  -0.491  -0.073  0.00  0.00    -0.235 NA
ATOM      8  C   UNN dAMED      -3.864  -2.800  -0.844  0.00  0.00     0.074 C 
ATOM      9  C   UNN dAMED      -3.321   0.633   0.307  0.00  0.00     0.064 A 
ATOM     10  C   UNN dAMED      -1.943   0.742   0.342  0.00  0.00     0.054 A 
ATOM     11  C   UNN dAMED      -4.148   1.829   0.692  0.00  0.00     0.052 C 
ENDBRANCH   1   4
BRANCH   2  12
ATOM     12  C   UNN dAMED       2.254  -0.614   0.783  0.00  0.00     0.058 A 
ATOM     13  C   UNN dAMED       2.825   0.655   0.876  0.00  0.00     0.005 A 
ATOM     14  C   UNN dAMED       4.202   0.795   0.726  0.00  0.00     0.000 A 
ATOM     15  C   UNN dAMED       4.998  -0.328   0.505  0.00  0.00     0.000 A 
ATOM     16  C   UNN dAMED       4.420  -1.596   0.435  0.00  0.00     0.000 A 
ATOM     17  C   UNN dAMED       3.042  -1.745   0.572  0.00  0.00     0.005 A 
ENDBRANCH   2  12
TORSDOF 2
