REMARK  6 active torsions:
REMARK  status: ('A' for Active; 'I' for Inactive)
REMARK    1  A    between atoms: N_5  and  C_14 
REMARK    2  A    between atoms: C_7  and  C_14 
REMARK    3  A    between atoms: C_10  and  N_16 
REMARK       I    between atoms: C_12  and  N_16 
REMARK    4  A    between atoms: C_12  and  C_25 
REMARK    5  A    between atoms: C_19  and  C_25 
REMARK    6  A    between atoms: C_25  and  C_26 
ROOT
ATOM      1  C   UNN dAMED       1.474  -0.909   0.820  0.00  0.00     0.279 C 
ATOM      2  O   UNN dAMED       1.945  -1.666   1.650  0.00  0.00    -0.265 OA
ATOM      3  N   UNN dAMED       0.462  -0.077   1.063  0.00  0.00    -0.214 NA
ENDROOT
BRANCH   3   4
ATOM      4  C   UNN dAMED      -0.857  -0.470   0.643  0.00  0.00     0.065 C 
ATOM      5  C   UNN dAMED      -0.937  -1.751  -0.192  0.00  0.00     0.047 C 
ATOM      6  C   UNN dAMED      -1.484  -1.561  -1.611  0.00  0.00     0.039 C 
ATOM      7  C   UNN dAMED      -2.617  -0.163  -1.866  0.00  0.00     0.127 C 
ATOM      8  O   UNN dAMED      -3.098   0.252  -0.591  0.00  0.00    -0.353 OA
ATOM      9  C   UNN dAMED      -1.499  -1.590  -1.580  0.00  0.00     0.036 C 
ATOM     10  C   UNN dAMED      -2.032   0.853   0.139  0.00  0.00     0.124 C 
ATOM     11  C   UNN dAMED      -0.884  -0.507   0.649  0.00  0.00     0.035 C 
ATOM     12  C   UNN dAMED      -0.850  -0.477   0.646  0.00  0.00     0.035 C 
BRANCH   7  13
ATOM     13  C   UNN dAMED      -1.485  -1.589  -1.574  0.00  0.00     0.072 C 
BRANCH  13  14
ATOM     14  N   UNN dAMED      -0.855  -2.324  -2.621  0.00  0.00    -0.349 N 
ATOM     15  C   UNN dAMED      -0.725  -2.860  -3.956  0.00  0.00     0.101 C 
ATOM     16  C   UNN dAMED       0.421  -3.849  -4.142  0.00  0.00     0.026 C 
ATOM     17  C   UNN dAMED       1.197  -3.782  -2.857  0.00  0.00     0.026 C 
ATOM     18  C   UNN dAMED       0.409  -2.805  -1.994  0.00  0.00     0.101 C 
ENDBRANCH  13  14
ENDBRANCH   7  13
ENDBRANCH   3   4
BRANCH   1  19
ATOM     19  C   UNN dAMED       2.014  -0.976  -0.621  0.00  0.00     0.058 C 
BRANCH  19  20
ATOM     20  C   UNN dAMED       2.396   0.333  -1.307  0.00  0.00     0.005 A 
ATOM     21  C   UNN dAMED       3.743   0.677  -1.438  0.00  0.00     0.000 A 
ATOM     22  C   UNN dAMED       4.107   1.859  -2.077  0.00  0.00     0.000 A 
ATOM     23  C   UNN dAMED       3.123   2.722  -2.555  0.00  0.00     0.000 A 
ATOM     24  C   UNN dAMED       1.776   2.398  -2.406  0.00  0.00     0.000 A 
ATOM     25  C   UNN dAMED       1.415   1.199  -1.795  0.00  0.00     0.000 A 
ENDBRANCH  19  20
BRANCH  19  26
ATOM     26  C   UNN dAMED       2.317  -2.323  -1.335  0.00  0.00     0.005 A 
ATOM     27  C   UNN dAMED       2.996  -2.347  -2.561  0.00  0.00     0.000 A 
ATOM     28  C   UNN dAMED       3.326  -3.545  -3.201  0.00  0.00     0.000 A 
ATOM     29  C   UNN dAMED       2.969  -4.755  -2.620  0.00  0.00     0.000 A 
ATOM     30  C   UNN dAMED       2.283  -4.756  -1.410  0.00  0.00     0.000 A 
ATOM     31  C   UNN dAMED       1.960  -3.551  -0.777  0.00  0.00     0.000 A 
ENDBRANCH  19  26
ENDBRANCH   1  19
TORSDOF 6
