REMARK  3 active torsions:
REMARK  status: ('A' for Active; 'I' for Inactive)
REMARK    1  A    between atoms: C_12  and  C_19 
REMARK    2  A    between atoms: C_17  and  O_18 
REMARK    3  A    between atoms: O_18  and  C_20 
ROOT
ATOM      1  C   UNN dAMED      -5.896   0.649   1.031  0.00  0.00     0.000 A 
ATOM      2  C   UNN dAMED      -6.083  -0.655   0.576  0.00  0.00    -0.000 A 
ATOM      3  C   UNN dAMED      -4.631   1.229   0.982  0.00  0.00     0.003 A 
ATOM      4  C   UNN dAMED      -5.005  -1.381   0.077  0.00  0.00    -0.004 A 
ATOM      5  C   UNN dAMED      -3.545   0.506   0.485  0.00  0.00     0.035 A 
ATOM      6  C   UNN dAMED      -3.736  -0.807   0.044  0.00  0.00    -0.019 A 
ATOM      7  O   UNN dAMED      -2.103   2.359   0.763  0.00  0.00    -0.287 OA
ATOM      8  C   UNN dAMED      -2.606  -1.535  -0.615  0.00  0.00     0.031 C 
ATOM      9  C   UNN dAMED      -2.232   1.187   0.430  0.00  0.00     0.191 C 
ATOM     10  C   UNN dAMED      -1.065   0.415  -0.046  0.00  0.00     0.017 C 
ATOM     11  C   UNN dAMED      -1.210  -1.059  -0.252  0.00  0.00     0.034 C 
ATOM     12  C   UNN dAMED       0.131   1.003  -0.113  0.00  0.00    -0.001 C 
ENDROOT
BRANCH  12  13
ATOM     13  C   UNN dAMED       1.365   0.237  -0.521  0.00  0.00    -0.000 A 
ATOM     14  C   UNN dAMED       1.595  -0.053  -1.868  0.00  0.00     0.002 A 
ATOM     15  C   UNN dAMED       2.794  -0.640  -2.263  0.00  0.00     0.024 A 
ATOM     16  C   UNN dAMED       3.759  -0.918  -1.303  0.00  0.00     0.094 A 
ATOM     17  C   UNN dAMED       3.552  -0.625   0.039  0.00  0.00     0.024 A 
ATOM     18  C   UNN dAMED       2.349  -0.041   0.429  0.00  0.00     0.002 A 
BRANCH  16  19
ATOM     19  O   UNN dAMED       4.935  -1.488  -1.690  0.00  0.00    -0.331 OA
BRANCH  19  20
ATOM     20  C   UNN dAMED       5.757  -1.434  -0.562  0.00  0.00     0.149 C 
ATOM     21  C   UNN dAMED       7.082  -2.203  -0.544  0.00  0.00     0.035 C 
ENDBRANCH  19  20
ENDBRANCH  16  19
ENDBRANCH  12  13
TORSDOF 3
