REMARK  4 active torsions:
REMARK  status: ('A' for Active; 'I' for Inactive)
REMARK    1  A    between atoms: C_3  and  N_19 
REMARK    2  A    between atoms: C_4  and  O_20 
REMARK    3  A    between atoms: C_7  and  N_15 
REMARK       I    between atoms: N_15  and  C_17 
REMARK       I    between atoms: C_17  and  N_19 
REMARK    4  A    between atoms: O_20  and  C_21 
ROOT
ATOM      1  C   UNN dAMED      -3.284   0.406  -1.267  0.00  0.00     0.176 C 
ATOM      2  C   UNN dAMED      -4.780   0.363  -1.653  0.00  0.00     0.038 C 
ATOM      3  C   UNN dAMED      -5.224  -0.517  -2.827  0.00  0.00     0.003 C 
ATOM      4  C   UNN dAMED      -2.551   0.652  -2.608  0.00  0.00     0.038 C 
ATOM      5  C   UNN dAMED      -4.430  -0.313  -4.107  0.00  0.00     0.000 C 
ATOM      6  C   UNN dAMED      -2.936  -0.167  -3.850  0.00  0.00     0.003 C 
ATOM      7  C   UNN dAMED      -3.056   1.533  -0.362  0.00  0.00     0.095 C 
ATOM      8  N   UNN dAMED      -2.868   2.435   0.343  0.00  0.00    -0.194 NA
ENDROOT
BRANCH   1   9
ATOM      9  N   UNN dAMED      -2.905  -0.872  -0.683  0.00  0.00    -0.146 N 
ATOM     10  O   UNN dAMED      -3.454  -1.885  -1.453  0.00  0.00    -0.080 OA
ATOM     11  C   UNN dAMED      -1.652  -1.189  -0.128  0.00  0.00     0.372 C 
ATOM     12  O   UNN dAMED      -1.572  -1.783   0.954  0.00  0.00    -0.242 OA
ATOM     13  N   UNN dAMED      -0.623  -0.689  -0.834  0.00  0.00    -0.191 NA
BRANCH  13  14
ATOM     14  C   UNN dAMED       0.314  -1.605  -1.165  0.00  0.00     0.086 A 
ATOM     15  C   UNN dAMED       1.650  -1.411  -0.784  0.00  0.00     0.021 A 
ATOM     16  C   UNN dAMED       2.667  -2.261  -1.219  0.00  0.00     0.026 A 
ATOM     17  C   UNN dAMED       2.345  -3.321  -2.054  0.00  0.00     0.094 A 
ATOM     18  C   UNN dAMED       1.038  -3.554  -2.446  0.00  0.00     0.026 A 
ATOM     19  C   UNN dAMED       0.036  -2.689  -2.011  0.00  0.00     0.021 A 
BRANCH  17  20
ATOM     20  O   UNN dAMED       3.326  -4.152  -2.505  0.00  0.00    -0.331 OA
BRANCH  20  21
ATOM     21  C   UNN dAMED       2.666  -5.351  -2.784  0.00  0.00     0.149 C 
ATOM     22  C   UNN dAMED       1.147  -5.433  -2.599  0.00  0.00     0.035 C 
ENDBRANCH  20  21
ENDBRANCH  17  20
ENDBRANCH  13  14
ENDBRANCH   1   9
TORSDOF 4
