REMARK  4 active torsions:
REMARK  status: ('A' for Active; 'I' for Inactive)
REMARK    1  A    between atoms: C_3  and  AS_18 
REMARK    2  A    between atoms: C_4  and  N_20 
REMARK    3  A    between atoms: C_9  and  AS_18 
REMARK    4  A    between atoms: C_10  and  N_14 
ROOT
ATOM      1  O   UNN dAMED      -0.561   1.273  -2.290  0.00  0.00     0.000 OA
ATOM      2 AS   UNN dAMED      -0.058   1.023  -0.804  0.00  0.00     0.000 As
ATOM      3  O   UNN dAMED      -1.267   0.054   0.031  0.00  0.00     0.000 OA
ENDROOT
BRANCH   2   4
ATOM      4  C   UNN dAMED       1.607   0.065  -0.845  0.00  0.00     0.002 A 
ATOM      5  C   UNN dAMED       2.365   0.192   0.317  0.00  0.00     0.027 A 
ATOM      6  C   UNN dAMED       3.676  -0.296   0.337  0.00  0.00     0.165 A 
ATOM      7  C   UNN dAMED       4.312  -0.944  -0.744  0.00  0.00     0.217 A 
ATOM      8  C   UNN dAMED       3.483  -1.048  -1.875  0.00  0.00     0.044 A 
ATOM      9  O   UNN dAMED       5.504  -1.400  -0.747  0.00  0.00    -0.285 OA
ATOM     10  C   UNN dAMED       2.173  -0.558  -1.943  0.00  0.00     0.003 A 
BRANCH   6  11
ATOM     11  N   UNN dAMED       4.399  -0.058   1.566  0.00  0.00    -0.111 N 
ATOM     12  O   UNN dAMED       4.319  -0.929   2.441  0.00  0.00    -0.532 OA
ATOM     13  O   UNN dAMED       5.030   1.005   1.645  0.00  0.00    -0.532 OA
ENDBRANCH   6  11
ENDBRANCH   2   4
BRANCH   2  14
ATOM     14  C   UNN dAMED       0.162   2.712   0.095  0.00  0.00     0.054 A 
ATOM     15  C   UNN dAMED       0.171   2.588   1.482  0.00  0.00     0.005 A 
ATOM     16  C   UNN dAMED       1.206   3.198   2.200  0.00  0.00     0.161 A 
ATOM     17  C   UNN dAMED       2.274   3.934   1.629  0.00  0.00     0.217 A 
ATOM     18  C   UNN dAMED       2.167   4.061   0.232  0.00  0.00     0.040 A 
ATOM     19  O   UNN dAMED       3.256   4.442   2.266  0.00  0.00    -0.285 OA
ATOM     20  C   UNN dAMED       1.159   3.468  -0.534  0.00  0.00    -0.018 A 
BRANCH  16  21
ATOM     21  N   UNN dAMED       1.182   2.955   3.625  0.00  0.00    -0.111 N 
ATOM     22  O   UNN dAMED       1.692   1.897   4.016  0.00  0.00    -0.532 OA
ATOM     23  O   UNN dAMED       0.653   3.823   4.333  0.00  0.00    -0.532 OA
ENDBRANCH  16  21
ENDBRANCH   2  14
TORSDOF 4
