REMARK  5 active torsions:
REMARK  status: ('A' for Active; 'I' for Inactive)
REMARK    1  A    between atoms: C_5  and  S_12 
REMARK    2  A    between atoms: CA_6  and  C_9 
REMARK    3  A    between atoms: S_12  and  C_13 
REMARK    4  A    between atoms: C_13  and  C_14 
REMARK    5  A    between atoms: C_14  and  C_15 
ROOT
ATOM      1  N   UNN dAMED      -0.969   1.074  -0.364  0.00  0.00    -0.329 N 
ATOM      2  H   UNN dAMED      -0.867   2.047  -0.631  0.00  0.00     0.168 HD
ATOM      3  O   UNN dAMED      -1.263  -2.667   0.852  0.00  0.00    -0.265 OA
ATOM      4  N   UNN dAMED       0.145  -0.981   0.171  0.00  0.00    -0.185 NA
ATOM      5  C   UNN dAMED       0.124   0.255  -0.227  0.00  0.00     0.171 A 
ATOM      6  CA  UNN dAMED      -2.217   0.646  -0.017  0.00  0.00     0.128 A 
ATOM      7  C   UNN dAMED      -2.316  -0.615   0.409  0.00  0.00     0.086 A 
ATOM      8  C   UNN dAMED      -1.088  -1.512   0.485  0.00  0.00     0.283 A 
ENDROOT
BRANCH   5   9
ATOM      9  S   UNN dAMED       1.670   1.007  -0.601  0.00  0.00    -0.077 SA
BRANCH   9  10
ATOM     10  C   UNN dAMED       1.994   1.452   1.100  0.00  0.00     0.065 C 
BRANCH  10  11
ATOM     11  C   UNN dAMED       1.193   0.770   2.215  0.00  0.00     0.012 C 
BRANCH  11  12
ATOM     12  C   UNN dAMED       1.289   1.284   3.654  0.00  0.00     0.001 C 
ATOM     13  C   UNN dAMED       0.590   2.589   4.047  0.00  0.00     0.000 C 
ENDBRANCH  11  12
ENDBRANCH  10  11
ENDBRANCH   9  10
ENDBRANCH   5   9
BRANCH   6  14
ATOM     14  C   UNN dAMED      -3.426   1.548  -0.070  0.00  0.00     0.228 C 
ATOM     15  O   UNN dAMED      -3.199   2.782   0.068  0.00  0.00    -0.643 OA
ATOM     16  OXT UNN dAMED      -4.525   0.944  -0.231  0.00  0.00    -0.643 OA
ENDBRANCH   6  14
TORSDOF 5
