REMARK  4 active torsions:
REMARK  status: ('A' for Active; 'I' for Inactive)
REMARK    1  A    between atoms: N_1  and  C_9 
REMARK    2  A    between atoms: N_2  and  C_10 
REMARK    3  A    between atoms: C_12  and  N_24 
REMARK    4  A    between atoms: C_17  and  N_27 
REMARK       I    between atoms: N_24  and  C_25 
REMARK       I    between atoms: C_25  and  N_27 
ROOT
ATOM      1  C   UNN dAMED      -1.272   2.281  -0.150  0.00  0.00     0.121 A 
ATOM      2  C   UNN dAMED      -2.153   3.197   0.453  0.00  0.00     0.022 A 
ATOM      3  C   UNN dAMED       0.028   2.710  -0.507  0.00  0.00     0.105 A 
ATOM      4  C   UNN dAMED      -1.801   4.522   0.668  0.00  0.00    -0.003 A 
ATOM      5  C   UNN dAMED       0.375   4.043  -0.222  0.00  0.00     0.017 A 
ATOM      6  C   UNN dAMED      -0.528   4.946   0.328  0.00  0.00    -0.020 A 
ATOM      7  C   UNN dAMED      -0.113   6.367   0.571  0.00  0.00     0.031 C 
ENDROOT
BRANCH   3   8
ATOM      8  N   UNN dAMED       0.968   1.887  -1.032  0.00  0.00    -0.189 NA
ATOM      9  C   UNN dAMED       1.184   2.078  -2.359  0.00  0.00     0.369 C 
ATOM     10  O   UNN dAMED       1.151   3.155  -2.954  0.00  0.00    -0.242 OA
ATOM     11  N   UNN dAMED       1.599   0.916  -2.911  0.00  0.00    -0.189 NA
BRANCH  11  12
ATOM     12  C   UNN dAMED       0.781   0.420  -3.870  0.00  0.00     0.114 A 
ATOM     13  C   UNN dAMED      -0.618   0.437  -3.758  0.00  0.00     0.022 A 
ATOM     14  C   UNN dAMED      -1.448  -0.126  -4.727  0.00  0.00     0.002 A 
ATOM     15  C   UNN dAMED      -0.888  -0.754  -5.833  0.00  0.00     0.002 A 
ATOM     16  C   UNN dAMED       0.494  -0.817  -5.965  0.00  0.00     0.031 A 
ATOM     17  C   UNN dAMED       1.309  -0.234  -4.994  0.00  0.00     0.158 A 
ATOM     18  F   UNN dAMED       2.640  -0.332  -5.149  0.00  0.00    -0.203 F 
ENDBRANCH  11  12
ENDBRANCH   3   8
BRANCH   1  19
ATOM     19  N   UNN dAMED      -1.660   0.927  -0.282  0.00  0.00    -0.147 NA
ATOM     20  N   UNN dAMED      -2.871   0.821  -0.588  0.00  0.00    -0.148 NA
BRANCH  20  21
ATOM     21  C   UNN dAMED      -3.292  -0.522  -0.585  0.00  0.00     0.103 A 
ATOM     22  C   UNN dAMED      -2.444  -1.574  -0.947  0.00  0.00     0.021 A 
ATOM     23  C   UNN dAMED      -2.894  -2.891  -0.949  0.00  0.00    -0.003 A 
ATOM     24  C   UNN dAMED      -4.214  -3.169  -0.613  0.00  0.00    -0.022 A 
ATOM     25  C   UNN dAMED      -5.083  -2.134  -0.278  0.00  0.00    -0.003 A 
ATOM     26  C   UNN dAMED      -4.691  -4.593  -0.593  0.00  0.00     0.031 C 
ATOM     27  C   UNN dAMED      -4.621  -0.817  -0.264  0.00  0.00     0.021 A 
ENDBRANCH  20  21
ENDBRANCH   1  19
TORSDOF 4
