REMARK  0 active torsions:
REMARK  status: ('A' for Active; 'I' for Inactive)
ROOT
ATOM      1  O   UNN dAMED       2.970   1.720   0.170  0.00  0.00    -0.267 OA
ATOM      2  N   UNN dAMED       0.134  -1.621  -0.204  0.00  0.00    -0.231 NA
ATOM      3  N   UNN dAMED       0.754   1.472   0.172  0.00  0.00    -0.318 N 
ATOM      4  H   UNN dAMED       0.753   2.478   0.297  0.00  0.00     0.169 HD
ATOM      5  N   UNN dAMED      -1.990  -1.004  -0.095  0.00  0.00    -0.321 N 
ATOM      6  H   UNN dAMED      -2.100  -2.003  -0.218  0.00  0.00     0.169 HD
ATOM      7  N   UNN dAMED      -2.875   1.113   0.182  0.00  0.00    -0.223 NA
ATOM      8  C   UNN dAMED       1.479  -1.540  -0.214  0.00  0.00     0.066 A 
ATOM      9  C   UNN dAMED       2.312  -0.503  -0.097  0.00  0.00     0.075 A 
ATOM     10  C   UNN dAMED       2.009   0.956   0.089  0.00  0.00     0.259 A 
ATOM     11  C   UNN dAMED      -3.094  -0.103   0.033  0.00  0.00     0.176 A 
ATOM     12  C   UNN dAMED      -0.679  -0.621  -0.067  0.00  0.00     0.159 A 
ATOM     13  C   UNN dAMED      -0.454   0.836   0.111  0.00  0.00     0.113 A 
ATOM     14  C   UNN dAMED      -1.545   1.600   0.222  0.00  0.00     0.121 A 
ATOM     15  C   UNN dAMED       2.327  -2.780  -0.381  0.00  0.00     0.052 C 
ENDROOT
TORSDOF 0
