REMARK  3 active torsions:
REMARK  status: ('A' for Active; 'I' for Inactive)
REMARK    1  A    between atoms: C_2  and  O_5 
REMARK    2  A    between atoms: N_4  and  C_8 
REMARK    3  A    between atoms: O_5  and  C_6 
ROOT
ATOM      1  C   UNN dAMED       0.047   1.422  -0.138  0.00  0.00     0.282 C 
ATOM      2  C   UNN dAMED      -0.091   1.113  -1.617  0.00  0.00     0.192 C 
ATOM      3  C   UNN dAMED      -0.233  -0.319  -1.128  0.00  0.00     0.282 C 
ATOM      4  N   UNN dAMED      -0.803   0.248   0.104  0.00  0.00     0.138 N 
ENDROOT
BRANCH   2   5
ATOM      5  O   UNN dAMED       0.931   1.458  -2.499  0.00  0.00    -0.286 OA
BRANCH   5   6
ATOM      6  C   UNN dAMED       1.886   0.522  -2.269  0.00  0.00     0.373 C 
ATOM      7  O   UNN dAMED       3.082   0.781  -2.245  0.00  0.00    -0.242 OA
ATOM      8  N   UNN dAMED       1.463  -0.821  -2.054  0.00  0.00    -0.032 NA
ENDBRANCH   5   6
ENDBRANCH   2   5
BRANCH   4   9
ATOM      9  C   UNN dAMED      -0.730  -0.472   1.366  0.00  0.00     0.193 C 
ATOM     10  C   UNN dAMED      -2.166   0.053   2.404  0.00  0.00     0.033 C 
ATOM     11  C   UNN dAMED      -2.167   0.053   2.405  0.00  0.00     0.033 C 
ATOM     12  C   UNN dAMED      -2.168   0.054   2.405  0.00  0.00     0.033 C 
ENDBRANCH   4   9
TORSDOF 3
