REMARK  1 active torsions:
REMARK  status: ('A' for Active; 'I' for Inactive)
REMARK    1  A    between atoms: C_5  and  N_16 
ROOT
ATOM      1  N   UNN dAMED       2.623  -1.223  -1.049  0.00  0.00    -0.205 NA
ATOM      2  N   UNN dAMED       0.194  -1.235  -1.218  0.00  0.00    -0.205 NA
ATOM      3  N   UNN dAMED       1.040   1.183   1.268  0.00  0.00    -0.219 NA
ATOM      4  N   UNN dAMED      -0.811   0.368   0.323  0.00  0.00    -0.273 N 
ATOM      5  C   UNN dAMED       2.624  -0.259  -0.085  0.00  0.00     0.163 A 
ATOM      6  C   UNN dAMED       1.379   0.235   0.333  0.00  0.00     0.151 A 
ATOM      7  C   UNN dAMED       0.241  -0.287  -0.268  0.00  0.00     0.172 A 
ATOM      8  C   UNN dAMED      -0.276   1.236   1.243  0.00  0.00     0.184 A 
ATOM      9  C   UNN dAMED       1.436  -1.644  -1.545  0.00  0.00     0.202 A 
ATOM     10  C   UNN dAMED      -2.823  -0.928   0.562  0.00  0.00     0.018 A 
ATOM     11  C   UNN dAMED      -2.174   0.201   0.070  0.00  0.00     0.067 A 
ATOM     12  C   UNN dAMED      -4.187  -1.077   0.324  0.00  0.00     0.002 A 
ATOM     13  C   UNN dAMED      -4.886  -0.098  -0.383  0.00  0.00     0.000 A 
ATOM     14  C   UNN dAMED      -2.858   1.191  -0.633  0.00  0.00     0.018 A 
ATOM     15  C   UNN dAMED      -4.224   1.036  -0.855  0.00  0.00     0.002 A 
ENDROOT
BRANCH   5  16
ATOM     16  N   UNN dAMED       3.832   0.212   0.455  0.00  0.00    -0.329 N 
ATOM     17  C   UNN dAMED       3.812   1.092   1.607  0.00  0.00     0.127 C 
ATOM     18  C   UNN dAMED       5.087  -0.212  -0.139  0.00  0.00     0.127 C 
ENDBRANCH   5  16
TORSDOF 1
