REMARK  0 active torsions:
REMARK  status: ('A' for Active; 'I' for Inactive)
ROOT
ATOM      1  O   UNN dAMED       1.549   1.635  -0.288  0.00  0.00    -0.308 OA
ATOM      2  O   UNN dAMED       2.273  -2.310  -0.293  0.00  0.00    -0.286 OA
ATOM      3  O   UNN dAMED      -0.953   2.621   0.078  0.00  0.00    -0.282 OA
ATOM      4  O   UNN dAMED      -0.450  -2.771   0.150  0.00  0.00    -0.286 OA
ATOM      5  O   UNN dAMED      -3.205   0.870   0.477  0.00  0.00    -0.302 OA
ATOM      6  C   UNN dAMED      -0.842   1.400   0.094  0.00  0.00     0.241 A 
ATOM      7  C   UNN dAMED      -1.920   0.478   0.287  0.00  0.00     0.144 A 
ATOM      8  C   UNN dAMED       0.507   0.738  -0.099  0.00  0.00     0.146 A 
ATOM      9  C   UNN dAMED      -1.812  -0.889   0.309  0.00  0.00     0.067 A 
ATOM     10  C   UNN dAMED       0.606  -0.614  -0.077  0.00  0.00     0.104 A 
ATOM     11  C   UNN dAMED      -0.547  -1.555   0.130  0.00  0.00     0.203 A 
ATOM     12  C   UNN dAMED      -3.119  -1.380   0.526  0.00  0.00     0.032 A 
ATOM     13  C   UNN dAMED      -3.940  -0.273   0.623  0.00  0.00     0.123 A 
ATOM     14  C   UNN dAMED       1.979  -1.125  -0.279  0.00  0.00     0.202 A 
ATOM     15  C   UNN dAMED       3.088  -0.134  -0.481  0.00  0.00     0.062 A 
ATOM     16  C   UNN dAMED       2.827   1.170  -0.476  0.00  0.00     0.081 A 
ATOM     17  C   UNN dAMED       3.958   2.139  -0.681  0.00  0.00     0.058 C 
ENDROOT
TORSDOF 0
