REMARK  2 active torsions:
REMARK  status: ('A' for Active; 'I' for Inactive)
REMARK    1  A    between atoms: C_6  and  O_22 
REMARK    2  A    between atoms: C_15  and  O_24 
ROOT
ATOM      1  O   UNN dAMED      -4.071  -2.319   0.935  0.00  0.00    -0.316 OA
ATOM      2  O   UNN dAMED      -3.849  -0.124   0.044  0.00  0.00    -0.317 OA
ATOM      3  O   UNN dAMED       0.756  -0.765  -0.218  0.00  0.00    -0.305 OA
ATOM      4  O   UNN dAMED       1.544   3.227   0.074  0.00  0.00    -0.286 OA
ATOM      5  C   UNN dAMED       4.373  -0.983  -0.231  0.00  0.00     0.029 A 
ATOM      6  C   UNN dAMED       3.033  -1.309  -0.261  0.00  0.00     0.117 A 
ATOM      7  C   UNN dAMED       4.727   0.358  -0.117  0.00  0.00     0.044 A 
ATOM      8  C   UNN dAMED       3.807   1.423  -0.030  0.00  0.00     0.201 A 
ATOM      9  C   UNN dAMED       2.054  -0.323  -0.179  0.00  0.00     0.128 A 
ATOM     10  C   UNN dAMED       2.435   1.027  -0.066  0.00  0.00     0.103 A 
ATOM     11  C   UNN dAMED       1.327   2.025   0.016  0.00  0.00     0.204 A 
ATOM     12  C   UNN dAMED      -0.060   1.519   0.023  0.00  0.00     0.084 A 
ATOM     13  C   UNN dAMED      -0.254   0.144  -0.098  0.00  0.00     0.103 A 
ATOM     14  C   UNN dAMED      -1.552  -0.346  -0.099  0.00  0.00     0.025 A 
ATOM     15  C   UNN dAMED      -1.175   2.369   0.149  0.00  0.00     0.101 A 
ATOM     16  C   UNN dAMED      -2.634   0.505   0.030  0.00  0.00     0.096 A 
ATOM     17  C   UNN dAMED      -2.028  -1.738  -0.191  0.00  0.00     0.117 A 
ATOM     18  C   UNN dAMED      -3.551  -1.527  -0.151  0.00  0.00     0.286 A 
ATOM     19  C   UNN dAMED      -1.777  -2.504   1.082  0.00  0.00     0.002 C 
ATOM     20  C   UNN dAMED      -2.946  -2.762   1.651  0.00  0.00     0.114 C 
ATOM     21  C   UNN dAMED      -2.476   1.870   0.158  0.00  0.00     0.048 A 
ATOM     22  O   UNN dAMED       4.241   2.620   0.072  0.00  0.00    -0.286 OA
ENDROOT
BRANCH   6  23
ATOM     23  O   UNN dAMED       2.689  -2.625  -0.374  0.00  0.00    -0.326 OA
ATOM     24  C   UNN dAMED       1.820  -2.682  -1.466  0.00  0.00     0.181 C 
ENDBRANCH   6  23
BRANCH  15  25
ATOM     25  O   UNN dAMED      -1.036   3.721   0.281  0.00  0.00    -0.328 OA
ATOM     26  C   UNN dAMED      -2.334   4.207   0.455  0.00  0.00     0.181 C 
ENDBRANCH  15  25
TORSDOF 2
