REMARK  1 active torsions:
REMARK  status: ('A' for Active; 'I' for Inactive)
REMARK    1  A    between atoms: N_4  and  C_17 
ROOT
ATOM      1  N   UNN dAMED       6.237  -0.532  -1.773  0.00  0.00    -0.170 NA
ATOM      2  C   UNN dAMED       5.158  -0.329  -1.399  0.00  0.00     0.207 C 
ATOM      3  N   UNN dAMED       3.917  -0.097  -0.957  0.00  0.00    -0.158 NA
ATOM      4  C   UNN dAMED       3.743   0.326   0.209  0.00  0.00     0.161 C 
ENDROOT
BRANCH   4   5
ATOM      5  N   UNN dAMED       2.379   0.458   0.751  0.00  0.00    -0.230 NA
ATOM      6  C   UNN dAMED       1.789  -0.697   0.011  0.00  0.00     0.104 C 
ATOM      7  C   UNN dAMED       0.275  -0.976   0.033  0.00  0.00    -0.013 C 
ATOM      8  C   UNN dAMED      -0.588  -0.070  -0.441  0.00  0.00    -0.024 C 
ATOM      9  C   UNN dAMED       0.120   1.250  -0.255  0.00  0.00     0.044 C 
ATOM     10  C   UNN dAMED      -2.015  -0.205  -0.245  0.00  0.00    -0.004 A 
ATOM     11  C   UNN dAMED       1.648   1.258  -0.261  0.00  0.00     0.083 C 
ATOM     12  C   UNN dAMED      -2.565  -1.459   0.013  0.00  0.00     0.001 A 
ATOM     13  C   UNN dAMED      -2.836   0.917  -0.326  0.00  0.00     0.001 A 
ATOM     14  C   UNN dAMED      -3.940  -1.592   0.195  0.00  0.00     0.011 A 
ATOM     15  C   UNN dAMED      -4.754  -0.467   0.116  0.00  0.00     0.058 A 
ATOM     16  C   UNN dAMED      -4.211   0.788  -0.145  0.00  0.00     0.011 A 
ATOM     17 CL   UNN dAMED      -6.447  -0.627   0.345  0.00  0.00    -0.082 Cl
ENDBRANCH   4   5
TORSDOF 1
