REMARK  5 active torsions:
REMARK  status: ('A' for Active; 'I' for Inactive)
REMARK    1  A    between atoms: N_2  and  C_17 
REMARK    2  A    between atoms: N_3  and  C_24 
REMARK    3  A    between atoms: C_8  and  N_31 
REMARK    4  A    between atoms: C_16  and  C_35 
REMARK    5  A    between atoms: C_21  and  N_37 
REMARK       I    between atoms: C_35  and  N_37 
ROOT
ATOM      1  C   UNN dAMED      -0.444   0.956  -0.445  0.00  0.00     0.006 A 
ATOM      2  C   UNN dAMED      -1.805   1.259  -0.374  0.00  0.00     0.019 A 
ATOM      3  C   UNN dAMED      -0.002  -0.313  -0.077  0.00  0.00     0.058 A 
ATOM      4  C   UNN dAMED      -2.736   0.311   0.063  0.00  0.00     0.081 A 
ATOM      5  C   UNN dAMED      -0.917  -1.281   0.339  0.00  0.00     0.006 A 
ATOM      6  C   UNN dAMED      -2.272  -0.956   0.436  0.00  0.00     0.019 A 
ENDROOT
BRANCH   3   7
ATOM      7  C   UNN dAMED       1.433  -0.645  -0.229  0.00  0.00     0.279 C 
ATOM      8  O   UNN dAMED       1.941  -0.426  -1.327  0.00  0.00    -0.265 OA
ATOM      9  N   UNN dAMED       1.976  -1.183   0.870  0.00  0.00    -0.208 NA
BRANCH   9  10
ATOM     10  C   UNN dAMED       3.308  -1.415   0.835  0.00  0.00     0.085 A 
ATOM     11  C   UNN dAMED       4.141  -0.830   1.797  0.00  0.00     0.021 A 
ATOM     12  C   UNN dAMED       5.482  -1.198   1.933  0.00  0.00     0.021 A 
ATOM     13  C   UNN dAMED       6.031  -2.187   1.117  0.00  0.00     0.082 A 
ATOM     14  C   UNN dAMED       5.232  -2.750   0.122  0.00  0.00     0.021 A 
ATOM     15  C   UNN dAMED       3.887  -2.385   0.005  0.00  0.00     0.021 A 
BRANCH  13  16
ATOM     16  N   UNN dAMED       7.377  -2.556   1.250  0.00  0.00    -0.245 NA
ATOM     17  C   UNN dAMED       7.584  -3.485   2.124  0.00  0.00     0.083 C 
ATOM     18  C   UNN dAMED       8.831  -4.345   2.109  0.00  0.00     0.032 C 
ATOM     19  C   UNN dAMED       6.543  -4.529   2.465  0.00  0.00     0.032 C 
ATOM     20  C   UNN dAMED       9.002  -5.300   3.027  0.00  0.00     0.053 C 
ATOM     21  N   UNN dAMED       8.047  -5.461   4.150  0.00  0.00    -0.229 NA
ATOM     22  C   UNN dAMED       6.826  -5.501   3.337  0.00  0.00     0.053 C 
ATOM     23  C   UNN dAMED       8.635  -6.680   4.706  0.00  0.00     0.100 C 
ENDBRANCH  13  16
ENDBRANCH   9  10
ENDBRANCH   3   7
BRANCH   4  24
ATOM     24  N   UNN dAMED      -4.072   0.715   0.237  0.00  0.00    -0.245 NA
ATOM     25  C   UNN dAMED      -4.982  -0.158  -0.054  0.00  0.00     0.084 A 
ATOM     26  C   UNN dAMED      -6.416   0.140   0.069  0.00  0.00     0.035 A 
ATOM     27  C   UNN dAMED      -4.581  -1.546  -0.467  0.00  0.00     0.038 A 
ATOM     28  C   UNN dAMED      -7.338  -0.880  -0.202  0.00  0.00     0.061 A 
ATOM     29  C   UNN dAMED      -6.841   1.418   0.429  0.00  0.00     0.026 A 
ATOM     30  N   UNN dAMED      -6.923  -2.180  -0.550  0.00  0.00    -0.324 N 
ATOM     31  C   UNN dAMED      -8.708  -0.597  -0.125  0.00  0.00     0.019 A 
ATOM     32  C   UNN dAMED      -5.508  -2.479  -0.692  0.00  0.00     0.078 A 
ATOM     33  C   UNN dAMED      -7.913  -3.211  -0.793  0.00  0.00     0.131 C 
ATOM     34  C   UNN dAMED      -9.155   0.680   0.205  0.00  0.00     0.025 A 
ATOM     35  C   UNN dAMED      -8.210   1.662   0.486  0.00  0.00     0.127 A 
BRANCH  35  36
ATOM     36  N   UNN dAMED      -8.666   2.989   0.820  0.00  0.00    -0.114 N 
ATOM     37  O   UNN dAMED      -8.074   3.941   0.293  0.00  0.00    -0.532 OA
ATOM     38  O   UNN dAMED      -9.617   3.082   1.607  0.00  0.00    -0.532 OA
ENDBRANCH  35  36
ENDBRANCH   4  24
TORSDOF 5
