REMARK  5 active torsions:
REMARK  status: ('A' for Active; 'I' for Inactive)
REMARK    1  A    between atoms: C_10  and  C_18 
REMARK    2  A    between atoms: C_13  and  O_23 
REMARK    3  A    between atoms: C_14  and  C_20 
REMARK    4  A    between atoms: C_15  and  O_21 
REMARK    5  A    between atoms: C_18  and  C_20 
ROOT
ATOM      1  C   UNN dAMED      -1.073   0.475  -1.381  0.00  0.00     0.197 C 
ATOM      2  O   UNN dAMED      -0.226  -0.066  -2.078  0.00  0.00    -0.286 OA
ENDROOT
BRANCH   1   3
ATOM      3  C   UNN dAMED      -2.386  -0.081  -1.158  0.00  0.00     0.057 A 
ATOM      4  C   UNN dAMED      -3.026  -0.352   0.086  0.00  0.00     0.020 A 
ATOM      5  C   UNN dAMED      -4.321  -0.786  -0.205  0.00  0.00     0.057 A 
ATOM      6  C   UNN dAMED      -2.637  -0.240   1.435  0.00  0.00     0.002 A 
ATOM      7  N   UNN dAMED      -4.456  -0.775  -1.574  0.00  0.00    -0.352 N 
ATOM      8  C   UNN dAMED      -5.251  -1.122   0.784  0.00  0.00     0.017 A 
ATOM      9  H   UNN dAMED      -5.300  -1.011  -2.077  0.00  0.00     0.166 HD
ATOM     10  C   UNN dAMED      -3.293  -0.355  -2.156  0.00  0.00     0.076 A 
ATOM     11  C   UNN dAMED      -4.835  -1.003   2.112  0.00  0.00     0.002 A 
ATOM     12  C   UNN dAMED      -3.552  -0.572   2.436  0.00  0.00     0.000 A 
ENDBRANCH   1   3
BRANCH   1  13
ATOM     13  C   UNN dAMED      -0.692   1.727  -0.624  0.00  0.00     0.043 C 
BRANCH  13  14
ATOM     14  C   UNN dAMED      -1.343   3.069  -0.872  0.00  0.00     0.016 A 
ATOM     15  C   UNN dAMED      -2.723   3.220  -0.733  0.00  0.00     0.027 A 
ATOM     16  C   UNN dAMED      -3.288   4.486  -0.805  0.00  0.00     0.116 A 
ATOM     17  C   UNN dAMED      -2.485   5.601  -1.001  0.00  0.00     0.117 A 
ATOM     18  C   UNN dAMED      -1.110   5.466  -1.145  0.00  0.00     0.038 A 
ATOM     19  C   UNN dAMED      -0.546   4.194  -1.077  0.00  0.00     0.060 A 
ATOM     20 CL   UNN dAMED       1.156   4.017  -1.207  0.00  0.00    -0.082 Cl
BRANCH  16  21
ATOM     21  O   UNN dAMED      -4.636   4.611  -0.661  0.00  0.00    -0.326 OA
ATOM     22  C   UNN dAMED      -4.807   5.458   0.437  0.00  0.00     0.181 C 
ENDBRANCH  16  21
BRANCH  17  23
ATOM     23  O   UNN dAMED      -3.022   6.853  -1.017  0.00  0.00    -0.326 OA
ATOM     24  C   UNN dAMED      -2.506   7.481   0.120  0.00  0.00     0.181 C 
ENDBRANCH  17  23
ENDBRANCH  13  14
ENDBRANCH   1  13
TORSDOF 5
