REMARK  0 active torsions:
REMARK  status: ('A' for Active; 'I' for Inactive)
ROOT
ATOM      1  O   UNN dAMED      -0.040   1.569   0.115  0.00  0.00    -0.307 OA
ATOM      2  O   UNN dAMED       4.683   1.603   0.084  0.00  0.00    -0.283 OA
ATOM      3  C   UNN dAMED       0.052  -1.263  -0.093  0.00  0.00    -0.018 A 
ATOM      4  C   UNN dAMED      -1.211  -0.538  -0.031  0.00  0.00     0.022 A 
ATOM      5  C   UNN dAMED       1.190  -0.559  -0.049  0.00  0.00     0.022 A 
ATOM      6  C   UNN dAMED       2.540  -1.268  -0.111  0.00  0.00     0.047 A 
ATOM      7  C   UNN dAMED       3.720  -0.626  -0.072  0.00  0.00     0.234 A 
ATOM      8  C   UNN dAMED      -2.437  -1.198  -0.071  0.00  0.00     0.047 A 
ATOM      9  C   UNN dAMED      -3.712  -0.566  -0.015  0.00  0.00     0.234 A 
ATOM     10  C   UNN dAMED       3.692   0.877   0.038  0.00  0.00     0.236 A 
ATOM     11  C   UNN dAMED       1.172   0.884   0.056  0.00  0.00     0.103 A 
ATOM     12  C   UNN dAMED      -1.208   0.837   0.070  0.00  0.00     0.103 A 
ATOM     13  C   UNN dAMED      -3.704   0.895   0.091  0.00  0.00     0.236 A 
ATOM     14  C   UNN dAMED       2.329   1.553   0.097  0.00  0.00     0.070 A 
ATOM     15  C   UNN dAMED      -2.423   1.515   0.128  0.00  0.00     0.070 A 
ATOM     16  O   UNN dAMED      -4.754  -1.325  -0.064  0.00  0.00    -0.283 OA
ATOM     17  O   UNN dAMED      -4.739   1.663   0.155  0.00  0.00    -0.283 OA
ATOM     18  C   UNN dAMED       0.061  -2.758  -0.202  0.00  0.00     0.031 C 
ATOM     19  O   UNN dAMED       4.788  -1.293  -0.128  0.00  0.00    -0.283 OA
ENDROOT
TORSDOF 0
