REMARK  4 active torsions:
REMARK  status: ('A' for Active; 'I' for Inactive)
REMARK    1  A    between atoms: C_3  and  C_4 
REMARK    2  A    between atoms: C_3  and  C_28 
REMARK    3  A    between atoms: C_28  and  C_29 
REMARK    4  A    between atoms: C_29  and  C_30 
ROOT
ATOM      1  O   UNN dAMED      -0.865   0.851   2.479  0.00  0.00    -0.297 OA
ATOM      2  O   UNN dAMED      -0.867  -1.009  -3.085  0.00  0.00    -0.297 OA
ATOM      3  C   UNN dAMED       2.911  -0.032  -0.318  0.00  0.00     0.014 C 
ATOM      4  C   UNN dAMED       2.479   0.536  -1.672  0.00  0.00    -0.006 C 
ATOM      5  C   UNN dAMED       1.622  -0.577   0.300  0.00  0.00     0.002 C 
ATOM      6  C   UNN dAMED       0.919   0.560   1.007  0.00  0.00     0.064 C 
ATOM      7  C   UNN dAMED      -0.482   0.302   1.452  0.00  0.00     0.144 C 
ATOM      8  C   UNN dAMED       1.073   0.058  -1.962  0.00  0.00    -0.001 C 
ATOM      9  C   UNN dAMED       0.739  -0.966  -0.876  0.00  0.00     0.001 C 
ATOM     10  C   UNN dAMED      -1.423  -0.421   0.514  0.00  0.00     0.079 C 
ATOM     11  C   UNN dAMED      -0.750  -1.129  -0.678  0.00  0.00     0.079 C 
ATOM     12  C   UNN dAMED      -2.500   0.597   0.189  0.00  0.00    -0.003 C 
ATOM     13  C   UNN dAMED      -3.087   1.090   1.517  0.00  0.00     0.002 C 
ATOM     14  C   UNN dAMED      -3.866   0.042   2.297  0.00  0.00     0.033 C 
ATOM     15  C   UNN dAMED      -1.383  -0.751  -2.003  0.00  0.00     0.144 C 
ATOM     16  C   UNN dAMED      -3.556   0.143  -0.796  0.00  0.00     0.028 C 
ATOM     17  C   UNN dAMED      -4.877  -0.747   1.453  0.00  0.00     0.152 C 
ATOM     18  C   UNN dAMED      -2.853  -0.454  -2.018  0.00  0.00     0.058 C 
ATOM     19  C   UNN dAMED      -4.510  -0.945  -0.344  0.00  0.00     0.024 C 
ATOM     20  O   UNN dAMED      -5.625  -1.727   2.038  0.00  0.00    -0.224 OA
ATOM     21  C   UNN dAMED      -4.875  -0.748   1.445  0.00  0.00     0.002 C 
ATOM     22  C   UNN dAMED      -4.875  -0.748   1.446  0.00  0.00     0.002 C 
ATOM     23  C   UNN dAMED      -1.869   1.895  -0.328  0.00  0.00    -0.001 C 
ATOM     24  C   UNN dAMED       1.938  -1.807   1.146  0.00  0.00    -0.000 C 
ATOM     25  C   UNN dAMED       1.330  -2.192  -1.597  0.00  0.00    -0.000 C 
ENDROOT
BRANCH   3  26
ATOM     26  C   UNN dAMED       3.499   1.071   0.518  0.00  0.00     0.014 C 
ATOM     27  C   UNN dAMED       4.340   0.456   1.641  0.00  0.00    -0.007 C 
BRANCH  26  28
ATOM     28  C   UNN dAMED       2.354   1.952   1.052  0.00  0.00     0.005 C 
BRANCH  28  29
ATOM     29  C   UNN dAMED       2.181   3.440   0.693  0.00  0.00     0.097 C 
BRANCH  29  30
ATOM     30  C   UNN dAMED       3.326   4.248   0.143  0.00  0.00     0.185 C 
ATOM     31  O   UNN dAMED       4.063   4.829   0.994  0.00  0.00    -0.647 OA
ATOM     32  O   UNN dAMED       3.551   4.117  -1.097  0.00  0.00    -0.647 OA
ENDBRANCH  29  30
ENDBRANCH  28  29
ENDBRANCH  26  28
ENDBRANCH   3  26
TORSDOF 4
