REMARK  0 active torsions:
REMARK  status: ('A' for Active; 'I' for Inactive)
ROOT
ATOM      1  N   UNN dAMED      -0.427  -1.893   0.251  0.00  0.00    -0.268 N 
ATOM      2  O   UNN dAMED      -2.264  -2.009   1.747  0.00  0.00    -0.267 OA
ATOM      3  N   UNN dAMED       1.408  -5.516   1.306  0.00  0.00    -0.242 NA
ATOM      4  C   UNN dAMED       4.119   0.292   0.443  0.00  0.00    -0.000 A 
ATOM      5  C   UNN dAMED       3.010   0.762   1.139  0.00  0.00    -0.000 A 
ATOM      6  C   UNN dAMED       3.947  -0.553  -0.647  0.00  0.00    -0.000 A 
ATOM      7  C   UNN dAMED       2.663  -0.928  -1.039  0.00  0.00     0.000 A 
ATOM      8  C   UNN dAMED       1.729   0.382   0.741  0.00  0.00     0.000 A 
ATOM      9  C   UNN dAMED       1.526  -0.461  -0.363  0.00  0.00     0.029 A 
ATOM     10  C   UNN dAMED       0.116  -0.917  -0.725  0.00  0.00     0.237 A 
ATOM     11  C   UNN dAMED      -0.921   0.188  -0.611  0.00  0.00     0.034 A 
ATOM     12  C   UNN dAMED      -0.986   1.413  -1.261  0.00  0.00     0.000 A 
ATOM     13  C   UNN dAMED      -2.047   2.269  -0.957  0.00  0.00    -0.000 A 
ATOM     14  C   UNN dAMED      -1.902  -0.147   0.328  0.00  0.00     0.057 A 
ATOM     15  C   UNN dAMED      -3.021   1.908  -0.014  0.00  0.00     0.000 A 
ATOM     16  C   UNN dAMED      -2.959   0.684   0.649  0.00  0.00     0.005 A 
ATOM     17  C   UNN dAMED      -1.594  -1.464   0.887  0.00  0.00     0.263 A 
ATOM     18  C   UNN dAMED       1.084  -3.149   1.670  0.00  0.00     0.038 A 
ATOM     19  C   UNN dAMED       0.208  -3.105   0.589  0.00  0.00     0.068 A 
ATOM     20  C   UNN dAMED       1.655  -4.371   1.980  0.00  0.00     0.101 A 
ATOM     21  C   UNN dAMED      -0.085  -4.262  -0.125  0.00  0.00     0.038 A 
ATOM     22  C   UNN dAMED       0.542  -5.432   0.271  0.00  0.00     0.101 A 
ATOM     23  O   UNN dAMED       0.039  -1.415  -1.948  0.00  0.00    -0.193 OA
ENDROOT
TORSDOF 0
