REMARK  4 active torsions:
REMARK  status: ('A' for Active; 'I' for Inactive)
REMARK    1  A    between atoms: C_7  and  S_9 
REMARK    2  A    between atoms: S_9  and  N_10 
REMARK    3  A    between atoms: N_21  and  C_23 
REMARK    4  A    between atoms: C_23  and  C_24 
ROOT
ATOM      1  N   UNN dAMED      -3.123  -4.506  -1.517  0.00  0.00    -0.242 NA
ATOM      2  C   UNN dAMED      -2.791  -4.552  -2.825  0.00  0.00     0.100 A 
ATOM      3  C   UNN dAMED      -2.574  -3.506  -0.799  0.00  0.00     0.112 A 
ATOM      4  C   UNN dAMED      -1.710  -2.561  -1.332  0.00  0.00     0.128 A 
ATOM      5  C   UNN dAMED      -1.934  -3.655  -3.446  0.00  0.00     0.033 A 
ATOM      6  C   UNN dAMED      -1.372  -2.634  -2.682  0.00  0.00     0.051 A 
ATOM      7  N   UNN dAMED      -0.473  -1.743  -3.296  0.00  0.00    -0.248 NA
ATOM      8  C   UNN dAMED       0.609  -1.153  -2.500  0.00  0.00     0.100 C 
ATOM      9  C   UNN dAMED       0.417  -2.229  -4.357  0.00  0.00     0.100 C 
ATOM     10  C   UNN dAMED       1.486  -1.315  -4.967  0.00  0.00     0.115 C 
ATOM     11  C   UNN dAMED       2.072  -1.361  -2.903  0.00  0.00     0.115 C 
ATOM     12  N   UNN dAMED       2.574  -0.803  -4.138  0.00  0.00    -0.362 N 
ENDROOT
BRANCH   4  13
ATOM     13  S   UNN dAMED      -1.034  -1.348  -0.250  0.00  0.00     0.249 S 
ATOM     14  O   UNN dAMED      -1.029  -0.083  -0.957  0.00  0.00    -0.205 OA
ATOM     15  O   UNN dAMED      -1.697  -1.479   1.034  0.00  0.00    -0.205 OA
BRANCH  13  16
ATOM     16  N   UNN dAMED       0.569  -1.925  -0.098  0.00  0.00    -0.173 NA
ATOM     17  C   UNN dAMED       1.123  -2.157   1.242  0.00  0.00     0.112 C 
ATOM     18  C   UNN dAMED       2.556  -2.667   1.423  0.00  0.00     0.116 C 
ATOM     19  N   UNN dAMED       2.927  -4.002   0.941  0.00  0.00    -0.364 N 
ATOM     20  C   UNN dAMED       2.329  -3.827  -0.358  0.00  0.00     0.116 C 
ATOM     21  C   UNN dAMED       4.093  -4.285   1.730  0.00  0.00     0.121 C 
ATOM     22  C   UNN dAMED       0.892  -3.307  -0.483  0.00  0.00     0.112 C 
ENDBRANCH  13  16
ENDBRANCH   4  13
BRANCH  12  23
ATOM     23  C   UNN dAMED       3.808  -0.579  -4.830  0.00  0.00     0.124 C 
BRANCH  23  24
ATOM     24  C   UNN dAMED       5.127  -0.600  -4.051  0.00  0.00    -0.002 C 
ATOM     25  C   UNN dAMED       6.223  -1.109  -4.610  0.00  0.00    -0.003 C 
ENDBRANCH  23  24
ENDBRANCH  12  23
TORSDOF 4
