REMARK  0 active torsions:
REMARK  status: ('A' for Active; 'I' for Inactive)
ROOT
ATOM      1  N   UNN dAMED       3.805  -0.282   0.578  0.00  0.00    -0.241 NA
ATOM      2  N   UNN dAMED      -0.108   0.463  -0.384  0.00  0.00    -0.233 N 
ATOM      3  N   UNN dAMED      -3.960  -0.990   0.406  0.00  0.00    -0.242 NA
ATOM      4  N   UNN dAMED       1.373   1.766  -1.306  0.00  0.00    -0.155 NA
ATOM      5  N   UNN dAMED       0.072   1.514  -1.220  0.00  0.00     0.011 NA
ATOM      6  C   UNN dAMED      -3.522  -0.780  -0.855  0.00  0.00     0.101 A 
ATOM      7  C   UNN dAMED      -2.258  -0.303  -1.167  0.00  0.00     0.039 A 
ATOM      8  C   UNN dAMED      -1.399  -0.027  -0.109  0.00  0.00     0.082 A 
ATOM      9  C   UNN dAMED      -1.808  -0.225   1.205  0.00  0.00     0.039 A 
ATOM     10  C   UNN dAMED      -3.093  -0.708   1.404  0.00  0.00     0.101 A 
ATOM     11  C   UNN dAMED       1.499  -1.006   0.953  0.00  0.00     0.041 A 
ATOM     12  C   UNN dAMED       2.875  -1.086   1.145  0.00  0.00     0.101 A 
ATOM     13  C   UNN dAMED       1.114   0.016   0.088  0.00  0.00     0.101 A 
ATOM     14  C   UNN dAMED       2.032   0.868  -0.517  0.00  0.00     0.135 A 
ATOM     15  C   UNN dAMED       3.398   0.706  -0.260  0.00  0.00     0.121 A 
ENDROOT
TORSDOF 0
