REMARK  0 active torsions:
REMARK  status: ('A' for Active; 'I' for Inactive)
ROOT
ATOM      1  C   UNN dAMED      -1.116  -0.105  -0.218  0.00  0.00     0.103 A 
ATOM      2  N   UNN dAMED      -0.677   0.190  -1.479  0.00  0.00    -0.115 N 
ATOM      3  C   UNN dAMED       0.050  -0.103   0.571  0.00  0.00     0.012 A 
ATOM      4  N   UNN dAMED       0.638   0.411  -1.539  0.00  0.00    -0.003 NA
ATOM      5  C   UNN dAMED       1.079   0.197  -0.308  0.00  0.00     0.086 A 
ATOM      6  O   UNN dAMED       1.160  -0.427  -2.321  0.00  0.00    -0.090 OA
ATOM      7  O   UNN dAMED      -1.354   0.352  -2.532  0.00  0.00    -0.065 OA
ATOM      8  C   UNN dAMED      -2.492  -0.351   0.109  0.00  0.00     0.019 A 
ATOM      9  C   UNN dAMED      -3.267   0.664   0.670  0.00  0.00     0.002 A 
ATOM     10  C   UNN dAMED      -4.598   0.420   1.000  0.00  0.00     0.000 A 
ATOM     11  C   UNN dAMED      -5.154  -0.836   0.770  0.00  0.00     0.000 A 
ATOM     12  C   UNN dAMED      -4.379  -1.852   0.213  0.00  0.00     0.000 A 
ATOM     13  C   UNN dAMED      -3.046  -1.611  -0.114  0.00  0.00     0.002 A 
ATOM     14  C   UNN dAMED       0.165  -0.386   2.034  0.00  0.00     0.034 C 
ATOM     15  C   UNN dAMED       2.489   0.378   0.054  0.00  0.00     0.014 A 
ATOM     16  C   UNN dAMED       3.113   1.610  -0.158  0.00  0.00     0.001 A 
ATOM     17  C   UNN dAMED       4.448   1.792   0.195  0.00  0.00     0.000 A 
ATOM     18  C   UNN dAMED       5.162   0.747   0.775  0.00  0.00     0.000 A 
ATOM     19  C   UNN dAMED       4.544  -0.481   0.997  0.00  0.00     0.000 A 
ATOM     20  C   UNN dAMED       3.211  -0.667   0.634  0.00  0.00     0.001 A 
ENDROOT
TORSDOF 0
