REMARK  1 active torsions:
REMARK  status: ('A' for Active; 'I' for Inactive)
REMARK    1  A    between atoms: C4*_4  and  C5*_18 
ROOT
ATOM      1  C   UNN dAMED      -3.620  -0.107   0.048  0.00  0.00     0.128 C 
ATOM      2  C   UNN dAMED      -2.317  -0.619   0.318  0.00  0.00     0.118 C 
ATOM      3  N   UNN dAMED      -3.652   1.239  -0.002  0.00  0.00    -0.183 NA
ATOM      4  C4* UNN dAMED       2.696  -0.989  -0.197  0.00  0.00     0.136 C 
ATOM      5  C3* UNN dAMED       2.798  -0.898   1.315  0.00  0.00     0.168 C 
ATOM      6  O4* UNN dAMED       1.545  -0.363  -0.748  0.00  0.00    -0.291 OA
ATOM      7  C2* UNN dAMED       1.471  -0.320   1.736  0.00  0.00     0.263 C 
ATOM      8  C   UNN dAMED      -1.570   0.514   0.453  0.00  0.00     0.140 C 
ATOM      9  N   UNN dAMED      -2.462   1.542   0.519  0.00  0.00    -0.115 NA
ATOM     10  C1* UNN dAMED       0.817   0.037   0.400  0.00  0.00     0.182 C 
ATOM     11  C   UNN dAMED      -1.753   2.602  -0.132  0.00  0.00     0.095 C 
ATOM     12  N   UNN dAMED      -0.299   0.948   0.286  0.00  0.00    -0.275 N 
ATOM     13  C   UNN dAMED      -0.449   2.310  -0.164  0.00  0.00     0.097 C 
ATOM     14  O3* UNN dAMED       3.447  -1.866   2.033  0.00  0.00    -0.190 OA
ATOM     15  C   UNN dAMED      -1.845  -1.946   0.153  0.00  0.00     0.105 C 
ATOM     16  N   UNN dAMED      -1.451  -3.028  -0.001  0.00  0.00    -0.191 NA
ATOM     17  O2* UNN dAMED       1.393   0.527   2.813  0.00  0.00    -0.207 OA
ENDROOT
BRANCH   4  18
ATOM     18  C5* UNN dAMED       3.967  -1.197  -1.037  0.00  0.00     0.235 C 
ATOM     19  O5* UNN dAMED       3.938  -1.910  -2.205  0.00  0.00    -0.213 OA
ENDBRANCH   4  18
TORSDOF 1
