REMARK  7 active torsions:
REMARK  status: ('A' for Active; 'I' for Inactive)
REMARK    1  A    between atoms: C_2  and  C_3 
REMARK    2  A    between atoms: C_2  and  O_4 
REMARK    3  A    between atoms: O_4  and  C_15 
REMARK    4  A    between atoms: C_5  and  C_7 
REMARK    5  A    between atoms: C_10  and  C_12 
REMARK    6  A    between atoms: C_12  and  O_14 
REMARK    7  A    between atoms: O_14  and  C_17 
ROOT
ATOM      1  C   UNN dAMED       0.651  -1.967   0.064  0.00  0.00     0.018 A 
ATOM      2  C   UNN dAMED       0.101  -0.713  -0.084  0.00  0.00     0.045 A 
ATOM      3  H   UNN dAMED       1.043   1.178  -0.312  0.00  0.00     0.166 HD
ATOM      4  N   UNN dAMED       1.140   0.182  -0.174  0.00  0.00    -0.350 N 
ATOM      5  C   UNN dAMED       2.348  -0.463  -0.006  0.00  0.00     0.121 A 
ATOM      6  C   UNN dAMED       2.055  -1.808   0.125  0.00  0.00     0.024 A 
ENDROOT
BRANCH   2   7
ATOM      7  C   UNN dAMED      -1.223  -0.223  -0.144  0.00  0.00     0.036 C 
ATOM      8  C   UNN dAMED      -1.938  -0.109   0.985  0.00  0.00     0.084 C 
BRANCH   8   9
ATOM      9  C   UNN dAMED      -3.318   0.415   1.040  0.00  0.00     0.283 C 
ATOM     10  O   UNN dAMED      -3.939   0.524   2.088  0.00  0.00    -0.260 OA
BRANCH   9  11
ATOM     11  O   UNN dAMED      -3.797   0.793  -0.164  0.00  0.00    -0.299 OA
BRANCH  11  12
ATOM     12  C   UNN dAMED      -5.143   1.091   0.066  0.00  0.00     0.152 C 
ATOM     13  C   UNN dAMED      -6.223   0.085  -0.344  0.00  0.00     0.035 C 
ENDBRANCH  11  12
ENDBRANCH   9  11
ENDBRANCH   8   9
ENDBRANCH   2   7
BRANCH   5  14
ATOM     14  C   UNN dAMED       3.641   0.169   0.052  0.00  0.00     0.312 C 
ATOM     15  O   UNN dAMED       4.653  -0.307   0.550  0.00  0.00    -0.258 OA
BRANCH  14  16
ATOM     16  O   UNN dAMED       3.606   1.401  -0.521  0.00  0.00    -0.297 OA
BRANCH  16  17
ATOM     17  C   UNN dAMED       4.828   1.984  -0.173  0.00  0.00     0.152 C 
ATOM     18  C   UNN dAMED       5.435   1.694   1.203  0.00  0.00     0.035 C 
ENDBRANCH  16  17
ENDBRANCH  14  16
ENDBRANCH   5  14
TORSDOF 7
