REMARK  3 active torsions:
REMARK  status: ('A' for Active; 'I' for Inactive)
REMARK    1  A    between atoms: C_9  and  N_18 
REMARK    2  A    between atoms: S_11  and  C_12 
REMARK    3  A    between atoms: S_11  and  N_18 
ROOT
ATOM      1  C   UNN dAMED      -5.352   1.928   0.385  0.00  0.00     0.002 A 
ATOM      2  C   UNN dAMED      -5.910   0.659   0.401  0.00  0.00     0.002 A 
ATOM      3  C   UNN dAMED      -5.087  -0.451   0.235  0.00  0.00     0.021 A 
ATOM      4  C   UNN dAMED      -3.715  -0.318   0.051  0.00  0.00     0.099 A 
ATOM      5  C   UNN dAMED      -3.154   0.966   0.029  0.00  0.00     0.101 A 
ATOM      6  C   UNN dAMED      -3.980   2.069   0.200  0.00  0.00     0.021 A 
ATOM      7  N   UNN dAMED      -2.942  -1.403  -0.097  0.00  0.00    -0.245 NA
ATOM      8  C   UNN dAMED      -1.617  -1.211  -0.264  0.00  0.00     0.096 A 
ATOM      9  C   UNN dAMED      -1.054   0.048  -0.316  0.00  0.00     0.188 A 
ATOM     10  N   UNN dAMED      -1.834   1.140  -0.154  0.00  0.00    -0.224 NA
ATOM     11  C   UNN dAMED      -0.713  -2.409  -0.347  0.00  0.00     0.055 C 
ENDROOT
BRANCH   9  12
ATOM     12  N   UNN dAMED       0.267   0.281  -0.427  0.00  0.00    -0.138 NA
BRANCH  12  13
ATOM     13  S   UNN dAMED       1.045  -0.280  -1.708  0.00  0.00     0.287 S 
ATOM     14  O   UNN dAMED       1.762  -1.532  -1.480  0.00  0.00    -0.198 OA
ATOM     15  O   UNN dAMED       0.305  -0.212  -2.968  0.00  0.00    -0.198 OA
BRANCH  13  16
ATOM     16  C   UNN dAMED       2.409   0.849  -2.005  0.00  0.00     0.105 A 
ATOM     17  C   UNN dAMED       3.250   1.178  -0.946  0.00  0.00     0.014 A 
ATOM     18  C   UNN dAMED       4.319   2.040  -1.179  0.00  0.00     0.015 A 
ATOM     19  C   UNN dAMED       4.539   2.552  -2.458  0.00  0.00     0.070 A 
ATOM     20  C   UNN dAMED       3.697   2.199  -3.513  0.00  0.00     0.015 A 
ATOM     21  N   UNN dAMED       5.644   3.418  -2.695  0.00  0.00    -0.101 NA
ATOM     22  C   UNN dAMED       2.627   1.338  -3.289  0.00  0.00     0.014 A 
ENDBRANCH  13  16
ENDBRANCH  12  13
ENDBRANCH   9  12
TORSDOF 3
