REMARK  1 active torsions:
REMARK  status: ('A' for Active; 'I' for Inactive)
REMARK    1  A    between atoms: C_1  and  C_9 
REMARK       I    between atoms: C_1  and  N_15 
REMARK       I    between atoms: C_3  and  N_4 
ROOT
ATOM      1  C   UNN dAMED       0.232  -0.753   2.165  0.00  0.00     0.295 C 
ATOM      2  O   UNN dAMED       0.770   0.324   2.401  0.00  0.00    -0.265 OA
ATOM      3  C   UNN dAMED       0.842  -1.116  -0.010  0.00  0.00     0.772 C 
ATOM      4  N   UNN dAMED       2.035  -0.415   0.060  0.00  0.00    -0.060 N 
ATOM      5  C   UNN dAMED       3.217  -0.845   0.592  0.00  0.00     0.080 A 
ATOM      6  N   UNN dAMED       2.139   0.810  -0.510  0.00  0.00    -0.155 NA
ATOM      7  C   UNN dAMED       4.170   0.097   0.307  0.00  0.00     0.032 A 
ATOM      8  C   UNN dAMED       3.434   1.098  -0.351  0.00  0.00     0.081 A 
ATOM      9  N   UNN dAMED       0.009  -1.368   0.998  0.00  0.00    -0.018 NA
ATOM     10  N   UNN dAMED       0.544  -1.720  -1.151  0.00  0.00     0.062 N 
ATOM     11  C   UNN dAMED       3.511  -2.295   0.838  0.00  0.00     0.053 C 
ATOM     12  C   UNN dAMED       4.034   2.403  -0.781  0.00  0.00     0.054 C 
ENDROOT
BRANCH   1  13
ATOM     13  C   UNN dAMED      -0.349  -1.469   3.316  0.00  0.00     0.059 A 
ATOM     14  C   UNN dAMED       0.309  -2.589   3.820  0.00  0.00     0.005 A 
ATOM     15  C   UNN dAMED      -0.238  -3.277   4.900  0.00  0.00     0.000 A 
ATOM     16  C   UNN dAMED      -1.424  -2.832   5.484  0.00  0.00     0.000 A 
ATOM     17  C   UNN dAMED      -2.061  -1.690   4.997  0.00  0.00     0.000 A 
ATOM     18  C   UNN dAMED      -1.525  -1.003   3.907  0.00  0.00     0.005 A 
ENDBRANCH   1  13
TORSDOF 1
