REMARK  5 active torsions:
REMARK  status: ('A' for Active; 'I' for Inactive)
REMARK    1  A    between atoms: O_3  and  C_13 
REMARK    2  A    between atoms: O_3  and  C_18 
REMARK    3  A    between atoms: C_8  and  N_21 
REMARK    4  A    between atoms: C_9  and  N_22 
REMARK    5  A    between atoms: C_18  and  C_19 
REMARK       I    between atoms: C_19  and  N_21 
ROOT
ATOM      1  C   UNN dAMED      -1.855  -1.542   2.599  0.00  0.00     0.304 C 
ATOM      2  O   UNN dAMED      -2.244  -2.476   3.293  0.00  0.00    -0.263 OA
ATOM      3  N   UNN dAMED      -1.897  -0.247   2.909  0.00  0.00    -0.205 NA
ENDROOT
BRANCH   1   4
ATOM      4  C   UNN dAMED      -1.569  -1.843   1.139  0.00  0.00     0.185 C 
BRANCH   4   5
ATOM      5  O   UNN dAMED      -2.586  -2.181   0.227  0.00  0.00    -0.299 OA
BRANCH   5   6
ATOM      6  C   UNN dAMED      -3.343  -1.054   0.063  0.00  0.00     0.112 A 
ATOM      7  C   UNN dAMED      -2.756   0.058  -0.533  0.00  0.00     0.038 A 
ATOM      8  C   UNN dAMED      -3.463   1.258  -0.601  0.00  0.00     0.070 A 
ATOM      9 CL   UNN dAMED      -2.673   2.600  -1.337  0.00  0.00    -0.081 Cl
ATOM     10  C   UNN dAMED      -4.754   1.338  -0.069  0.00  0.00     0.069 A 
ATOM     11 CL   UNN dAMED      -5.682   2.790  -0.084  0.00  0.00    -0.082 Cl
ATOM     12  C   UNN dAMED      -5.337   0.214   0.515  0.00  0.00     0.026 A 
ATOM     13  C   UNN dAMED      -4.632  -0.983   0.582  0.00  0.00     0.081 A 
ATOM     14 CL   UNN dAMED      -5.372  -2.327   1.362  0.00  0.00    -0.080 Cl
ENDBRANCH   5   6
ENDBRANCH   4   5
ENDBRANCH   1   4
BRANCH   3  15
ATOM     15  C   UNN dAMED      -0.849   0.186   3.646  0.00  0.00     0.095 A 
ATOM     16  C   UNN dAMED       0.466  -0.264   3.417  0.00  0.00     0.022 A 
ATOM     17  C   UNN dAMED       1.558   0.208   4.143  0.00  0.00     0.025 A 
ATOM     18  C   UNN dAMED       1.337   1.163   5.126  0.00  0.00     0.128 A 
ATOM     19  C   UNN dAMED       0.066   1.663   5.378  0.00  0.00     0.036 A 
ATOM     20  C   UNN dAMED      -1.013   1.184   4.632  0.00  0.00     0.077 A 
ATOM     21 CL   UNN dAMED      -2.550   1.921   4.943  0.00  0.00    -0.081 Cl
BRANCH  18  22
ATOM     22  N   UNN dAMED       2.464   1.690   5.866  0.00  0.00    -0.114 N 
ATOM     23  O   UNN dAMED       2.323   2.793   6.414  0.00  0.00    -0.532 OA
ATOM     24  O   UNN dAMED       3.495   1.008   5.900  0.00  0.00    -0.532 OA
ENDBRANCH  18  22
ENDBRANCH   3  15
TORSDOF 5
