REMARK  3 active torsions:
REMARK  status: ('A' for Active; 'I' for Inactive)
REMARK    1  A    between atoms: C_13  and  N_21 
REMARK    2  A    between atoms: C_16  and  N_21 
REMARK    3  A    between atoms: C_18  and  S_19 
ROOT
ATOM      1  N   UNN dAMED      -0.032   1.296   0.779  0.00  0.00    -0.220 NA
ENDROOT
BRANCH   1   2
ATOM      2  C   UNN dAMED       0.112   2.586   0.447  0.00  0.00     0.156 C 
ATOM      3  C   UNN dAMED      -0.756   3.169  -0.378  0.00  0.00     0.100 C 
ATOM      4  N   UNN dAMED      -0.782   4.578  -0.593  0.00  0.00    -0.304 N 
ATOM      5  C   UNN dAMED       0.464   5.160  -0.643  0.00  0.00     0.327 C 
ATOM      6  H   UNN dAMED      -1.573   4.851  -1.163  0.00  0.00     0.171 HD
ATOM      7  N   UNN dAMED       1.465   4.490   0.069  0.00  0.00    -0.273 N 
ATOM      8  O   UNN dAMED       0.676   6.223  -1.230  0.00  0.00    -0.247 OA
ATOM      9  C   UNN dAMED       1.393   3.261   0.718  0.00  0.00     0.280 C 
ATOM     10  H   UNN dAMED       2.359   4.970   0.128  0.00  0.00     0.173 HD
ATOM     11  O   UNN dAMED       2.284   2.777   1.405  0.00  0.00    -0.265 OA
ENDBRANCH   1   2
BRANCH   1  12
ATOM     12  C   UNN dAMED      -1.214   0.735   0.417  0.00  0.00     0.173 A 
ATOM     13  N   UNN dAMED      -2.109   1.506  -0.262  0.00  0.00    -0.202 NA
ATOM     14  C   UNN dAMED      -3.284   0.952  -0.624  0.00  0.00     0.192 A 
ATOM     15  N   UNN dAMED      -3.657  -0.314  -0.375  0.00  0.00    -0.209 NA
ATOM     16  C   UNN dAMED      -2.759  -1.062   0.295  0.00  0.00     0.150 A 
ATOM     17 CL   UNN dAMED      -3.318  -2.670   0.563  0.00  0.00    -0.061 Cl
ATOM     18  C   UNN dAMED      -1.522  -0.595   0.719  0.00  0.00     0.099 A 
ATOM     19 BR   UNN dAMED      -0.305  -1.710   1.665  0.00  0.00    -0.043 Br
BRANCH  14  20
ATOM     20  S   UNN dAMED      -4.430   1.984  -1.506  0.00  0.00    -0.075 SA
ATOM     21  C   UNN dAMED      -5.382   0.623  -2.173  0.00  0.00     0.077 C 
ENDBRANCH  14  20
ENDBRANCH   1  12
TORSDOF 3
