REMARK  4 active torsions:
REMARK  status: ('A' for Active; 'I' for Inactive)
REMARK    1  A    between atoms: C_15  and  S_16 
REMARK    2  A    between atoms: S_16  and  C_21 
REMARK    3  A    between atoms: S_17  and  C_18 
REMARK    4  A    between atoms: S_17  and  C_21 
ROOT
ATOM      1  C   UNN dAMED       0.115  -0.563  -0.839  0.00  0.00     0.128 C 
ENDROOT
BRANCH   1   2
ATOM      2  S   UNN dAMED       1.850  -0.936  -1.064  0.00  0.00    -0.076 SA
BRANCH   2   3
ATOM      3  C   UNN dAMED       2.374   0.732  -0.990  0.00  0.00     0.137 A 
ATOM      4  S   UNN dAMED       2.666   1.548   0.483  0.00  0.00    -0.060 SA
ATOM      5  C   UNN dAMED       3.104   2.962  -0.395  0.00  0.00     0.049 A 
ATOM      6  C   UNN dAMED       2.974   2.710  -1.763  0.00  0.00     0.088 A 
ATOM      7  C   UNN dAMED       3.533   4.203   0.096  0.00  0.00     0.008 A 
ATOM      8  C   UNN dAMED       3.280   3.739  -2.675  0.00  0.00     0.020 A 
ATOM      9  N   UNN dAMED       2.553   1.431  -2.087  0.00  0.00    -0.232 NA
ATOM     10  C   UNN dAMED       3.710   4.977  -2.196  0.00  0.00     0.002 A 
ATOM     11  C   UNN dAMED       3.836   5.201  -0.832  0.00  0.00     0.001 A 
ENDBRANCH   2   3
ENDBRANCH   1   2
BRANCH   1  12
ATOM     12  S   UNN dAMED      -0.931  -0.165  -2.239  0.00  0.00    -0.076 SA
BRANCH  12  13
ATOM     13  C   UNN dAMED      -2.387  -0.095  -1.274  0.00  0.00     0.137 A 
ATOM     14  N   UNN dAMED      -3.363   0.736  -1.552  0.00  0.00    -0.232 NA
ATOM     15  C   UNN dAMED      -4.366   0.609  -0.602  0.00  0.00     0.088 A 
ATOM     16  C   UNN dAMED      -5.569   1.341  -0.556  0.00  0.00     0.020 A 
ATOM     17  C   UNN dAMED      -4.121  -0.338   0.395  0.00  0.00     0.049 A 
ATOM     18  C   UNN dAMED      -6.478   1.108   0.476  0.00  0.00     0.002 A 
ATOM     19  C   UNN dAMED      -6.208   0.162   1.456  0.00  0.00     0.001 A 
ATOM     20  C   UNN dAMED      -5.027  -0.581   1.436  0.00  0.00     0.008 A 
ATOM     21  S   UNN dAMED      -2.598  -1.080   0.107  0.00  0.00    -0.060 SA
ENDBRANCH  12  13
ENDBRANCH   1  12
TORSDOF 4
