REMARK  2 active torsions:
REMARK  status: ('A' for Active; 'I' for Inactive)
REMARK    1  A    between atoms: C_3  and  C_8 
REMARK    2  A    between atoms: C_8  and  O_10 
ROOT
ATOM      1  N   UNN dAMED      -1.701  -1.327   1.086  0.00  0.00    -0.243 NA
ATOM      2  C   UNN dAMED      -0.556   0.581  -0.627  0.00  0.00     0.004 A 
ATOM      3  C   UNN dAMED       0.233  -0.208   0.199  0.00  0.00     0.082 A 
ATOM      4  C   UNN dAMED      -1.931   0.391  -0.603  0.00  0.00    -0.003 A 
ATOM      5  C   UNN dAMED      -0.366  -1.132   1.039  0.00  0.00     0.104 A 
ATOM      6  C   UNN dAMED      -2.450  -0.562   0.260  0.00  0.00     0.095 A 
ATOM      7  C   UNN dAMED      -2.834   1.193  -1.495  0.00  0.00     0.033 C 
ENDROOT
BRANCH   3   8
ATOM      8  C   UNN dAMED       1.676  -0.027   0.247  0.00  0.00     0.297 C 
ATOM      9  O   UNN dAMED       2.276   0.479   1.176  0.00  0.00    -0.259 OA
BRANCH   8  10
ATOM     10  O   UNN dAMED       2.216  -0.547  -0.875  0.00  0.00    -0.296 OA
ATOM     11  C   UNN dAMED       1.138  -1.068  -1.594  0.00  0.00     0.185 C 
ENDBRANCH   8  10
ENDBRANCH   3   8
TORSDOF 2
