REMARK  0 active torsions:
REMARK  status: ('A' for Active; 'I' for Inactive)
ROOT
ATOM      1  N   UNN dAMED      -0.964  -2.343   0.532  0.00  0.00    -0.373 N 
ATOM      2  H   UNN dAMED      -1.754  -2.984   0.520  0.00  0.00     0.160 HD
ATOM      3  C   UNN dAMED      -2.697  -0.662   0.644  0.00  0.00     0.016 A 
ATOM      4  C   UNN dAMED      -1.355  -0.991   0.393  0.00  0.00     0.053 A 
ATOM      5  C   UNN dAMED      -3.139   0.654   0.581  0.00  0.00    -0.003 A 
ATOM      6  C   UNN dAMED      -0.423   0.036   0.118  0.00  0.00     0.012 A 
ATOM      7  C   UNN dAMED      -2.235   1.664   0.288  0.00  0.00    -0.022 A 
ATOM      8  C   UNN dAMED       1.016  -0.268  -0.086  0.00  0.00     0.001 C 
ATOM      9  C   UNN dAMED       0.346  -2.739   0.074  0.00  0.00     0.102 C 
ATOM     10  C   UNN dAMED       1.425  -1.682   0.219  0.00  0.00     0.052 C 
ATOM     11  C   UNN dAMED      -0.895   1.352   0.068  0.00  0.00    -0.003 A 
ATOM     12  C   UNN dAMED      -2.699   3.089   0.193  0.00  0.00     0.031 C 
ATOM     13  C   UNN dAMED       2.025   0.537  -0.472  0.00  0.00     0.132 C 
ATOM     14  C   UNN dAMED       1.876   1.913  -0.807  0.00  0.00     0.111 C 
ATOM     15  N   UNN dAMED       1.776   3.035  -1.086  0.00  0.00    -0.191 NA
ATOM     16  C   UNN dAMED       3.317  -0.064  -0.556  0.00  0.00     0.111 C 
ATOM     17  N   UNN dAMED       4.369  -0.549  -0.626  0.00  0.00    -0.191 NA
ENDROOT
TORSDOF 0
