REMARK  2 active torsions:
REMARK  status: ('A' for Active; 'I' for Inactive)
REMARK    1  A    between atoms: C_7  and  CA_4 
REMARK    2  A    between atoms: CA_4  and  C_10 
ROOT
ATOM      1 CL   UNN dAMED      -4.021   0.035  -0.646  0.00  0.00    -0.061 Cl
ATOM      2  N   UNN dAMED      -2.096  -0.929   0.833  0.00  0.00    -0.121 NA
ATOM      3  O   UNN dAMED      -0.679  -0.875   1.064  0.00  0.00    -0.234 OA
ATOM      4  C   UNN dAMED      -2.418  -0.047  -0.065  0.00  0.00     0.175 A 
ATOM      5  C   UNN dAMED      -1.259   0.639  -0.680  0.00  0.00     0.236 A 
ATOM      6  C   UNN dAMED      -0.156   0.047   0.140  0.00  0.00     0.222 A 
ATOM      7  O   UNN dAMED      -1.281   1.985  -0.948  0.00  0.00    -0.213 OA
ENDROOT
BRANCH   6   8
ATOM      8  CA  UNN dAMED       1.260  -0.133  -0.435  0.00  0.00     0.452 C 
ATOM      9  N   UNN dAMED       1.149  -0.173  -1.884  0.00  0.00     0.620 N 
BRANCH   8  10
ATOM     10  C   UNN dAMED       2.132   1.032  -0.027  0.00  0.00     0.216 C 
ATOM     11  O   UNN dAMED       1.824   1.564   1.074  0.00  0.00    -0.646 OA
ATOM     12  OXT UNN dAMED       3.047   1.317  -0.847  0.00  0.00    -0.646 OA
ENDBRANCH   8  10
ENDBRANCH   6   8
TORSDOF 2
