REMARK  0 active torsions:
REMARK  status: ('A' for Active; 'I' for Inactive)
ROOT
ATOM      1  C   UNN dAMED       0.691   0.186   0.263  0.00  0.00     0.076 C 
ATOM      2  N   UNN dAMED       1.407   1.507  -0.181  0.00  0.00    -0.242 NA
ATOM      3  C   UNN dAMED       2.518   0.997  -0.949  0.00  0.00     0.079 C 
ATOM      4  C   UNN dAMED       3.449   0.003  -0.268  0.00  0.00     0.035 C 
ATOM      5  C   UNN dAMED       2.851  -0.723   0.928  0.00  0.00     0.079 C 
ATOM      6  N   UNN dAMED       1.445  -1.024   0.888  0.00  0.00    -0.242 NA
ATOM      7  C   UNN dAMED      -0.771   0.022  -0.068  0.00  0.00     0.024 A 
ATOM      8  C   UNN dAMED      -1.154  -0.517  -1.293  0.00  0.00     0.023 A 
ATOM      9  C   UNN dAMED      -2.509  -0.605  -1.564  0.00  0.00     0.099 A 
ATOM     10  N   UNN dAMED      -3.480  -0.200  -0.716  0.00  0.00    -0.242 NA
ATOM     11  C   UNN dAMED      -3.069   0.317   0.463  0.00  0.00     0.099 A 
ATOM     12  C   UNN dAMED      -1.741   0.448   0.834  0.00  0.00     0.023 A 
ATOM     13  C   UNN dAMED       0.195  -0.275   1.080  0.00  0.00     0.095 C 
ATOM     14  C   UNN dAMED       0.099   0.959   0.224  0.00  0.00     0.095 C 
ENDROOT
TORSDOF 0
