REMARK  8 active torsions:
REMARK  status: ('A' for Active; 'I' for Inactive)
REMARK    1  A    between atoms: O_2  and  C_14 
REMARK    2  A    between atoms: O_2  and  C_16 
REMARK    3  A    between atoms: C_7  and  C_21 
REMARK    4  A    between atoms: C_10  and  C_14 
REMARK    5  A    between atoms: C_16  and  C_17 
REMARK    6  A    between atoms: C_17  and  C_19 
REMARK    7  A    between atoms: C_19  and  O_20 
REMARK    8  A    between atoms: O_20  and  C_21 
ROOT
ATOM      1  C   UNN dAMED      -4.440   2.348  -3.527  0.00  0.00     0.212 C 
ATOM      2  O   UNN dAMED      -5.437   3.115  -2.991  0.00  0.00    -0.218 OA
ENDROOT
BRANCH   1   3
ATOM      3  C   UNN dAMED      -3.943   1.108  -2.770  0.00  0.00     0.188 C 
BRANCH   3   4
ATOM      4  O   UNN dAMED      -2.573   0.919  -2.571  0.00  0.00    -0.296 OA
BRANCH   4   5
ATOM      5  C   UNN dAMED      -2.465   0.054  -1.542  0.00  0.00     0.297 C 
ATOM      6  O   UNN dAMED      -1.457  -0.530  -1.189  0.00  0.00    -0.259 OA
BRANCH   5   7
ATOM      7  C   UNN dAMED      -3.756  -0.075  -0.885  0.00  0.00     0.082 A 
ATOM      8  C   UNN dAMED      -4.767  -0.815  -1.473  0.00  0.00     0.104 A 
ATOM      9  N   UNN dAMED      -5.971  -0.999  -0.894  0.00  0.00    -0.242 NA
ATOM     10  C   UNN dAMED      -6.146  -0.437   0.325  0.00  0.00     0.099 A 
ATOM     11  C   UNN dAMED      -5.182   0.304   0.993  0.00  0.00     0.021 A 
ATOM     12  C   UNN dAMED      -3.955   0.484   0.369  0.00  0.00     0.009 A 
ENDBRANCH   5   7
ENDBRANCH   4   5
ENDBRANCH   3   4
ENDBRANCH   1   3
BRANCH   1  13
ATOM     13  C   UNN dAMED      -3.851   2.717  -4.896  0.00  0.00     0.188 C 
BRANCH  13  14
ATOM     14  O   UNN dAMED      -2.605   2.223  -5.290  0.00  0.00    -0.296 OA
BRANCH  14  15
ATOM     15  C   UNN dAMED      -2.862   1.382  -6.313  0.00  0.00     0.297 C 
ATOM     16  O   UNN dAMED      -2.208   1.246  -7.331  0.00  0.00    -0.259 OA
BRANCH  15  17
ATOM     17  C   UNN dAMED      -4.045   0.602  -5.993  0.00  0.00     0.082 A 
ATOM     18  C   UNN dAMED      -3.909  -0.678  -5.476  0.00  0.00     0.009 A 
ATOM     19  C   UNN dAMED      -5.054  -1.429  -5.245  0.00  0.00     0.021 A 
ATOM     20  C   UNN dAMED      -6.278  -0.857  -5.561  0.00  0.00     0.099 A 
ATOM     21  N   UNN dAMED      -6.433   0.381  -6.085  0.00  0.00    -0.242 NA
ATOM     22  C   UNN dAMED      -5.303   1.088  -6.300  0.00  0.00     0.104 A 
ENDBRANCH  15  17
ENDBRANCH  14  15
ENDBRANCH  13  14
ENDBRANCH   1  13
TORSDOF 8
