REMARK  3 active torsions:
REMARK  status: ('A' for Active; 'I' for Inactive)
REMARK    1  A    between atoms: C_2  and  N_20 
REMARK    2  A    between atoms: C_8  and  N_20 
REMARK    3  A    between atoms: C_12  and  C_17 
ROOT
ATOM      1  C   UNN dAMED      -0.221  -0.782   0.238  0.00  0.00     0.019 A 
ATOM      2  C   UNN dAMED       0.087   0.587   0.126  0.00  0.00     0.087 A 
ATOM      3  C   UNN dAMED      -1.509  -1.278   0.043  0.00  0.00     0.002 A 
ATOM      4  C   UNN dAMED      -1.776  -2.642   0.166  0.00  0.00     0.000 A 
ATOM      5  C   UNN dAMED      -3.075  -3.118   0.002  0.00  0.00     0.000 A 
ATOM      6  C   UNN dAMED      -0.973   1.473  -0.185  0.00  0.00     0.082 A 
ATOM      7  C   UNN dAMED      -2.552  -0.386  -0.255  0.00  0.00     0.000 A 
ATOM      8  C   UNN dAMED      -4.111  -2.233  -0.286  0.00  0.00     0.000 A 
ATOM      9  C   UNN dAMED      -2.274   0.974  -0.368  0.00  0.00     0.008 A 
ATOM     10  C   UNN dAMED      -3.851  -0.870  -0.418  0.00  0.00     0.000 A 
ENDROOT
BRANCH   2  11
ATOM     11  N   UNN dAMED       1.333   0.997   0.454  0.00  0.00    -0.245 NA
BRANCH  11  12
ATOM     12  C   UNN dAMED       2.259   1.047  -0.532  0.00  0.00     0.081 A 
ATOM     13  C   UNN dAMED       2.094   0.559  -1.838  0.00  0.00     0.019 A 
ATOM     14  C   UNN dAMED       3.117   0.621  -2.784  0.00  0.00     0.002 A 
ATOM     15  C   UNN dAMED       4.346   1.173  -2.441  0.00  0.00     0.000 A 
ATOM     16  C   UNN dAMED       4.545   1.664  -1.157  0.00  0.00     0.002 A 
ATOM     17  C   UNN dAMED       3.511   1.597  -0.223  0.00  0.00     0.019 A 
ENDBRANCH  11  12
ENDBRANCH   2  11
BRANCH   6  18
ATOM     18  C   UNN dAMED      -0.786   2.956  -0.325  0.00  0.00     0.212 C 
ATOM     19  O   UNN dAMED      -0.155   3.553   0.601  0.00  0.00    -0.644 OA
ATOM     20  O   UNN dAMED      -1.300   3.496  -1.353  0.00  0.00    -0.644 OA
ENDBRANCH   6  18
TORSDOF 3
