REMARK  1 active torsions:
REMARK  status: ('A' for Active; 'I' for Inactive)
REMARK    1  A    between atoms: N_2  and  C_9 
ROOT
ATOM      1  N   UNN dAMED       0.207   1.251   0.575  0.00  0.00    -0.176 NA
ATOM      2  N   UNN dAMED       0.945   0.134   0.672  0.00  0.00    -0.155 NA
ATOM      3  C   UNN dAMED       0.311  -0.997   0.241  0.00  0.00     0.082 C 
ATOM      4  C   UNN dAMED      -0.999  -0.621   0.059  0.00  0.00     0.113 C 
ATOM      5  C   UNN dAMED      -1.000   0.762   0.286  0.00  0.00     0.175 C 
ATOM      6  C   UNN dAMED      -2.073  -1.462  -0.330  0.00  0.00     0.105 C 
ATOM      7  N   UNN dAMED      -2.953  -2.148  -0.647  0.00  0.00    -0.191 NA
ATOM      8  N   UNN dAMED      -2.144   1.585   0.106  0.00  0.00    -0.078 NA
ENDROOT
BRANCH   2   9
ATOM      9  C   UNN dAMED       2.132   0.311  -0.091  0.00  0.00     0.085 C 
ATOM     10  C   UNN dAMED       2.300   1.556  -0.968  0.00  0.00     0.020 C 
ATOM     11  C   UNN dAMED       3.278  -0.698   0.030  0.00  0.00     0.020 C 
ENDBRANCH   2   9
TORSDOF 1
