REMARK  3 active torsions:
REMARK  status: ('A' for Active; 'I' for Inactive)
REMARK    1  A    between atoms: C_9  and  C_18 
REMARK    2  A    between atoms: C_18  and  C_19 
REMARK    3  A    between atoms: C_19  and  C_20 
ROOT
ATOM      1  O   UNN dAMED      -4.156   0.152   0.480  0.00  0.00    -0.247 OA
ATOM      2  H   UNN dAMED      -2.405   0.747   2.167  0.00  0.00     0.173 HD
ATOM      3  N   UNN dAMED      -2.024   0.524   1.252  0.00  0.00    -0.278 N 
ATOM      4  N   UNN dAMED      -2.405  -0.026  -0.997  0.00  0.00    -0.278 N 
ATOM      5  O   UNN dAMED       0.083   1.018   2.024  0.00  0.00    -0.271 OA
ATOM      6  H   UNN dAMED      -3.069  -0.207  -1.746  0.00  0.00     0.173 HD
ATOM      7  O   UNN dAMED      -0.684  -0.122  -2.516  0.00  0.00    -0.271 OA
ATOM      8  C   UNN dAMED      -0.651   0.631   1.114  0.00  0.00     0.249 C 
ATOM      9  C   UNN dAMED      -0.099   0.231  -0.226  0.00  0.00     0.157 C 
ATOM     10  C   UNN dAMED      -1.069   0.012  -1.354  0.00  0.00     0.249 C 
ATOM     11  C   UNN dAMED       0.595  -1.074  -0.005  0.00  0.00    -0.032 C 
ATOM     12  C   UNN dAMED       1.386  -1.684  -1.141  0.00  0.00     0.023 C 
ATOM     13  C   UNN dAMED       2.186  -2.957  -0.866  0.00  0.00     0.005 C 
ATOM     14  C   UNN dAMED       1.482  -3.931   0.065  0.00  0.00     0.005 C 
ATOM     15  C   UNN dAMED       0.095  -1.909   0.915  0.00  0.00    -0.034 C 
ATOM     16  C   UNN dAMED       0.811  -3.229   1.238  0.00  0.00     0.025 C 
ATOM     17  C   UNN dAMED      -2.944   0.204   0.262  0.00  0.00     0.329 C 
ENDROOT
BRANCH   9  18
ATOM     18  C   UNN dAMED       0.933   1.275  -0.670  0.00  0.00     0.026 C 
BRANCH  18  19
ATOM     19  C   UNN dAMED       1.964   1.820   0.323  0.00  0.00     0.027 C 
BRANCH  19  20
ATOM     20  C   UNN dAMED       2.956   2.899  -0.123  0.00  0.00    -0.026 C 
ATOM     21  C   UNN dAMED       4.122   3.036   0.507  0.00  0.00    -0.005 C 
ENDBRANCH  19  20
ENDBRANCH  18  19
ENDBRANCH   9  18
TORSDOF 3
