REMARK  2 active torsions:
REMARK  status: ('A' for Active; 'I' for Inactive)
REMARK       I    between atoms: C_10  and  N_20 
REMARK       I    between atoms: C_10  and  N_21 
REMARK    1  A    between atoms: C_12  and  N_21 
REMARK    2  A    between atoms: C_16  and  S_17 
ROOT
ATOM      1  C   UNN dAMED      -6.023   0.160  -0.912  0.00  0.00    -0.003 A 
ATOM      2  C   UNN dAMED      -6.437   0.506   0.367  0.00  0.00     0.000 A 
ATOM      3  C   UNN dAMED      -4.665  -0.008  -1.195  0.00  0.00    -0.004 A 
ATOM      4  C   UNN dAMED      -5.510   0.690   1.393  0.00  0.00     0.008 A 
ATOM      5  C   UNN dAMED      -3.702   0.166  -0.179  0.00  0.00     0.086 A 
ATOM      6  C   UNN dAMED      -4.150   0.510   1.096  0.00  0.00     0.050 A 
ATOM      7  N   UNN dAMED      -2.319   0.038  -0.303  0.00  0.00    -0.221 NA
ATOM      8  S   UNN dAMED      -2.802   0.658   2.146  0.00  0.00    -0.047 SA
ATOM      9  C   UNN dAMED      -1.727   0.265   0.852  0.00  0.00     0.199 A 
ATOM     10  C   UNN dAMED       0.503  -0.244   0.317  0.00  0.00     0.370 C 
ATOM     11  O   UNN dAMED       0.285  -0.751  -0.782  0.00  0.00    -0.242 OA
ATOM     12  C   UNN dAMED      -4.238  -0.378  -2.586  0.00  0.00     0.033 C 
ATOM     13  N   UNN dAMED      -0.403   0.340   1.140  0.00  0.00    -0.166 NA
ATOM     14  N   UNN dAMED       1.715  -0.134   0.928  0.00  0.00    -0.191 NA
ENDROOT
BRANCH  14  15
ATOM     15  C   UNN dAMED       2.788  -0.560   0.232  0.00  0.00     0.087 A 
ATOM     16  C   UNN dAMED       3.451   0.279  -0.674  0.00  0.00     0.019 A 
ATOM     17  C   UNN dAMED       4.663  -0.089  -1.259  0.00  0.00     0.002 A 
ATOM     18  C   UNN dAMED       5.251  -1.304  -0.927  0.00  0.00     0.006 A 
ATOM     19  C   UNN dAMED       4.621  -2.157  -0.026  0.00  0.00     0.027 A 
ATOM     20  C   UNN dAMED       3.406  -1.779   0.550  0.00  0.00     0.025 A 
BRANCH  19  21
ATOM     21  S   UNN dAMED       5.371  -3.708   0.394  0.00  0.00    -0.113 SA
ATOM     22  C   UNN dAMED       6.308  -3.848  -1.126  0.00  0.00     0.074 C 
ENDBRANCH  19  21
ENDBRANCH  14  15
TORSDOF 2
