REMARK  2 active torsions:
REMARK  status: ('A' for Active; 'I' for Inactive)
REMARK    1  A    between atoms: C_6  and  N_11 
REMARK    2  A    between atoms: N_11  and  C_12 
ROOT
ATOM      1  O   UNN dAMED      -0.221  -1.394  -1.190  0.00  0.00    -0.290 OA
ATOM      2  C   UNN dAMED       1.788  -0.140  -0.560  0.00  0.00     0.057 C 
ATOM      3  C   UNN dAMED       1.727   1.416  -0.293  0.00  0.00     0.012 C 
ATOM      4  C   UNN dAMED       0.285  -0.341  -0.830  0.00  0.00     0.186 C 
ATOM      5  C   UNN dAMED       1.987  -0.627   0.881  0.00  0.00     0.008 C 
ATOM      6  C   UNN dAMED      -0.458   0.637   0.050  0.00  0.00     0.096 C 
ATOM      7  C   UNN dAMED       1.272   0.385   1.777  0.00  0.00     0.006 C 
ATOM      8  C   UNN dAMED       0.670   1.345   0.767  0.00  0.00     0.044 C 
ATOM      9  C   UNN dAMED       2.550  -0.396  -1.845  0.00  0.00     0.008 C 
ATOM     10  C   UNN dAMED       3.157   1.977  -0.413  0.00  0.00     0.001 C 
ATOM     11  C   UNN dAMED       1.880   2.138  -1.647  0.00  0.00     0.001 C 
ENDROOT
BRANCH   6  12
ATOM     12  N   UNN dAMED      -1.678   0.281   0.767  0.00  0.00    -0.218 NA
BRANCH  12  13
ATOM     13  C   UNN dAMED      -1.631  -0.317   1.954  0.00  0.00     0.242 C 
ATOM     14  S   UNN dAMED      -0.225  -0.558   2.835  0.00  0.00    -0.035 SA
ATOM     15  N   UNN dAMED      -2.830  -0.705   2.378  0.00  0.00    -0.096 NA
ATOM     16  N   UNN dAMED      -4.024  -0.171   1.749  0.00  0.00    -0.020 N 
ENDBRANCH  12  13
ENDBRANCH   6  12
TORSDOF 2
