REMARK  3 active torsions:
REMARK  status: ('A' for Active; 'I' for Inactive)
REMARK    1  A    between atoms: C_7  and  C_18 
REMARK    2  A    between atoms: C_15  and  S_17 
REMARK    3  A    between atoms: S_17  and  C_18 
ROOT
ATOM      1  N   UNN dAMED      -4.515  -1.521  -0.337  0.00  0.00    -0.221 NA
ATOM      2  N   UNN dAMED      -4.405   0.729   0.591  0.00  0.00    -0.203 NA
ATOM      3  H   UNN dAMED      -0.421  -0.573  -0.852  0.00  0.00     0.168 HD
ATOM      4  N   UNN dAMED      -1.161  -0.022  -0.438  0.00  0.00    -0.330 N 
ATOM      5  N   UNN dAMED      -2.180   1.707   0.541  0.00  0.00    -0.202 NA
ATOM      6  C   UNN dAMED      -3.189  -1.529  -0.630  0.00  0.00     0.121 A 
ATOM      7  C   UNN dAMED      -2.471  -0.391  -0.302  0.00  0.00     0.114 A 
ATOM      8  C   UNN dAMED      -3.083   0.702   0.298  0.00  0.00     0.183 A 
ATOM      9  C   UNN dAMED      -1.039   1.232   0.094  0.00  0.00     0.170 A 
ATOM     10  C   UNN dAMED      -5.033  -0.412   0.242  0.00  0.00     0.201 A 
ENDROOT
BRANCH   9  11
ATOM     11  S   UNN dAMED       0.493   2.023   0.110  0.00  0.00    -0.073 SA
BRANCH  11  12
ATOM     12  C   UNN dAMED       0.485   2.371   1.873  0.00  0.00     0.091 C 
BRANCH  12  13
ATOM     13  C   UNN dAMED       1.748   2.252   2.685  0.00  0.00    -0.011 A 
ATOM     14  C   UNN dAMED       2.595   3.350   2.824  0.00  0.00    -0.003 A 
ATOM     15  C   UNN dAMED       3.820   3.208   3.472  0.00  0.00    -0.000 A 
ATOM     16  C   UNN dAMED       4.198   1.969   3.983  0.00  0.00    -0.000 A 
ATOM     17  C   UNN dAMED       3.346   0.875   3.859  0.00  0.00    -0.000 A 
ATOM     18  C   UNN dAMED       2.121   1.016   3.213  0.00  0.00    -0.003 A 
ENDBRANCH  12  13
ENDBRANCH  11  12
ENDBRANCH   9  11
TORSDOF 3
