REMARK  8 active torsions:
REMARK  status: ('A' for Active; 'I' for Inactive)
REMARK    1  A    between atoms: C_1  and  C_10 
REMARK    2  A    between atoms: C_3  and  O_13 
REMARK    3  A    between atoms: C_4  and  C_16 
REMARK    4  A    between atoms: C_5  and  C_7 
REMARK    5  A    between atoms: C_7  and  C_8 
REMARK    6  A    between atoms: C_10  and  C_11 
REMARK    7  A    between atoms: O_13  and  C_14 
REMARK    8  A    between atoms: C_14  and  C_15 
ROOT
ATOM      1  C   UNN dAMED      -0.868  -1.221  -0.090  0.00  0.00    -0.000 A 
ATOM      2  C   UNN dAMED      -1.799  -0.191  -0.211  0.00  0.00    -0.007 A 
ATOM      3  C   UNN dAMED       0.472  -0.915   0.100  0.00  0.00     0.095 A 
ATOM      4  C   UNN dAMED       0.875   0.413   0.190  0.00  0.00     0.074 A 
ATOM      5  C   UNN dAMED      -1.388   1.140  -0.145  0.00  0.00    -0.022 A 
ATOM      6  C   UNN dAMED      -0.044   1.451   0.059  0.00  0.00     0.002 A 
ENDROOT
BRANCH   3   7
ATOM      7  O   UNN dAMED       1.374  -1.929   0.217  0.00  0.00    -0.326 OA
BRANCH   7   8
ATOM      8  C   UNN dAMED       0.881  -2.955  -0.591  0.00  0.00     0.175 C 
BRANCH   8   9
ATOM      9  C   UNN dAMED      -0.304  -3.797  -0.114  0.00  0.00     0.006 C 
ATOM     10  C   UNN dAMED      -0.742  -4.806  -0.863  0.00  0.00    -0.002 C 
ENDBRANCH   8   9
ENDBRANCH   7   8
ENDBRANCH   3   7
BRANCH   1  11
ATOM     11  C   UNN dAMED      -1.339  -2.645  -0.068  0.00  0.00     0.028 C 
BRANCH  11  12
ATOM     12  C   UNN dAMED      -2.712  -2.968   0.529  0.00  0.00     0.005 C 
ATOM     13  C   UNN dAMED      -3.063  -2.504   1.947  0.00  0.00     0.000 C 
ENDBRANCH  11  12
ENDBRANCH   1  11
BRANCH   4  14
ATOM     14  C   UNN dAMED       2.277   0.751   0.423  0.00  0.00     0.268 C 
ATOM     15  O   UNN dAMED       2.736   0.680   1.555  0.00  0.00    -0.271 OA
ATOM     16  N   UNN dAMED       3.170   0.775  -0.685  0.00  0.00    -0.057 NA
ENDBRANCH   4  14
BRANCH   5  17
ATOM     17  C   UNN dAMED      -2.404   2.233  -0.304  0.00  0.00     0.026 C 
BRANCH  17  18
ATOM     18  C   UNN dAMED      -2.222   3.565   0.427  0.00  0.00     0.005 C 
ATOM     19  C   UNN dAMED      -1.419   4.689  -0.234  0.00  0.00     0.000 C 
ENDBRANCH  17  18
ENDBRANCH   5  17
TORSDOF 8
