REMARK  2 active torsions:
REMARK  status: ('A' for Active; 'I' for Inactive)
REMARK    1  A    between atoms: C_4  and  O_16 
REMARK    2  A    between atoms: S_13  and  O_16 
ROOT
ATOM      1  O   UNN dAMED       2.038   1.608  -0.604  0.00  0.00    -0.273 OA
ATOM      2  O   UNN dAMED       4.279   1.787  -1.003  0.00  0.00    -0.259 OA
ATOM      3  C   UNN dAMED      -0.249   1.240  -0.124  0.00  0.00     0.050 A 
ATOM      4  C   UNN dAMED      -1.297   0.415   0.274  0.00  0.00     0.115 A 
ATOM      5  C   UNN dAMED       1.039   0.711  -0.201  0.00  0.00     0.105 A 
ATOM      6  C   UNN dAMED       1.272  -0.626   0.125  0.00  0.00     0.019 A 
ATOM      7  C   UNN dAMED      -1.074  -0.916   0.617  0.00  0.00     0.026 A 
ATOM      8  C   UNN dAMED       2.615  -1.163   0.064  0.00  0.00    -0.015 A 
ATOM      9  C   UNN dAMED       3.327   1.092  -0.669  0.00  0.00     0.300 A 
ATOM     10  C   UNN dAMED       3.601  -0.343  -0.287  0.00  0.00     0.065 A 
ATOM     11  C   UNN dAMED       0.215  -1.439   0.530  0.00  0.00     0.004 A 
ATOM     12  C   UNN dAMED       2.874  -2.589   0.453  0.00  0.00     0.031 C 
ENDROOT
BRANCH   4  13
ATOM     13  O   UNN dAMED      -2.544   0.954   0.429  0.00  0.00    -0.230 OA
BRANCH  13  14
ATOM     14  S   UNN dAMED      -3.608   0.682  -0.783  0.00  0.00     0.285 S 
ATOM     15  C   UNN dAMED      -2.866  -0.488  -1.917  0.00  0.00     0.172 C 
ATOM     16  O   UNN dAMED      -4.769   0.044  -0.187  0.00  0.00    -0.197 OA
ATOM     17  O   UNN dAMED      -3.775   1.940  -1.490  0.00  0.00    -0.197 OA
ENDBRANCH  13  14
ENDBRANCH   4  13
TORSDOF 2
