REMARK  2 active torsions:
REMARK  status: ('A' for Active; 'I' for Inactive)
REMARK    1  A    between atoms: C_9  and  S_13 
REMARK    2  A    between atoms: S_13  and  C_14 
ROOT
ATOM      1  N   UNN dAMED       2.766   0.210   0.008  0.00  0.00    -0.231 NA
ATOM      2  N   UNN dAMED       1.130   1.820   0.212  0.00  0.00    -0.195 NA
ATOM      3  N   UNN dAMED      -1.195   1.269   0.160  0.00  0.00    -0.208 NA
ATOM      4  C   UNN dAMED       3.128  -1.086  -0.150  0.00  0.00     0.061 A 
ATOM      5  C   UNN dAMED       2.223  -2.119  -0.270  0.00  0.00     0.011 A 
ATOM      6  C   UNN dAMED       0.881  -1.784  -0.221  0.00  0.00    -0.016 A 
ATOM      7  C   UNN dAMED       1.467   0.537   0.055  0.00  0.00     0.166 A 
ATOM      8  C   UNN dAMED       0.480  -0.447  -0.057  0.00  0.00     0.056 A 
ATOM      9  C   UNN dAMED      -0.853  -0.024   0.003  0.00  0.00     0.112 A 
ATOM     10  C   UNN dAMED      -0.180   2.142   0.258  0.00  0.00     0.239 A 
ATOM     11  C   UNN dAMED       4.596  -1.412  -0.197  0.00  0.00     0.052 C 
ATOM     12  C   UNN dAMED      -0.160  -2.859  -0.349  0.00  0.00     0.031 C 
ATOM     13  N   UNN dAMED      -0.512   3.518   0.425  0.00  0.00    -0.060 NA
ENDROOT
BRANCH   9  14
ATOM     14  S   UNN dAMED      -2.229  -1.153  -0.119  0.00  0.00    -0.096 SA
BRANCH  14  15
ATOM     15  C   UNN dAMED      -3.459   0.147  -0.091  0.00  0.00     0.053 C 
ATOM     16  C   UNN dAMED      -3.146   1.491  -0.755  0.00  0.00     0.012 C 
ATOM     17  C   UNN dAMED      -4.898  -0.173   0.327  0.00  0.00     0.012 C 
ENDBRANCH  14  15
ENDBRANCH   9  14
TORSDOF 2
