REMARK  4 active torsions:
REMARK  status: ('A' for Active; 'I' for Inactive)
REMARK    1  A    between atoms: C_2  and  O_19 
REMARK    2  A    between atoms: S_10  and  C_11 
REMARK    3  A    between atoms: S_10  and  N_22 
REMARK    4  A    between atoms: O_19  and  C_20 
ROOT
ATOM      1  C   UNN dAMED      -4.608   1.220   0.529  0.00  0.00     0.025 A 
ATOM      2  C   UNN dAMED      -4.670   0.112  -0.300  0.00  0.00     0.096 A 
ATOM      3  C   UNN dAMED      -3.559  -0.695  -0.539  0.00  0.00     0.044 A 
ATOM      4  C   UNN dAMED      -2.336  -0.360   0.077  0.00  0.00     0.091 A 
ATOM      5  C   UNN dAMED      -2.287   0.758   0.910  0.00  0.00     0.050 A 
ATOM      6  C   UNN dAMED      -3.411   1.561   1.157  0.00  0.00     0.010 A 
ATOM      7  N   UNN dAMED      -1.136  -1.042  -0.061  0.00  0.00    -0.220 NA
ATOM      8  C   UNN dAMED      -0.188  -0.442   0.628  0.00  0.00     0.206 A 
ATOM      9  S   UNN dAMED      -0.692   0.935   1.527  0.00  0.00    -0.046 SA
ATOM     10  N   UNN dAMED       1.087  -0.872   0.760  0.00  0.00    -0.132 NA
ENDROOT
BRANCH  10  11
ATOM     11  S   UNN dAMED       1.922  -0.603  -0.578  0.00  0.00     0.287 S 
ATOM     12  O   UNN dAMED       1.636   0.652  -1.275  0.00  0.00    -0.198 OA
ATOM     13  O   UNN dAMED       2.075  -1.770  -1.442  0.00  0.00    -0.198 OA
BRANCH  11  14
ATOM     14  C   UNN dAMED       3.617  -0.347  -0.039  0.00  0.00     0.105 A 
ATOM     15  C   UNN dAMED       4.451   0.501  -0.763  0.00  0.00     0.014 A 
ATOM     16  C   UNN dAMED       5.740   0.736  -0.292  0.00  0.00     0.015 A 
ATOM     17  C   UNN dAMED       6.178   0.126   0.884  0.00  0.00     0.070 A 
ATOM     18  C   UNN dAMED       5.337  -0.736   1.587  0.00  0.00     0.015 A 
ATOM     19  N   UNN dAMED       7.487   0.389   1.376  0.00  0.00    -0.101 NA
ATOM     20  C   UNN dAMED       4.049  -0.980   1.123  0.00  0.00     0.014 A 
ENDBRANCH  11  14
ENDBRANCH  10  11
BRANCH   2  21
ATOM     21  O   UNN dAMED      -5.855  -0.190  -0.906  0.00  0.00    -0.331 OA
BRANCH  21  22
ATOM     22  C   UNN dAMED      -5.540  -1.159  -1.861  0.00  0.00     0.149 C 
ATOM     23  C   UNN dAMED      -5.016  -2.528  -1.417  0.00  0.00     0.035 C 
ENDBRANCH  21  22
ENDBRANCH   2  21
TORSDOF 4
