REMARK  4 active torsions:
REMARK  status: ('A' for Active; 'I' for Inactive)
REMARK    1  A    between atoms: O_1  and  C_2 
REMARK    2  A    between atoms: O_1  and  C_19 
REMARK    3  A    between atoms: C_18  and  N_22 
REMARK    4  A    between atoms: C_19  and  C_20 
ROOT
ATOM      1  C   UNN dAMED      -4.697  -0.517  -0.269  0.00  0.00     0.094 A 
ATOM      2  C   UNN dAMED      -3.761   0.327   0.314  0.00  0.00     0.024 A 
ATOM      3  C   UNN dAMED      -4.312  -1.599  -1.051  0.00  0.00     0.024 A 
ATOM      4  C   UNN dAMED      -2.406   0.080   0.108  0.00  0.00     0.004 A 
ATOM      5  C   UNN dAMED      -2.956  -1.846  -1.248  0.00  0.00     0.004 A 
ATOM      6  C   UNN dAMED      -1.999  -1.005  -0.674  0.00  0.00     0.024 A 
ATOM      7  C   UNN dAMED      -0.583  -1.271  -0.849  0.00  0.00     0.111 A 
ATOM      8  S   UNN dAMED       0.178  -0.838  -2.334  0.00  0.00    -0.066 SA
ATOM      9  N   UNN dAMED       0.203  -1.809   0.062  0.00  0.00    -0.239 NA
ATOM     10  C   UNN dAMED       1.653  -1.414  -1.716  0.00  0.00     0.056 A 
ATOM     11  C   UNN dAMED       1.493  -1.881  -0.433  0.00  0.00     0.088 A 
ATOM     12  C   UNN dAMED       2.579  -2.433   0.337  0.00  0.00     0.018 A 
ATOM     13  C   UNN dAMED       2.656  -3.815   0.524  0.00  0.00     0.003 A 
ATOM     14  C   UNN dAMED       3.537  -1.591   0.909  0.00  0.00     0.003 A 
ATOM     15  C   UNN dAMED       4.573  -2.129   1.669  0.00  0.00     0.024 A 
ATOM     16  C   UNN dAMED       3.690  -4.361   1.279  0.00  0.00     0.024 A 
ATOM     17  C   UNN dAMED       4.636  -3.510   1.845  0.00  0.00     0.127 A 
ENDROOT
BRANCH   1  18
ATOM     18  O   UNN dAMED      -6.025  -0.282  -0.073  0.00  0.00    -0.331 OA
BRANCH  18  19
ATOM     19  C   UNN dAMED      -6.237   1.024  -0.522  0.00  0.00     0.149 C 
BRANCH  19  20
ATOM     20  C   UNN dAMED      -5.093   1.807  -1.175  0.00  0.00     0.033 C 
ATOM     21  C   UNN dAMED      -4.946   1.821  -2.700  0.00  0.00     0.003 C 
ENDBRANCH  19  20
ENDBRANCH  18  19
ENDBRANCH   1  18
BRANCH  17  22
ATOM     22  N   UNN dAMED       5.714  -4.076   2.635  0.00  0.00    -0.114 N 
ATOM     23  O   UNN dAMED       5.612  -5.262   2.979  0.00  0.00    -0.532 OA
ATOM     24  O   UNN dAMED       6.669  -3.339   2.916  0.00  0.00    -0.532 OA
ENDBRANCH  17  22
TORSDOF 4
