REMARK  3 active torsions:
REMARK  status: ('A' for Active; 'I' for Inactive)
REMARK    1  A    between atoms: C_6  and  AS_21 
REMARK    2  A    between atoms: C_10  and  N_18 
REMARK    3  A    between atoms: C_12  and  AS_15 
ROOT
ATOM      1  C   UNN dAMED       1.943   0.783   0.793  0.00  0.00     0.000 A 
ATOM      2  C   UNN dAMED       3.333   0.875   0.720  0.00  0.00     0.000 A 
ATOM      3  C   UNN dAMED       1.237  -0.108  -0.022  0.00  0.00     0.000 A 
ATOM      4  C   UNN dAMED       4.041   0.064  -0.159  0.00  0.00     0.000 A 
ATOM      5  C   UNN dAMED       1.962  -0.894  -0.926  0.00  0.00     0.000 A 
ATOM      6  C   UNN dAMED      -0.212  -0.254   0.090  0.00  0.00     0.002 A 
ATOM      7  C   UNN dAMED      -1.066   0.846  -0.023  0.00  0.00     0.024 A 
ATOM      8  C   UNN dAMED      -2.443   0.643   0.045  0.00  0.00     0.127 A 
ATOM      9  C   UNN dAMED      -0.784  -1.521   0.289  0.00  0.00     0.000 A 
ATOM     10  C   UNN dAMED      -3.023  -0.606   0.200  0.00  0.00     0.024 A 
ATOM     11  C   UNN dAMED       3.352  -0.818  -0.991  0.00  0.00     0.000 A 
ATOM     12  C   UNN dAMED      -2.170  -1.699   0.334  0.00  0.00     0.002 A 
ENDROOT
BRANCH   8  13
ATOM     13  N   UNN dAMED      -3.301   1.786  -0.062  0.00  0.00    -0.114 N 
ATOM     14  O   UNN dAMED      -3.615   2.145  -1.204  0.00  0.00    -0.532 OA
ATOM     15  O   UNN dAMED      -3.659   2.318   0.996  0.00  0.00    -0.532 OA
ENDBRANCH   8  13
BRANCH  10  16
ATOM     16 AS   UNN dAMED      -4.908  -0.969   0.158  0.00  0.00     0.000 As
ATOM     17  O   UNN dAMED      -5.545  -0.360  -1.164  0.00  0.00     0.000 OA
ATOM     18  O   UNN dAMED      -5.201  -2.704   0.179  0.00  0.00     0.000 OA
ATOM     19  O   UNN dAMED      -5.679  -0.240   1.561  0.00  0.00     0.000 OA
ENDBRANCH  10  16
BRANCH   4  20
ATOM     20 AS   UNN dAMED       5.956  -0.045  -0.175  0.00  0.00     0.000 As
ATOM     21  O   UNN dAMED       6.513   0.115   1.305  0.00  0.00     0.000 OA
ATOM     22  O   UNN dAMED       6.608   1.241  -1.184  0.00  0.00     0.000 OA
ATOM     23  O   UNN dAMED       6.472  -1.601  -0.816  0.00  0.00     0.000 OA
ENDBRANCH   4  20
TORSDOF 3
