REMARK  10 active torsions:
REMARK  status: ('A' for Active; 'I' for Inactive)
REMARK    1  A    between atoms: C_7  and  C_25 
REMARK    2  A    between atoms: C_8  and  O_21 
REMARK    3  A    between atoms: C_9  and  O_17 
REMARK    4  A    between atoms: C_10  and  C_12 
REMARK    5  A    between atoms: C_12  and  O_13 
REMARK    6  A    between atoms: O_13  and  C_14 
REMARK    7  A    between atoms: O_17  and  C_18 
REMARK    8  A    between atoms: O_21  and  C_22 
REMARK    9  A    between atoms: C_25  and  O_26 
REMARK   10  A    between atoms: O_26  and  C_27 
ROOT
ATOM      1  O   UNN dAMED      -0.128   0.955  -1.081  0.00  0.00    -0.347 OA
ATOM      2  C   UNN dAMED       3.180   0.943  -0.445  0.00  0.00    -0.002 A 
ATOM      3  C   UNN dAMED       4.401   0.731  -1.080  0.00  0.00    -0.004 A 
ATOM      4  C   UNN dAMED       2.086   0.137  -0.754  0.00  0.00     0.007 A 
ATOM      5  C   UNN dAMED       4.527  -0.286  -2.024  0.00  0.00    -0.022 A 
ATOM      6  C   UNN dAMED       2.221  -0.889  -1.691  0.00  0.00    -0.002 A 
ATOM      7  C   UNN dAMED       0.771   0.383  -0.094  0.00  0.00     0.167 C 
ATOM      8  C   UNN dAMED       0.132  -0.933   0.368  0.00  0.00     0.185 C 
ATOM      9  C   UNN dAMED      -1.332  -0.853   0.066  0.00  0.00     0.184 C 
ATOM     10  C   UNN dAMED      -1.388   0.370  -0.831  0.00  0.00     0.176 C 
ATOM     11  C   UNN dAMED       3.440  -1.100  -2.328  0.00  0.00    -0.004 A 
ATOM     12  C   UNN dAMED       5.792  -0.404  -2.825  0.00  0.00     0.031 C 
ENDROOT
BRANCH   7  13
ATOM     13  C   UNN dAMED       0.926   1.426   1.030  0.00  0.00     0.186 C 
BRANCH  13  14
ATOM     14  O   UNN dAMED       0.192   1.394   2.231  0.00  0.00    -0.299 OA
BRANCH  14  15
ATOM     15  C   UNN dAMED      -1.117   1.219   1.901  0.00  0.00     0.273 C 
ATOM     16  O   UNN dAMED      -1.977   2.068   2.098  0.00  0.00    -0.264 OA
ATOM     17  C   UNN dAMED      -1.550  -0.148   1.449  0.00  0.00     0.106 C 
ENDBRANCH  14  15
ENDBRANCH  13  14
ENDBRANCH   7  13
BRANCH   8  18
ATOM     18  O   UNN dAMED       0.754  -1.963   1.094  0.00  0.00    -0.299 OA
BRANCH  18  19
ATOM     19  C   UNN dAMED       0.711  -1.584   2.396  0.00  0.00     0.273 C 
ATOM     20  O   UNN dAMED       0.028  -2.154   3.236  0.00  0.00    -0.264 OA
ATOM     21  C   UNN dAMED       1.559  -0.417   2.820  0.00  0.00     0.106 C 
ENDBRANCH  18  19
ENDBRANCH   8  18
BRANCH  10  22
ATOM     22  C   UNN dAMED      -2.660   1.211  -0.963  0.00  0.00     0.184 C 
BRANCH  22  23
ATOM     23  O   UNN dAMED      -3.891   0.595  -1.185  0.00  0.00    -0.299 OA
BRANCH  23  24
ATOM     24  C   UNN dAMED      -4.798   1.413  -0.589  0.00  0.00     0.273 C 
ATOM     25  O   UNN dAMED      -5.967   1.095  -0.422  0.00  0.00    -0.264 OA
ATOM     26  C   UNN dAMED      -4.345   2.769  -0.123  0.00  0.00     0.106 C 
ENDBRANCH  23  24
ENDBRANCH  22  23
ENDBRANCH  10  22
BRANCH   9  27
ATOM     27  O   UNN dAMED      -2.058  -2.000  -0.262  0.00  0.00    -0.299 OA
BRANCH  27  28
ATOM     28  C   UNN dAMED      -2.874  -2.222   0.803  0.00  0.00     0.273 C 
ATOM     29  O   UNN dAMED      -3.845  -2.963   0.744  0.00  0.00    -0.264 OA
ATOM     30  C   UNN dAMED      -2.613  -1.488   2.090  0.00  0.00     0.106 C 
ENDBRANCH  27  28
ENDBRANCH   9  27
TORSDOF 10
