REMARK  3 active torsions:
REMARK  status: ('A' for Active; 'I' for Inactive)
REMARK    1  A    between atoms: C_7  and  N_22 
REMARK    2  A    between atoms: C_13  and  C_18 
REMARK    3  A    between atoms: C_19  and  C_20 
REMARK       I    between atoms: C_20  and  N_22 
ROOT
ATOM      1  N   UNN dAMED       4.521   1.192   0.907  0.00  0.00    -0.250 NA
ATOM      2  C   UNN dAMED       2.298   0.988   1.720  0.00  0.00     0.021 A 
ATOM      3  C   UNN dAMED       1.002   0.471   1.614  0.00  0.00     0.021 A 
ATOM      4  C   UNN dAMED       3.282   0.671   0.800  0.00  0.00     0.082 A 
ATOM      5  C   UNN dAMED       2.927  -0.204  -0.239  0.00  0.00     0.032 A 
ATOM      6  C   UNN dAMED       0.624  -0.389   0.578  0.00  0.00     0.085 A 
ATOM      7  C   UNN dAMED       1.629  -0.731  -0.335  0.00  0.00     0.022 A 
ATOM      8  C   UNN dAMED       3.900  -0.535  -1.175  0.00  0.00     0.073 A 
ATOM      9  C   UNN dAMED       5.444   0.855  -0.026  0.00  0.00     0.060 A 
ATOM     10  C   UNN dAMED       5.179  -0.003  -1.078  0.00  0.00     0.029 A 
ATOM     11  N   UNN dAMED       3.579  -1.416  -2.245  0.00  0.00    -0.100 NA
ATOM     12  C   UNN dAMED       6.822   1.454   0.077  0.00  0.00     0.052 C 
ENDROOT
BRANCH   6  13
ATOM     13  N   UNN dAMED      -0.605  -0.941   0.617  0.00  0.00    -0.208 NA
ATOM     14  C   UNN dAMED      -1.158  -1.197  -0.565  0.00  0.00     0.279 C 
ATOM     15  O   UNN dAMED      -2.251  -1.726  -0.729  0.00  0.00    -0.265 OA
BRANCH  14  16
ATOM     16  C   UNN dAMED      -0.318  -0.993  -1.801  0.00  0.00     0.063 C 
ATOM     17  C   UNN dAMED      -0.869  -0.521  -2.921  0.00  0.00     0.006 C 
BRANCH  17  18
ATOM     18  C   UNN dAMED      -1.515  -1.448  -3.917  0.00  0.00     0.011 A 
ATOM     19  C   UNN dAMED      -2.891  -1.665  -3.881  0.00  0.00     0.001 A 
ATOM     20  C   UNN dAMED      -3.476  -2.573  -4.760  0.00  0.00     0.000 A 
ATOM     21  C   UNN dAMED      -2.687  -3.257  -5.683  0.00  0.00     0.001 A 
ATOM     22  C   UNN dAMED      -1.312  -3.035  -5.727  0.00  0.00     0.011 A 
ATOM     23  C   UNN dAMED      -0.734  -2.132  -4.841  0.00  0.00     0.058 A 
ATOM     24 CL   UNN dAMED       0.961  -1.868  -4.878  0.00  0.00    -0.082 Cl
ENDBRANCH  17  18
ENDBRANCH  14  16
ENDBRANCH   6  13
TORSDOF 3
