REMARK  1 active torsions:
REMARK  status: ('A' for Active; 'I' for Inactive)
REMARK    1  A    between atoms: N_5  and  C_12 
ROOT
ATOM      1 BR   UNN dAMED      -3.032   1.735   0.190  0.00  0.00    -0.043 Br
ATOM      2  N   UNN dAMED      -0.608  -1.530  -0.372  0.00  0.00    -0.309 N 
ATOM      3  O   UNN dAMED       0.022   2.370   0.438  0.00  0.00    -0.266 OA
ATOM      4  H   UNN dAMED      -0.784  -2.483  -0.674  0.00  0.00     0.170 HD
ATOM      5  N   UNN dAMED       0.781   0.193   0.303  0.00  0.00    -0.235 N 
ATOM      6  O   UNN dAMED       1.681  -1.847  -0.308  0.00  0.00    -0.246 OA
ATOM      7  C   UNN dAMED      -0.195   1.171   0.307  0.00  0.00     0.275 C 
ATOM      8  C   UNN dAMED      -1.559   0.609   0.076  0.00  0.00     0.103 C 
ATOM      9  C   UNN dAMED      -1.687  -0.686  -0.253  0.00  0.00     0.049 C 
ATOM     10  C   UNN dAMED       0.702  -1.125  -0.131  0.00  0.00     0.334 C 
ATOM     11  C   UNN dAMED      -3.062  -1.225  -0.536  0.00  0.00     0.051 C 
ENDROOT
BRANCH   5  12
ATOM     12  C   UNN dAMED       2.086   0.732   0.157  0.00  0.00     0.027 C 
ATOM     13  C   UNN dAMED       2.316   1.891  -0.817  0.00  0.00     0.046 C 
ATOM     14  C   UNN dAMED       3.290  -0.050   0.691  0.00  0.00     0.046 C 
ENDBRANCH   5  12
TORSDOF 1
