REMARK  3 active torsions:
REMARK  status: ('A' for Active; 'I' for Inactive)
REMARK    1  A    between atoms: C_8  and  C_12 
REMARK    2  A    between atoms: C_12  and  C_13 
REMARK    3  A    between atoms: C_13  and  C_14 
ROOT
ATOM      1  S   UNN dAMED      -3.947   0.211   1.113  0.00  0.00    -0.040 SA
ATOM      2  H   UNN dAMED      -2.838   1.011  -1.316  0.00  0.00     0.171 HD
ATOM      3  N   UNN dAMED      -2.074   0.653  -0.749  0.00  0.00    -0.300 N 
ATOM      4  N   UNN dAMED      -1.325  -0.287   1.261  0.00  0.00    -0.335 N 
ATOM      5  O   UNN dAMED      -0.540   1.083  -2.432  0.00  0.00    -0.267 OA
ATOM      6  H   UNN dAMED      -1.488  -0.639   2.199  0.00  0.00     0.168 HD
ATOM      7  C   UNN dAMED      -0.804   0.669  -1.307  0.00  0.00     0.256 A 
ATOM      8  C   UNN dAMED       0.269   0.136  -0.433  0.00  0.00     0.045 A 
ATOM      9  C   UNN dAMED      -0.038  -0.310   0.789  0.00  0.00     0.036 A 
ATOM     10  C   UNN dAMED      -2.385   0.190   0.521  0.00  0.00     0.178 A 
ATOM     11  C   UNN dAMED       1.055  -0.844   1.671  0.00  0.00     0.050 C 
ENDROOT
BRANCH   8  12
ATOM     12  C   UNN dAMED       1.689   0.105  -0.918  0.00  0.00     0.032 C 
BRANCH  12  13
ATOM     13  C   UNN dAMED       2.549   1.371  -0.849  0.00  0.00     0.005 C 
BRANCH  13  14
ATOM     14  C   UNN dAMED       4.073   1.268  -0.963  0.00  0.00     0.000 C 
ATOM     15  C   UNN dAMED       4.918   2.537  -1.113  0.00  0.00     0.000 C 
ENDBRANCH  13  14
ENDBRANCH  12  13
ENDBRANCH   8  12
TORSDOF 3
