REMARK  3 active torsions:
REMARK  status: ('A' for Active; 'I' for Inactive)
REMARK    1  A    between atoms: C_4  and  N_13 
REMARK    2  A    between atoms: C_5  and  C_16 
REMARK    3  A    between atoms: C_8  and  C_17 
ROOT
ATOM      1  N   UNN dAMED      -3.712  -0.327   0.569  0.00  0.00    -0.202 NA
ATOM      2  N   UNN dAMED      -1.792  -1.021   1.486  0.00  0.00    -0.334 N 
ATOM      3  H   UNN dAMED      -1.153  -1.405   2.170  0.00  0.00     0.168 HD
ATOM      4  C   UNN dAMED      -2.650  -0.011  -0.228  0.00  0.00     0.225 A 
ATOM      5  C   UNN dAMED      -1.470  -0.443   0.298  0.00  0.00     0.099 A 
ATOM      6  C   UNN dAMED      -3.162  -0.945   1.600  0.00  0.00     0.177 A 
ENDROOT
BRANCH   5   7
ATOM      7  C   UNN dAMED      -0.098  -0.042  -0.139  0.00  0.00     0.020 C 
ATOM      8  C   UNN dAMED       0.220  -0.068  -1.431  0.00  0.00     0.002 C 
BRANCH   8   9
ATOM      9  C   UNN dAMED       1.628   0.221  -1.867  0.00  0.00     0.000 A 
ATOM     10  C   UNN dAMED       2.052  -0.193  -3.127  0.00  0.00     0.000 A 
ATOM     11  C   UNN dAMED       3.281   0.234  -3.624  0.00  0.00     0.000 A 
ATOM     12  C   UNN dAMED       4.085   1.078  -2.861  0.00  0.00     0.000 A 
ATOM     13  C   UNN dAMED       3.664   1.485  -1.597  0.00  0.00     0.000 A 
ATOM     14  C   UNN dAMED       2.435   1.058  -1.100  0.00  0.00     0.000 A 
ENDBRANCH   8   9
ENDBRANCH   5   7
BRANCH   4  15
ATOM     15  N   UNN dAMED      -2.853   0.740  -1.402  0.00  0.00    -0.093 N 
ATOM     16  O   UNN dAMED      -2.812   0.120  -2.470  0.00  0.00    -0.530 OA
ATOM     17  O   UNN dAMED      -3.044   1.951  -1.253  0.00  0.00    -0.530 OA
ENDBRANCH   4  15
TORSDOF 3
