REMARK  2 active torsions:
REMARK  status: ('A' for Active; 'I' for Inactive)
REMARK    1  A    between atoms: C_5  and  O_11 
REMARK    2  A    between atoms: C_8  and  O_14 
ROOT
ATOM      1  O   UNN dAMED       0.893  -2.769  -0.151  0.00  0.00    -0.322 OA
ATOM      2  O   UNN dAMED       3.357  -0.232  -0.351  0.00  0.00    -0.288 OA
ATOM      3  C   UNN dAMED      -1.166  -1.500   0.086  0.00  0.00     0.052 A 
ATOM      4  C   UNN dAMED       0.198  -1.580  -0.050  0.00  0.00     0.102 A 
ATOM      5  C   UNN dAMED      -1.729  -0.216   0.173  0.00  0.00     0.137 A 
ATOM      6  C   UNN dAMED       0.961  -0.419  -0.096  0.00  0.00     0.085 A 
ATOM      7  C   UNN dAMED      -0.998   1.013   0.131  0.00  0.00     0.240 A 
ATOM      8  C   UNN dAMED       0.400   0.843  -0.012  0.00  0.00     0.140 A 
ATOM      9  C   UNN dAMED       2.332  -0.868  -0.242  0.00  0.00     0.207 A 
ATOM     10  C   UNN dAMED       2.238  -2.353  -0.279  0.00  0.00     0.217 A 
ATOM     11  O   UNN dAMED      -1.559   2.160   0.214  0.00  0.00    -0.282 OA
ENDROOT
BRANCH   5  12
ATOM     12  O   UNN dAMED      -3.100  -0.176   0.308  0.00  0.00    -0.325 OA
ATOM     13  C   UNN dAMED      -3.515  -1.507   0.224  0.00  0.00     0.181 C 
ENDBRANCH   5  12
BRANCH   8  14
ATOM     14  O   UNN dAMED       1.226   1.933  -0.071  0.00  0.00    -0.325 OA
ATOM     15  C   UNN dAMED       2.152   1.635  -1.073  0.00  0.00     0.181 C 
ENDBRANCH   8  14
TORSDOF 2
