REMARK  1 active torsions:
REMARK  status: ('A' for Active; 'I' for Inactive)
REMARK    1  A    between atoms: C_9  and  N_16 
ROOT
ATOM      1  N   UNN dAMED      -2.210  -1.598   0.491  0.00  0.00    -0.186 NA
ATOM      2  O   UNN dAMED      -0.697  -0.694   1.954  0.00  0.00    -0.263 OA
ATOM      3  N   UNN dAMED      -3.414  -0.069  -0.800  0.00  0.00    -0.303 N 
ATOM      4  H   UNN dAMED      -4.133   0.146  -1.484  0.00  0.00     0.171 HD
ATOM      5  C   UNN dAMED      -1.382  -0.595   0.941  0.00  0.00     0.303 C 
ATOM      6  C   UNN dAMED      -1.325   0.645   0.050  0.00  0.00     0.195 C 
ATOM      7  C   UNN dAMED      -2.398   0.866  -0.760  0.00  0.00     0.281 C 
ATOM      8  C   UNN dAMED      -3.105  -1.412  -0.368  0.00  0.00     0.181 C 
ATOM      9  O   UNN dAMED      -2.667   1.826  -1.531  0.00  0.00    -0.265 OA
ATOM     10  N   UNN dAMED      -0.257   1.459   0.281  0.00  0.00    -0.236 NA
ENDROOT
BRANCH  10  11
ATOM     11  C   UNN dAMED       0.956   0.973  -0.072  0.00  0.00     0.081 A 
ATOM     12  C   UNN dAMED       1.234   0.341  -1.294  0.00  0.00     0.015 A 
ATOM     13  C   UNN dAMED       2.526  -0.077  -1.621  0.00  0.00    -0.024 A 
ATOM     14  C   UNN dAMED       3.580   0.166  -0.747  0.00  0.00    -0.026 A 
ATOM     15  C   UNN dAMED       2.780  -0.798  -2.915  0.00  0.00     0.031 C 
ATOM     16  C   UNN dAMED       3.340   0.806   0.462  0.00  0.00    -0.003 A 
ATOM     17  C   UNN dAMED       4.976  -0.251  -1.111  0.00  0.00     0.031 C 
ATOM     18  C   UNN dAMED       2.042   1.199   0.787  0.00  0.00     0.019 A 
ENDBRANCH  10  11
TORSDOF 1
