REMARK  5 active torsions:
REMARK  status: ('A' for Active; 'I' for Inactive)
REMARK    1  A    between atoms: C_5  and  C_19 
REMARK    2  A    between atoms: C_6  and  C_8 
REMARK       I    between atoms: C_6  and  N_20 
REMARK       I    between atoms: C_8  and  N_21 
REMARK       I    between atoms: N_10  and  C_12 
REMARK    3  A    between atoms: N_10  and  N_21 
REMARK       I    between atoms: C_12  and  N_23 
REMARK    4  A    between atoms: C_13  and  N_23 
REMARK    5  A    between atoms: C_19  and  N_20 
ROOT
ATOM      1  C   UNN dAMED      -2.830  -0.528  -1.348  0.00  0.00     0.349 C 
ATOM      2  O   UNN dAMED      -1.872  -1.039  -0.782  0.00  0.00    -0.259 OA
ATOM      3  N   UNN dAMED      -3.184  -0.535  -2.628  0.00  0.00    -0.142 NA
ENDROOT
BRANCH   3   4
ATOM      4  N   UNN dAMED      -2.034  -0.548  -3.481  0.00  0.00    -0.100 NA
ATOM      5  C   UNN dAMED      -2.250  -0.781  -4.838  0.00  0.00     0.343 C 
ATOM      6  O   UNN dAMED      -3.318  -0.576  -5.412  0.00  0.00    -0.250 OA
ATOM      7  N   UNN dAMED      -1.137  -1.224  -5.428  0.00  0.00    -0.205 NA
ATOM      8  C   UNN dAMED      -1.414   0.729  -3.374  0.00  0.00     0.126 C 
BRANCH   7   9
ATOM      9  C   UNN dAMED      -0.950  -2.647  -5.653  0.00  0.00     0.041 C 
ATOM     10  C   UNN dAMED      -0.005  -3.419  -4.721  0.00  0.00     0.042 C 
ATOM     11  C   UNN dAMED       0.064  -4.936  -4.916  0.00  0.00     0.006 C 
ATOM     12  C   UNN dAMED       0.045  -5.413  -6.368  0.00  0.00     0.001 C 
ATOM     13  C   UNN dAMED      -0.981  -4.708  -7.256  0.00  0.00     0.006 C 
ATOM     14  C   UNN dAMED      -1.062  -3.187  -7.086  0.00  0.00     0.042 C 
ENDBRANCH   7   9
ENDBRANCH   3   4
BRANCH   1  15
ATOM     15  C   UNN dAMED      -3.905   0.066  -0.485  0.00  0.00     0.338 C 
ATOM     16  O   UNN dAMED      -4.781  -0.684  -0.079  0.00  0.00    -0.260 OA
ATOM     17  N   UNN dAMED      -3.742   1.367  -0.275  0.00  0.00    -0.200 NA
BRANCH  17  18
ATOM     18  C   UNN dAMED      -4.269   2.018   0.922  0.00  0.00     0.127 C 
BRANCH  18  19
ATOM     19  C   UNN dAMED      -5.718   1.923   1.324  0.00  0.00     0.119 A 
ATOM     20  C   UNN dAMED      -6.171   1.195   2.395  0.00  0.00     0.028 A 
ATOM     21  C   UNN dAMED      -7.569   1.412   2.429  0.00  0.00     0.029 A 
ATOM     22  C   UNN dAMED      -7.863   2.263   1.383  0.00  0.00     0.123 A 
ATOM     23  O   UNN dAMED      -6.724   2.582   0.702  0.00  0.00    -0.304 OA
ENDBRANCH  18  19
ENDBRANCH  17  18
ENDBRANCH   1  15
TORSDOF 5
