REMARK  4 active torsions:
REMARK  status: ('A' for Active; 'I' for Inactive)
REMARK    1  A    between atoms: C_3  and  N_11 
REMARK    2  A    between atoms: C_9  and  S_10 
REMARK    3  A    between atoms: N_11  and  C_12 
REMARK    4  A    between atoms: C_12  and  C_13 
ROOT
ATOM      1  N   UNN dAMED      -1.565   2.124   0.205  0.00  0.00    -0.204 NA
ATOM      2  C   UNN dAMED      -0.653   3.109   0.065  0.00  0.00     0.201 A 
ATOM      3  C   UNN dAMED      -1.114   0.849   0.185  0.00  0.00     0.180 A 
ATOM      4  N   UNN dAMED       0.679   3.001  -0.099  0.00  0.00    -0.216 NA
ATOM      5  C   UNN dAMED       0.254   0.598   0.022  0.00  0.00     0.142 A 
ATOM      6  C   UNN dAMED       1.070   1.715  -0.112  0.00  0.00     0.135 A 
ATOM      7  N   UNN dAMED       0.929  -0.614  -0.028  0.00  0.00    -0.228 NA
ATOM      8  S   UNN dAMED       2.695   1.249  -0.302  0.00  0.00    -0.041 SA
ATOM      9  C   UNN dAMED       2.214  -0.392  -0.195  0.00  0.00     0.138 A 
ENDROOT
BRANCH   3  10
ATOM     10  N   UNN dAMED      -1.990  -0.152   0.311  0.00  0.00    -0.247 NA
BRANCH  10  11
ATOM     11  C   UNN dAMED      -3.109  -0.253  -0.611  0.00  0.00     0.153 C 
BRANCH  11  12
ATOM     12  C   UNN dAMED      -2.873  -0.080  -2.115  0.00  0.00     0.000 C 
ATOM     13  C   UNN dAMED      -3.806  -0.457  -2.988  0.00  0.00    -0.003 C 
ENDBRANCH  11  12
ENDBRANCH  10  11
ENDBRANCH   3  10
BRANCH   9  14
ATOM     14  S   UNN dAMED       3.372  -1.698  -0.299  0.00  0.00    -0.087 SA
ATOM     15  C   UNN dAMED       4.795  -0.616  -0.409  0.00  0.00     0.076 C 
ENDBRANCH   9  14
TORSDOF 4
