REMARK  3 active torsions:
REMARK  status: ('A' for Active; 'I' for Inactive)
REMARK    1  A    between atoms: C_2  and  N_15 
REMARK       I    between atoms: N_15  and  C_16 
REMARK    2  A    between atoms: C_16  and  O_18 
REMARK    3  A    between atoms: O_18  and  C_19 
ROOT
ATOM      1  N   UNN dAMED      -2.395   0.668   0.263  0.00  0.00    -0.245 NA
ATOM      2  C   UNN dAMED       0.070  -0.479  -0.462  0.00  0.00     0.089 A 
ATOM      3  C   UNN dAMED      -0.094   0.928  -0.405  0.00  0.00     0.035 A 
ATOM      4  C   UNN dAMED       0.951   1.823  -0.705  0.00  0.00     0.003 A 
ATOM      5  C   UNN dAMED       0.777   3.200  -0.640  0.00  0.00     0.000 A 
ATOM      6  C   UNN dAMED      -1.055  -1.289  -0.164  0.00  0.00     0.035 A 
ATOM      7  C   UNN dAMED      -1.006  -2.695  -0.216  0.00  0.00     0.003 A 
ATOM      8  C   UNN dAMED      -2.110  -3.479   0.093  0.00  0.00     0.000 A 
ATOM      9  C   UNN dAMED      -0.460   3.706  -0.275  0.00  0.00     0.002 A 
ATOM     10  C   UNN dAMED      -1.347   1.451  -0.035  0.00  0.00     0.083 A 
ATOM     11  C   UNN dAMED      -2.263  -0.666   0.201  0.00  0.00     0.083 A 
ATOM     12  C   UNN dAMED      -3.293  -2.858   0.458  0.00  0.00     0.002 A 
ATOM     13  C   UNN dAMED      -1.502   2.830   0.021  0.00  0.00     0.019 A 
ATOM     14  C   UNN dAMED      -3.356  -1.466   0.505  0.00  0.00     0.019 A 
ENDROOT
BRANCH   2  15
ATOM     15  N   UNN dAMED       1.250  -1.035  -0.848  0.00  0.00    -0.186 NA
ATOM     16  C   UNN dAMED       2.078  -1.332   0.156  0.00  0.00     0.388 C 
ATOM     17  O   UNN dAMED       1.908  -1.238   1.369  0.00  0.00    -0.236 OA
BRANCH  16  18
ATOM     18  O   UNN dAMED       3.250  -1.810  -0.351  0.00  0.00    -0.283 OA
BRANCH  18  19
ATOM     19  C   UNN dAMED       3.026  -1.903  -1.726  0.00  0.00     0.154 C 
ATOM     20  C   UNN dAMED       1.668  -2.389  -2.243  0.00  0.00     0.035 C 
ENDBRANCH  18  19
ENDBRANCH  16  18
ENDBRANCH   2  15
TORSDOF 3
