REMARK  3 active torsions:
REMARK  status: ('A' for Active; 'I' for Inactive)
REMARK    1  A    between atoms: C_6  and  O_8 
REMARK    2  A    between atoms: O_8  and  C_11 
REMARK       I    between atoms: C_11  and  N_12 
REMARK    3  A    between atoms: N_12  and  C_13 
ROOT
ATOM      1  C   UNN dAMED      -1.550  -1.766  -0.670  0.00  0.00     0.015 C 
ATOM      2  C   UNN dAMED      -2.669  -1.149  -1.030  0.00  0.00     0.050 C 
ATOM      3  C   UNN dAMED      -0.695  -1.054   0.358  0.00  0.00     0.030 C 
ATOM      4  N   UNN dAMED      -3.140  -0.017  -0.303  0.00  0.00    -0.221 NA
ATOM      5  H   UNN dAMED      -4.016   0.288  -0.712  0.00  0.00     0.137 HD
ATOM      6  C   UNN dAMED      -0.909   0.250   0.495  0.00  0.00     0.155 C 
ATOM      7  C   UNN dAMED      -2.133   0.877  -0.045  0.00  0.00     0.260 C 
ATOM      8  O   UNN dAMED      -2.243   2.095  -0.142  0.00  0.00    -0.271 OA
ENDROOT
BRANCH   6   9
ATOM      9  O   UNN dAMED       0.140   1.085   0.870  0.00  0.00    -0.254 OA
BRANCH   9  10
ATOM     10  C   UNN dAMED       1.234   0.787   0.093  0.00  0.00     0.388 C 
ATOM     11  O   UNN dAMED       1.183   0.247  -1.008  0.00  0.00    -0.236 OA
ATOM     12  N   UNN dAMED       2.340   1.232   0.676  0.00  0.00    -0.212 NA
BRANCH  12  13
ATOM     13  C   UNN dAMED       3.637   0.829   0.155  0.00  0.00     0.131 C 
ATOM     14  C   UNN dAMED       3.949   0.969  -1.340  0.00  0.00     0.029 C 
ENDBRANCH  12  13
ENDBRANCH   9  10
ENDBRANCH   6   9
TORSDOF 3
