REMARK  8 active torsions:
REMARK  status: ('A' for Active; 'I' for Inactive)
REMARK    1  A    between atoms: C_3  and  N_15 
REMARK    2  A    between atoms: C_8  and  C_12 
REMARK    3  A    between atoms: C_8  and  C_11 
REMARK    4  A    between atoms: C_11  and  O_14 
REMARK    5  A    between atoms: C_12  and  O_13 
REMARK    6  A    between atoms: O_13  and  C_17 
REMARK    7  A    between atoms: O_14  and  C_19 
REMARK    8  A    between atoms: N_15  and  C_16 
ROOT
ATOM      1  C   UNN dAMED       1.309   2.627  -0.067  0.00  0.00     0.145 C 
ATOM      2  C   UNN dAMED       0.650   1.461   0.012  0.00  0.00     0.110 C 
ENDROOT
BRANCH   1   3
ATOM      3  C   UNN dAMED       0.899   3.573  -1.115  0.00  0.00     0.302 C 
ATOM      4  O   UNN dAMED       1.187   3.464  -2.295  0.00  0.00    -0.259 OA
BRANCH   3   5
ATOM      5  O   UNN dAMED       0.145   4.544  -0.561  0.00  0.00    -0.298 OA
BRANCH   5   6
ATOM      6  C   UNN dAMED      -0.022   4.150   0.769  0.00  0.00     0.152 C 
ATOM      7  C   UNN dAMED       0.018   5.193   1.889  0.00  0.00     0.035 C 
ENDBRANCH   5   6
ENDBRANCH   3   5
ENDBRANCH   1   3
BRANCH   1   8
ATOM      8  C   UNN dAMED       2.545   2.874   0.697  0.00  0.00     0.302 C 
ATOM      9  O   UNN dAMED       2.586   3.142   1.885  0.00  0.00    -0.259 OA
BRANCH   8  10
ATOM     10  O   UNN dAMED       3.613   2.671  -0.104  0.00  0.00    -0.298 OA
BRANCH  10  11
ATOM     11  C   UNN dAMED       4.244   1.540   0.421  0.00  0.00     0.152 C 
ATOM     12  C   UNN dAMED       4.842   1.580   1.832  0.00  0.00     0.035 C 
ENDBRANCH  10  11
ENDBRANCH   8  10
ENDBRANCH   1   8
BRANCH   2  13
ATOM     13  N   UNN dAMED       1.085   0.310   0.809  0.00  0.00    -0.243 NA
BRANCH  13  14
ATOM     14  C   UNN dAMED       2.148  -0.415   0.405  0.00  0.00     0.092 A 
ATOM     15  C   UNN dAMED       3.204  -0.633   1.298  0.00  0.00     0.020 A 
ATOM     16  C   UNN dAMED       4.366  -1.303   0.916  0.00  0.00     0.002 A 
ATOM     17  C   UNN dAMED       4.486  -1.781  -0.382  0.00  0.00     0.001 A 
ATOM     18  C   UNN dAMED       3.449  -1.589  -1.289  0.00  0.00     0.013 A 
ATOM     19  C   UNN dAMED       2.293  -0.908  -0.901  0.00  0.00     0.075 A 
ATOM     20 CL   UNN dAMED       1.084  -0.670  -2.113  0.00  0.00    -0.081 Cl
ENDBRANCH  13  14
ENDBRANCH   2  13
TORSDOF 8
