REMARK  2 active torsions:
REMARK  status: ('A' for Active; 'I' for Inactive)
REMARK    1  A    between atoms: C_6  and  C_17 
REMARK    2  A    between atoms: C_7  and  N_19 
REMARK       I    between atoms: C_17  and  N_19 
ROOT
ATOM      1  C   UNN dAMED      -0.721  -0.029  -0.332  0.00  0.00     0.085 A 
ATOM      2  C   UNN dAMED      -2.039   0.339   0.042  0.00  0.00     0.018 A 
ATOM      3  C   UNN dAMED      -0.437  -1.398  -0.470  0.00  0.00     0.019 A 
ATOM      4  C   UNN dAMED      -2.416   1.676   0.256  0.00  0.00     0.002 A 
ATOM      5  C   UNN dAMED      -3.719   2.019   0.612  0.00  0.00     0.000 A 
ATOM      6  C   UNN dAMED      -1.413  -2.376  -0.290  0.00  0.00     0.002 A 
ATOM      7  C   UNN dAMED      -3.027  -0.660   0.218  0.00  0.00     0.002 A 
ATOM      8  C   UNN dAMED      -4.678   1.025   0.760  0.00  0.00     0.000 A 
ATOM      9  C   UNN dAMED      -2.707  -2.003   0.048  0.00  0.00     0.000 A 
ATOM     10  C   UNN dAMED      -4.331  -0.310   0.568  0.00  0.00     0.000 A 
ENDROOT
BRANCH   1  11
ATOM     11  N   UNN dAMED       0.270   0.883  -0.465  0.00  0.00    -0.208 NA
ATOM     12  C   UNN dAMED       0.565   1.224  -1.727  0.00  0.00     0.279 C 
ATOM     13  O   UNN dAMED      -0.023   0.932  -2.767  0.00  0.00    -0.265 OA
BRANCH  12  14
ATOM     14  C   UNN dAMED       1.759   2.098  -1.838  0.00  0.00     0.058 A 
ATOM     15  C   UNN dAMED       1.793   3.085  -2.823  0.00  0.00     0.005 A 
ATOM     16  C   UNN dAMED       2.921   3.894  -2.951  0.00  0.00     0.000 A 
ATOM     17  C   UNN dAMED       4.002   3.728  -2.088  0.00  0.00     0.000 A 
ATOM     18  C   UNN dAMED       3.968   2.742  -1.105  0.00  0.00     0.000 A 
ATOM     19  C   UNN dAMED       2.854   1.916  -0.990  0.00  0.00     0.005 A 
ENDBRANCH  12  14
ENDBRANCH   1  11
TORSDOF 2
