REMARK  1 active torsions:
REMARK  status: ('A' for Active; 'I' for Inactive)
REMARK    1  A    between atoms: 18_18  and  24_24 
ROOT
ATOM      1  1   UNN dAMED       6.522  -1.078  -0.120  0.00  0.00     0.101 N 
ATOM      2  2   UNN dAMED       4.913  -4.618  -0.784  0.00  0.00     0.101 N 
ATOM      3  3   UNN dAMED       8.101  -4.294   3.085  0.00  0.00     0.001 A 
ATOM      4  4   UNN dAMED       6.945  -3.575   2.780  0.00  0.00     0.008 A 
ATOM      5  5   UNN dAMED       8.688  -5.127   2.129  0.00  0.00     0.001 A 
ATOM      6  6   UNN dAMED       6.368  -3.685   1.509  0.00  0.00    -0.041 A 
ATOM      7  7   UNN dAMED       8.133  -5.251   0.857  0.00  0.00     0.010 A 
ATOM      8  8   UNN dAMED       5.134  -2.849   1.150  0.00  0.00     0.091 C 
ATOM      9  9   UNN dAMED       3.556   0.453   1.115  0.00  0.00     0.010 A 
ATOM     10  10  UNN dAMED       2.512   1.070   0.426  0.00  0.00     0.001 A 
ATOM     11  11  UNN dAMED       4.226  -0.589   0.495  0.00  0.00    -0.018 A 
ATOM     12  12  UNN dAMED       5.488  -1.267   0.975  0.00  0.00     0.267 C 
ATOM     13  13  UNN dAMED       6.980  -4.529   0.536  0.00  0.00    -0.016 A 
ATOM     14  14  UNN dAMED       2.148   0.650  -0.860  0.00  0.00     0.001 A 
ATOM     15  15  UNN dAMED       3.842  -1.046  -0.777  0.00  0.00    -0.041 A 
ATOM     16  16  UNN dAMED       4.415  -3.362  -0.184  0.00  0.00     0.244 C 
ATOM     17  17  UNN dAMED       6.389  -4.609  -0.884  0.00  0.00     0.287 C 
ATOM     18  18  UNN dAMED       6.879  -3.375  -1.781  0.00  0.00     0.227 C 
ATOM     19  19  UNN dAMED       2.802  -0.426  -1.463  0.00  0.00     0.008 A 
ATOM     20  20  UNN dAMED       4.632  -2.257  -1.247  0.00  0.00     0.089 C 
ATOM     21  21  UNN dAMED       6.205  -2.018  -1.274  0.00  0.00     0.265 C 
ATOM     22  22  UNN dAMED       4.412  -5.811  -0.102  0.00  0.00     0.311 C 
ATOM     23  23  UNN dAMED       6.838   0.284  -0.508  0.00  0.00     0.311 C 
ENDROOT
BRANCH  18  24
ATOM     24  24  UNN dAMED       6.650  -3.687  -3.244  0.00  0.00    -0.146 N 
ATOM     25  25  UNN dAMED       7.502  -4.409  -3.780  0.00  0.00    -0.536 OA
ATOM     26  26  UNN dAMED       5.667  -3.214  -3.828  0.00  0.00    -0.536 OA
ENDBRANCH  18  24
TORSDOF 1
