REMARK  1 active torsions:
REMARK  status: ('A' for Active; 'I' for Inactive)
REMARK    1  A    between atoms: C_11  and  C_13 
ROOT
ATOM      1  N   UNN dAMED       0.707   0.851   0.635  0.00  0.00    -0.240 NA
ATOM      2  N   UNN dAMED      -0.592  -1.271  -0.597  0.00  0.00    -0.322 N 
ATOM      3  H   UNN dAMED      -1.103  -2.030  -1.038  0.00  0.00     0.169 HD
ATOM      4  O   UNN dAMED       1.498  -2.242  -0.883  0.00  0.00    -0.265 OA
ATOM      5  C   UNN dAMED      -1.416   2.056   0.877  0.00  0.00     0.047 C 
ATOM      6  C   UNN dAMED      -0.653   0.823   0.446  0.00  0.00     0.071 A 
ATOM      7  C   UNN dAMED      -2.936   1.990   0.961  0.00  0.00     0.007 C 
ATOM      8  C   UNN dAMED      -1.303  -0.192  -0.150  0.00  0.00     0.050 A 
ATOM      9  C   UNN dAMED      -3.553   1.114  -0.110  0.00  0.00     0.007 C 
ATOM     10  C   UNN dAMED      -2.805  -0.198  -0.303  0.00  0.00     0.045 C 
ATOM     11  C   UNN dAMED       1.406  -0.154   0.202  0.00  0.00     0.190 A 
ATOM     12  C   UNN dAMED       0.776  -1.339  -0.488  0.00  0.00     0.279 A 
ENDROOT
BRANCH  11  13
ATOM     13  C   UNN dAMED       2.887  -0.082   0.451  0.00  0.00     0.289 C 
ATOM     14  O   UNN dAMED       3.432   1.011   0.434  0.00  0.00    -0.269 OA
ATOM     15  N   UNN dAMED       3.672  -1.258   0.285  0.00  0.00    -0.056 NA
ENDBRANCH  11  13
TORSDOF 1
