REMARK  3 active torsions:
REMARK  status: ('A' for Active; 'I' for Inactive)
REMARK    1  A    between atoms: C_8  and  S_12 
REMARK    2  A    between atoms: S_12  and  C_13 
REMARK    3  A    between atoms: C_13  and  C_14 
ROOT
ATOM      1 CL   UNN dAMED      -5.253  -1.466   0.078  0.00  0.00    -0.082 Cl
ATOM      2  N   UNN dAMED      -1.296   1.642   0.383  0.00  0.00    -0.244 NA
ATOM      3  C   UNN dAMED      -3.072   0.105   0.223  0.00  0.00     0.030 A 
ATOM      4  C   UNN dAMED      -1.716   0.389   0.143  0.00  0.00     0.083 A 
ATOM      5  C   UNN dAMED      -3.566  -1.174  -0.020  0.00  0.00     0.059 A 
ATOM      6  C   UNN dAMED      -0.830  -0.658  -0.193  0.00  0.00     0.023 A 
ATOM      7  C   UNN dAMED      -2.706  -2.209  -0.347  0.00  0.00     0.011 A 
ATOM      8  C   UNN dAMED       0.542  -0.354  -0.279  0.00  0.00     0.025 A 
ATOM      9  C   UNN dAMED       0.028   1.895   0.296  0.00  0.00     0.095 A 
ATOM     10  C   UNN dAMED       0.972   0.942  -0.027  0.00  0.00     0.003 A 
ATOM     11  C   UNN dAMED      -1.344  -1.946  -0.431  0.00  0.00     0.003 A 
ATOM     12  C   UNN dAMED       2.429   1.295  -0.102  0.00  0.00     0.033 C 
ENDROOT
BRANCH   8  13
ATOM     13  S   UNN dAMED       1.788  -1.554  -0.713  0.00  0.00    -0.102 SA
BRANCH  13  14
ATOM     14  C   UNN dAMED       1.200  -2.805   0.433  0.00  0.00     0.160 C 
BRANCH  14  15
ATOM     15  C   UNN dAMED       1.867  -4.155   0.528  0.00  0.00     0.197 C 
ATOM     16  O   UNN dAMED       3.056  -4.176   0.969  0.00  0.00    -0.647 OA
ATOM     17  O   UNN dAMED       1.149  -5.159   0.235  0.00  0.00    -0.647 OA
ENDBRANCH  14  15
ENDBRANCH  13  14
ENDBRANCH   8  13
TORSDOF 3
