REMARK  1 active torsions:
REMARK  status: ('A' for Active; 'I' for Inactive)
REMARK    1  A    between atoms: N_4  and  C_16 
ROOT
ATOM      1 BR   UNN dAMED       7.864  -0.012   2.868  0.00  0.00    -0.049 Br
ATOM      2  S   UNN dAMED       0.735   0.062  -1.660  0.00  0.00    -0.069 SA
ATOM      3  N   UNN dAMED       3.293   0.339  -2.322  0.00  0.00    -0.225 NA
ATOM      4  N   UNN dAMED       1.687   0.580  -4.078  0.00  0.00    -0.196 NA
ATOM      5  C   UNN dAMED       1.820  -0.026  -0.510  0.00  0.00     0.111 A 
ATOM      6  C   UNN dAMED       3.206   0.168  -1.040  0.00  0.00     0.072 A 
ATOM      7  C   UNN dAMED       4.371   0.127  -0.175  0.00  0.00     0.015 A 
ATOM      8  C   UNN dAMED       4.804  -1.107   0.300  0.00  0.00     0.002 A 
ATOM      9  C   UNN dAMED       4.946   1.322   0.247  0.00  0.00     0.002 A 
ATOM     10  C   UNN dAMED       6.004   1.277   1.150  0.00  0.00     0.007 A 
ATOM     11  C   UNN dAMED       5.861  -1.145   1.204  0.00  0.00     0.007 A 
ATOM     12  C   UNN dAMED       6.452   0.045   1.623  0.00  0.00     0.035 A 
ATOM     13  C   UNN dAMED       2.016   0.355  -2.846  0.00  0.00     0.192 A 
ENDROOT
BRANCH   4  14
ATOM     14  C   UNN dAMED       2.673   0.811  -4.990  0.00  0.00     0.196 A 
ATOM     15  S   UNN dAMED       2.355   0.351  -6.637  0.00  0.00    -0.046 SA
ATOM     16  C   UNN dAMED       3.868   0.963  -7.094  0.00  0.00     0.058 A 
ATOM     17  C   UNN dAMED       4.545   1.471  -6.013  0.00  0.00     0.090 A 
ATOM     18  N   UNN dAMED       3.842   1.405  -4.822  0.00  0.00    -0.221 NA
ATOM     19  C   UNN dAMED       5.877   2.034  -6.082  0.00  0.00     0.018 A 
ATOM     20  C   UNN dAMED       6.666   1.890  -7.227  0.00  0.00     0.002 A 
ATOM     21  C   UNN dAMED       6.402   2.707  -4.974  0.00  0.00     0.002 A 
ATOM     22  C   UNN dAMED       7.956   2.415  -7.269  0.00  0.00     0.007 A 
ATOM     23  C   UNN dAMED       8.460   3.078  -6.156  0.00  0.00     0.035 A 
ATOM     24 BR   UNN dAMED      10.210   3.772  -6.201  0.00  0.00    -0.049 Br
ATOM     25  C   UNN dAMED       7.692   3.229  -5.007  0.00  0.00     0.007 A 
ENDBRANCH   4  14
TORSDOF 1
