REMARK  0 active torsions:
REMARK  status: ('A' for Active; 'I' for Inactive)
ROOT
ATOM      1  N   UNN dAMED       1.485   0.966   0.000  0.00  0.00    -0.197 NA
ATOM      2  N   UNN dAMED      -0.879   1.310  -0.000  0.00  0.00    -0.117 NA
ATOM      3  N   UNN dAMED      -0.971  -0.023  -0.000  0.00  0.00    -0.147 N 
ATOM      4  N   UNN dAMED      -2.134  -0.690  -0.000  0.00  0.00     0.028 NA
ATOM      5  N   UNN dAMED      -1.845  -1.991  -0.000  0.00  0.00    -0.153 NA
ATOM      6  C   UNN dAMED       0.343   1.748  -0.000  0.00  0.00     0.257 A 
ATOM      7  C   UNN dAMED      -0.479  -2.127   0.000  0.00  0.00     0.141 A 
ATOM      8  C   UNN dAMED       0.074  -0.877   0.000  0.00  0.00     0.150 A 
ATOM      9  C   UNN dAMED       1.362  -0.322   0.000  0.00  0.00     0.174 A 
ATOM     10  N   UNN dAMED       0.527   3.163  -0.000  0.00  0.00    -0.058 NA
ATOM     11  N   UNN dAMED       2.516  -1.156   0.000  0.00  0.00    -0.078 NA
ENDROOT
TORSDOF 0
