REMARK  1 active torsions:
REMARK  status: ('A' for Active; 'I' for Inactive)
REMARK    1  A    between atoms: C_6  and  C_16 
ROOT
ATOM      1  S   UNN dAMED      -1.668   0.876   1.335  0.00  0.00    -0.066 SA
ATOM      2  N   UNN dAMED      -1.517  -0.570  -0.783  0.00  0.00    -0.239 NA
ATOM      3  C   UNN dAMED       1.446   0.716   1.076  0.00  0.00     0.002 A 
ATOM      4  C   UNN dAMED       2.839   0.719   1.026  0.00  0.00    -0.001 A 
ATOM      5  C   UNN dAMED       0.689   0.086   0.083  0.00  0.00     0.024 A 
ATOM      6  C   UNN dAMED       3.494   0.086  -0.025  0.00  0.00    -0.008 A 
ATOM      7  C   UNN dAMED       1.367  -0.546  -0.965  0.00  0.00     0.002 A 
ATOM      8  C   UNN dAMED      -0.776   0.060   0.106  0.00  0.00     0.111 A 
ATOM      9  C   UNN dAMED       2.760  -0.548  -1.022  0.00  0.00    -0.001 A 
ATOM     10  C   UNN dAMED      -4.456   0.596   1.062  0.00  0.00     0.008 A 
ATOM     11  C   UNN dAMED      -5.499   0.048   0.315  0.00  0.00     0.001 A 
ATOM     12  C   UNN dAMED      -3.144   0.347   0.634  0.00  0.00     0.049 A 
ATOM     13  C   UNN dAMED      -2.864  -0.418  -0.497  0.00  0.00     0.088 A 
ATOM     14  C   UNN dAMED      -5.248  -0.717  -0.816  0.00  0.00     0.002 A 
ATOM     15  C   UNN dAMED      -3.938  -0.958  -1.233  0.00  0.00     0.020 A 
ENDROOT
BRANCH   6  16
ATOM     16  C   UNN dAMED       4.995   0.073  -0.076  0.00  0.00    -0.044 C 
ATOM     17  C   UNN dAMED       5.726   0.671  -1.282  0.00  0.00     0.026 C 
ATOM     18  C   UNN dAMED       5.793  -0.586   1.054  0.00  0.00     0.026 C 
ENDBRANCH   6  16
TORSDOF 1
