REMARK  0 active torsions:
REMARK  status: ('A' for Active; 'I' for Inactive)
ROOT
ATOM      1  C   UNN dAMED       2.595  -0.000   0.062  0.00  0.00     0.113 A 
ATOM      2  S   UNN dAMED       1.330  -0.003   1.203  0.00  0.00    -0.032 SA
ATOM      3  N   UNN dAMED       2.237  -0.000  -1.201  0.00  0.00    -0.144 NA
ATOM      4  C   UNN dAMED       0.277  -0.004  -0.141  0.00  0.00     0.201 A 
ATOM      5  N   UNN dAMED       0.850   0.001  -1.323  0.00  0.00    -0.123 NA
ATOM      6  N   UNN dAMED      -1.095   0.002   0.062  0.00  0.00    -0.283 N 
ATOM      7  C   UNN dAMED      -1.786   0.870   0.874  0.00  0.00     0.082 A 
ATOM      8  C   UNN dAMED      -2.016  -0.837  -0.528  0.00  0.00     0.082 A 
ATOM      9  C   UNN dAMED      -3.277  -0.506  -0.078  0.00  0.00     0.021 A 
ATOM     10  C   UNN dAMED      -3.128   0.577   0.816  0.00  0.00     0.021 A 
ATOM     11  C   UNN dAMED       4.042   0.000   0.467  0.00  0.00     0.061 C 
ENDROOT
TORSDOF 0
