REMARK  3 active torsions:
REMARK  status: ('A' for Active; 'I' for Inactive)
REMARK    1  A    between atoms: C_3  and  N_20 
REMARK    2  A    between atoms: C_9  and  N_19 
REMARK    3  A    between atoms: C_15  and  C_16 
ROOT
ATOM      1  C   UNN dAMED      -0.676  -0.320  -0.045  0.00  0.00     0.222 C 
ATOM      2  N   UNN dAMED      -1.689   0.481   0.207  0.00  0.00    -0.124 N 
ATOM      3  N   UNN dAMED      -0.758  -1.150  -1.063  0.00  0.00    -0.223 NA
ENDROOT
BRANCH   1   4
ATOM      4  C   UNN dAMED       0.658   0.035   0.510  0.00  0.00     0.222 C 
ATOM      5  N   UNN dAMED       0.785   0.028   1.812  0.00  0.00    -0.124 N 
ATOM      6  N   UNN dAMED       1.566   0.512  -0.315  0.00  0.00    -0.223 NA
BRANCH   6   7
ATOM      7  C   UNN dAMED       2.880   0.417  -0.006  0.00  0.00     0.083 A 
ATOM      8  C   UNN dAMED       3.479  -0.678   0.636  0.00  0.00     0.020 A 
ATOM      9  C   UNN dAMED       4.849  -0.720   0.906  0.00  0.00     0.016 A 
ATOM     10  C   UNN dAMED       5.668   0.321   0.486  0.00  0.00     0.070 A 
ATOM     11  C   UNN dAMED       5.116   1.397  -0.198  0.00  0.00     0.016 A 
ATOM     12  N   UNN dAMED       7.074   0.258   0.704  0.00  0.00    -0.101 NA
ATOM     13  C   UNN dAMED       3.740   1.440  -0.429  0.00  0.00     0.020 A 
ENDBRANCH   6   7
ENDBRANCH   1   4
BRANCH   3  14
ATOM     14  C   UNN dAMED      -0.730  -2.467  -0.759  0.00  0.00     0.083 A 
ATOM     15  C   UNN dAMED      -1.440  -3.360  -1.571  0.00  0.00     0.020 A 
ATOM     16  C   UNN dAMED      -1.330  -4.742  -1.418  0.00  0.00     0.016 A 
ATOM     17  C   UNN dAMED      -0.497  -5.265  -0.436  0.00  0.00     0.070 A 
ATOM     18  C   UNN dAMED       0.218  -4.411   0.393  0.00  0.00     0.016 A 
ATOM     19  N   UNN dAMED      -0.440  -6.671  -0.226  0.00  0.00    -0.101 NA
ATOM     20  C   UNN dAMED       0.108  -3.033   0.215  0.00  0.00     0.020 A 
ENDBRANCH   3  14
TORSDOF 3
