REMARK  4 active torsions:
REMARK  status: ('A' for Active; 'I' for Inactive)
REMARK    1  A    between atoms: O_1  and  C_3 
REMARK    2  A    between atoms: O_1  and  C_14 
REMARK    3  A    between atoms: C_5  and  C_11 
REMARK    4  A    between atoms: C_6  and  N_8 
REMARK       I    between atoms: C_14  and  N_16 
ROOT
ATOM      1  C   UNN dAMED       0.177   1.272  -0.139  0.00  0.00     0.026 A 
ATOM      2  C   UNN dAMED       0.490  -0.083  -0.206  0.00  0.00     0.104 A 
ATOM      3  C   UNN dAMED      -1.149   1.650   0.067  0.00  0.00     0.019 A 
ATOM      4  C   UNN dAMED      -0.494  -1.060  -0.098  0.00  0.00     0.017 A 
ATOM      5  C   UNN dAMED      -2.150   0.681   0.180  0.00  0.00     0.056 A 
ATOM      6  C   UNN dAMED      -1.817  -0.674   0.101  0.00  0.00     0.018 A 
ENDROOT
BRANCH   2   7
ATOM      7  O   UNN dAMED       1.789  -0.459  -0.570  0.00  0.00    -0.258 OA
BRANCH   7   8
ATOM      8  C   UNN dAMED       2.639  -0.752   0.496  0.00  0.00     0.388 C 
ATOM      9  O   UNN dAMED       2.374  -0.540   1.674  0.00  0.00    -0.236 OA
ATOM     10  N   UNN dAMED       3.773  -1.263   0.029  0.00  0.00    -0.210 NA
ATOM     11  C   UNN dAMED       4.845  -1.625   0.941  0.00  0.00     0.158 C 
ENDBRANCH   7   8
ENDBRANCH   2   7
BRANCH   4  12
ATOM     12  C   UNN dAMED      -0.142  -2.513  -0.227  0.00  0.00    -0.042 C 
ATOM     13  C   UNN dAMED      -0.466  -3.265  -1.521  0.00  0.00     0.026 C 
ATOM     14  C   UNN dAMED       0.674  -3.201   0.874  0.00  0.00     0.026 C 
ENDBRANCH   4  12
BRANCH   5  15
ATOM     15  N   UNN dAMED      -3.497   1.062   0.328  0.00  0.00    -0.344 N 
ATOM     16  C   UNN dAMED      -4.537   0.260  -0.288  0.00  0.00     0.126 C 
ATOM     17  C   UNN dAMED      -3.834   2.306   0.991  0.00  0.00     0.126 C 
ENDBRANCH   5  15
TORSDOF 4
