REMARK  3 active torsions:
REMARK  status: ('A' for Active; 'I' for Inactive)
REMARK    1  A    between atoms: S_1  and  C_7 
REMARK    2  A    between atoms: S_1  and  C_15 
REMARK    3  A    between atoms: C_13  and  O_22 
ROOT
ATOM      1  O   UNN dAMED       1.657  -2.113  -2.082  0.00  0.00    -0.272 OA
ATOM      2  N   UNN dAMED       1.483  -0.331  -0.553  0.00  0.00    -0.246 N 
ATOM      3  O   UNN dAMED       0.393   1.027   1.024  0.00  0.00    -0.271 OA
ATOM      4  C   UNN dAMED       1.047  -1.223  -1.511  0.00  0.00     0.245 A 
ATOM      5  C   UNN dAMED      -0.426  -1.035  -1.744  0.00  0.00     0.109 A 
ATOM      6  C   UNN dAMED      -0.834   0.056  -0.764  0.00  0.00     0.141 A 
ATOM      7  C   UNN dAMED       0.434   0.393  -0.019  0.00  0.00     0.254 A 
ATOM      8  C   UNN dAMED       3.761   0.354  -0.885  0.00  0.00     0.020 A 
ATOM      9  C   UNN dAMED       5.090   0.397  -0.469  0.00  0.00     0.002 A 
ATOM     10  C   UNN dAMED       2.802  -0.278  -0.091  0.00  0.00     0.091 A 
ATOM     11  C   UNN dAMED       5.464  -0.185   0.740  0.00  0.00     0.002 A 
ATOM     12  C   UNN dAMED       3.184  -0.855   1.118  0.00  0.00     0.110 A 
ATOM     13  C   UNN dAMED       4.509  -0.811   1.537  0.00  0.00     0.026 A 
ENDROOT
BRANCH   6  14
ATOM     14  S   UNN dAMED      -1.931   1.366  -1.320  0.00  0.00    -0.103 SA
BRANCH  14  15
ATOM     15  C   UNN dAMED      -3.412   0.597  -0.734  0.00  0.00     0.039 A 
ATOM     16  C   UNN dAMED      -4.648   1.211  -0.931  0.00  0.00     0.076 A 
ATOM     17  C   UNN dAMED      -5.811   0.609  -0.457  0.00  0.00     0.015 A 
ATOM     18  N   UNN dAMED      -4.722   2.460  -1.608  0.00  0.00    -0.100 NA
ATOM     19  C   UNN dAMED      -5.739  -0.609   0.214  0.00  0.00     0.001 A 
ATOM     20  C   UNN dAMED      -4.506  -1.226   0.409  0.00  0.00     0.001 A 
ATOM     21  C   UNN dAMED      -3.343  -0.623  -0.064  0.00  0.00     0.007 A 
ENDBRANCH  14  15
ENDBRANCH   6  14
BRANCH  12  22
ATOM     22  O   UNN dAMED       2.269  -1.464   1.924  0.00  0.00    -0.327 OA
ATOM     23  C   UNN dAMED       1.206  -0.561   2.009  0.00  0.00     0.181 C 
ENDBRANCH  12  22
TORSDOF 3
