REMARK  2 active torsions:
REMARK  status: ('A' for Active; 'I' for Inactive)
REMARK    1  A    between atoms: N_1  and  C_12 
REMARK    2  A    between atoms: N_2  and  C_13 
ROOT
ATOM      1  H   UNN dAMED      -5.157  -0.825  -0.701  0.00  0.00     0.184 HD
ATOM      2  N   UNN dAMED      -4.156  -0.817  -0.547  0.00  0.00    -0.279 N 
ATOM      3  N   UNN dAMED      -3.396  -1.757  -1.132  0.00  0.00     0.003 NA
ATOM      4  N   UNN dAMED      -2.134  -1.519  -0.790  0.00  0.00    -0.155 NA
ATOM      5  C   UNN dAMED      -3.735   1.144   0.981  0.00  0.00     0.023 A 
ATOM      6  C   UNN dAMED      -3.407   0.044   0.201  0.00  0.00     0.091 A 
ATOM      7  C   UNN dAMED      -2.646   1.772   1.604  0.00  0.00     0.045 A 
ATOM      8  C   UNN dAMED      -2.113  -0.415   0.024  0.00  0.00     0.138 A 
ATOM      9  C   UNN dAMED      -1.293   1.396   1.491  0.00  0.00     0.216 A 
ATOM     10  C   UNN dAMED      -1.050   0.273   0.651  0.00  0.00     0.162 A 
ATOM     11  O   UNN dAMED      -0.378   2.035   2.112  0.00  0.00    -0.285 OA
ENDROOT
BRANCH  10  12
ATOM     12  N   UNN dAMED       0.247  -0.239   0.454  0.00  0.00    -0.143 NA
ATOM     13  N   UNN dAMED       0.708   0.164  -0.637  0.00  0.00    -0.148 NA
BRANCH  13  14
ATOM     14  C   UNN dAMED       2.066  -0.177  -0.771  0.00  0.00     0.103 A 
ATOM     15  C   UNN dAMED       2.944   0.769  -1.306  0.00  0.00     0.021 A 
ATOM     16  C   UNN dAMED       4.293   0.469  -1.486  0.00  0.00    -0.003 A 
ATOM     17  C   UNN dAMED       4.777  -0.786  -1.129  0.00  0.00    -0.022 A 
ATOM     18  C   UNN dAMED       3.913  -1.745  -0.608  0.00  0.00    -0.003 A 
ATOM     19  C   UNN dAMED       6.242  -1.090  -1.258  0.00  0.00     0.031 C 
ATOM     20  C   UNN dAMED       2.562  -1.445  -0.446  0.00  0.00     0.021 A 
ENDBRANCH  13  14
ENDBRANCH  10  12
TORSDOF 2
