REMARK  4 active torsions:
REMARK  status: ('A' for Active; 'I' for Inactive)
REMARK    1  A    between atoms: C_1  and  C_8 
REMARK    2  A    between atoms: C_1  and  C_12 
REMARK    3  A    between atoms: C_8  and  C_9 
REMARK    4  A    between atoms: C_12  and  C_13 
ROOT
ATOM      1  C   UNN dAMED       0.319  -0.116  -0.516  0.00  0.00     0.020 C 
ATOM      2  C   UNN dAMED      -0.490   0.145  -1.746  0.00  0.00     0.001 C 
ATOM      3  C   UNN dAMED      -2.013   0.157  -1.611  0.00  0.00     0.000 C 
ATOM      4  C   UNN dAMED      -0.267   0.653   0.734  0.00  0.00     0.001 C 
ATOM      5  C   UNN dAMED      -2.566   0.977  -0.450  0.00  0.00     0.000 C 
ATOM      6  C   UNN dAMED      -1.782   0.867   0.859  0.00  0.00     0.000 C 
ATOM      7  C   UNN dAMED      -2.325   1.565   2.110  0.00  0.00     0.000 C 
ENDROOT
BRANCH   1   8
ATOM      8  C   UNN dAMED      -0.254  -1.543  -0.172  0.00  0.00     0.098 C 
BRANCH   8   9
ATOM      9  C   UNN dAMED       0.195  -2.751  -0.955  0.00  0.00     0.185 C 
ATOM     10  O   UNN dAMED      -0.499  -3.060  -1.970  0.00  0.00    -0.647 OA
ATOM     11  O   UNN dAMED       1.221  -3.356  -0.522  0.00  0.00    -0.647 OA
ENDBRANCH   8   9
ENDBRANCH   1   8
BRANCH   1  12
ATOM     12  C   UNN dAMED       1.209  -0.376   0.705  0.00  0.00     0.098 C 
BRANCH  12  13
ATOM     13  C   UNN dAMED       0.617  -0.614   2.071  0.00  0.00     0.185 C 
ATOM     14  O   UNN dAMED       0.460   0.405   2.808  0.00  0.00    -0.647 OA
ATOM     15  O   UNN dAMED       0.369  -1.819   2.377  0.00  0.00    -0.647 OA
ENDBRANCH  12  13
ENDBRANCH   1  12
TORSDOF 4
