REMARK  0 active torsions:
REMARK  status: ('A' for Active; 'I' for Inactive)
ROOT
ATOM      1  N   UNN dAMED      -0.767   2.299  -0.587  0.00  0.00    -0.236 NA
ATOM      2  N   UNN dAMED       1.401   1.980  -0.604  0.00  0.00    -0.236 NA
ATOM      3  N   UNN dAMED      -3.716  -1.824   0.384  0.00  0.00    -0.242 NA
ATOM      4  N   UNN dAMED       3.024  -2.792   0.650  0.00  0.00    -0.242 NA
ATOM      5  C   UNN dAMED       1.146  -1.733  -0.448  0.00  0.00     0.022 A 
ATOM      6  C   UNN dAMED       1.595  -0.496  -0.004  0.00  0.00     0.014 A 
ATOM      7  C   UNN dAMED       1.890  -2.844  -0.085  0.00  0.00     0.099 A 
ATOM      8  C   UNN dAMED       2.759  -0.392   0.748  0.00  0.00     0.022 A 
ATOM      9  C   UNN dAMED       0.835   0.739  -0.320  0.00  0.00     0.048 C 
ATOM     10  C   UNN dAMED      -0.573   0.948  -0.324  0.00  0.00     0.048 C 
ATOM     11  C   UNN dAMED      -1.654  -0.027  -0.072  0.00  0.00     0.014 A 
ATOM     12  C   UNN dAMED       3.434  -1.565   1.040  0.00  0.00     0.099 A 
ATOM     13  C   UNN dAMED      -2.285  -0.627  -1.154  0.00  0.00     0.022 A 
ATOM     14  C   UNN dAMED      -2.042  -0.296   1.233  0.00  0.00     0.022 A 
ATOM     15  C   UNN dAMED      -3.073  -1.204   1.401  0.00  0.00     0.099 A 
ATOM     16  C   UNN dAMED      -3.304  -1.518  -0.868  0.00  0.00     0.099 A 
ATOM     17  C   UNN dAMED       0.437   2.954  -0.633  0.00  0.00     0.158 C 
ATOM     18  C   UNN dAMED      -1.557   2.852   0.458  0.00  0.00     0.096 C 
ATOM     19  C   UNN dAMED       2.347   2.290   0.411  0.00  0.00     0.096 C 
ENDROOT
TORSDOF 0
