REMARK  0 active torsions:
REMARK  status: ('A' for Active; 'I' for Inactive)
ROOT
ATOM      1  C   UNN dAMED       2.505  -2.199   1.288  0.00  0.00     0.002 A 
ATOM      2  C   UNN dAMED       3.705  -1.527   0.980  0.00  0.00     0.002 A 
ATOM      3  C   UNN dAMED       1.264  -1.684   0.907  0.00  0.00     0.019 A 
ATOM      4  C   UNN dAMED       3.702  -0.319   0.279  0.00  0.00     0.019 A 
ATOM      5  C   UNN dAMED      -1.638  -0.956   0.554  0.00  0.00     0.025 C 
ATOM      6  C   UNN dAMED       1.276  -0.489   0.218  0.00  0.00     0.084 A 
ATOM      7  C   UNN dAMED       2.467   0.170  -0.086  0.00  0.00     0.076 A 
ATOM      8  C   UNN dAMED      -3.154  -1.232   0.498  0.00  0.00     0.044 C 
ATOM      9  N   UNN dAMED       0.211   0.274  -0.285  0.00  0.00    -0.263 N 
ATOM     10  H   UNN dAMED      -5.143  -0.403   0.704  0.00  0.00     0.128 HD
ATOM     11  C   UNN dAMED      -1.114  -0.021  -0.241  0.00  0.00     0.048 C 
ATOM     12  N   UNN dAMED      -4.154  -0.158   0.654  0.00  0.00    -0.276 NA
ATOM     13  C   UNN dAMED      -3.641   0.499  -0.557  0.00  0.00     0.079 C 
ATOM     14  N   UNN dAMED       2.161   1.338  -0.783  0.00  0.00    -0.305 N 
ATOM     15  C   UNN dAMED       0.750   1.430  -0.929  0.00  0.00     0.332 A 
ATOM     16  C   UNN dAMED      -2.185   0.970  -0.608  0.00  0.00     0.062 C 
ATOM     17  H   UNN dAMED       2.829   2.015  -1.131  0.00  0.00     0.171 HD
ATOM     18  O   UNN dAMED       0.149   2.332  -1.496  0.00  0.00    -0.246 OA
ENDROOT
TORSDOF 0
