REMARK  4 active torsions:
REMARK  status: ('A' for Active; 'I' for Inactive)
REMARK    1  A    between atoms: C_1  and  C_8 
REMARK    2  A    between atoms: C_3  and  O_5 
REMARK    3  A    between atoms: C_8  and  C_9 
REMARK    4  A    between atoms: C_9  and  C_10 
ROOT
ATOM      1  C   UNN dAMED      -0.405   0.516   0.191  0.00  0.00     0.107 A 
ATOM      2  C   UNN dAMED      -1.484   1.347   0.028  0.00  0.00     0.069 A 
ATOM      3  C   UNN dAMED      -2.555   0.442  -0.004  0.00  0.00     0.206 A 
ATOM      4  N   UNN dAMED      -2.188  -0.836   0.085  0.00  0.00    -0.102 NA
ATOM      5  O   UNN dAMED      -0.799  -0.784   0.183  0.00  0.00    -0.214 OA
ENDROOT
BRANCH   1   6
ATOM      6  C   UNN dAMED       0.991   0.920  -0.168  0.00  0.00     0.065 C 
BRANCH   6   7
ATOM      7  C   UNN dAMED       1.910   1.543   0.883  0.00  0.00     0.104 C 
BRANCH   7   8
ATOM      8  C   UNN dAMED       3.368   1.692   0.557  0.00  0.00     0.186 C 
ATOM      9  O   UNN dAMED       3.721   2.800   0.055  0.00  0.00    -0.647 OA
ATOM     10  O   UNN dAMED       4.080   0.652   0.686  0.00  0.00    -0.647 OA
ENDBRANCH   7   8
ENDBRANCH   6   7
ENDBRANCH   1   6
BRANCH   3  11
ATOM     11  O   UNN dAMED      -3.857   0.718  -0.161  0.00  0.00    -0.310 OA
ATOM     12  C   UNN dAMED      -4.399  -0.429  -0.746  0.00  0.00     0.183 C 
ENDBRANCH   3  11
TORSDOF 4
