REMARK  2 active torsions:
REMARK  status: ('A' for Active; 'I' for Inactive)
REMARK    1  A    between atoms: C_3  and  C_18 
REMARK    2  A    between atoms: C_8  and  N_17 
REMARK       I    between atoms: N_17  and  C_18 
ROOT
ATOM      1  C   UNN dAMED       0.428  -1.249  -3.617  0.00  0.00     0.019 A 
ATOM      2  C   UNN dAMED       1.028  -2.184  -2.761  0.00  0.00     0.085 A 
ATOM      3  C   UNN dAMED      -0.196  -1.620  -4.814  0.00  0.00     0.002 A 
ATOM      4  C   UNN dAMED      -0.803  -0.667  -5.634  0.00  0.00     0.000 A 
ATOM      5  C   UNN dAMED      -1.410  -1.051  -6.829  0.00  0.00     0.000 A 
ATOM      6  C   UNN dAMED       1.000  -3.523  -3.182  0.00  0.00     0.019 A 
ATOM      7  C   UNN dAMED      -0.201  -2.973  -5.204  0.00  0.00     0.000 A 
ATOM      8  C   UNN dAMED      -1.412  -2.389  -7.215  0.00  0.00     0.000 A 
ATOM      9  C   UNN dAMED       0.400  -3.920  -4.381  0.00  0.00     0.002 A 
ATOM     10  C   UNN dAMED      -0.808  -3.349  -6.405  0.00  0.00     0.000 A 
ENDROOT
BRANCH   2  11
ATOM     11  N   UNN dAMED       1.775  -1.858  -1.686  0.00  0.00    -0.208 NA
ATOM     12  C   UNN dAMED       1.288  -0.885  -0.917  0.00  0.00     0.278 C 
ATOM     13  O   UNN dAMED       1.812  -0.471   0.112  0.00  0.00    -0.265 OA
BRANCH  12  14
ATOM     14  C   UNN dAMED      -0.025  -0.249  -1.308  0.00  0.00     0.070 C 
ATOM     15  C   UNN dAMED      -1.337  -0.897  -0.884  0.00  0.00     0.035 C 
ATOM     16  C   UNN dAMED      -2.408   0.064  -1.330  0.00  0.00     0.013 C 
ATOM     17  C   UNN dAMED      -1.656   1.274  -1.874  0.00  0.00     0.069 C 
ATOM     18  C   UNN dAMED      -0.156   1.276  -1.525  0.00  0.00     0.174 C 
ATOM     19  O   UNN dAMED       0.641   1.887  -2.221  0.00  0.00    -0.291 OA
ENDBRANCH  12  14
ENDBRANCH   2  11
TORSDOF 2
