REMARK  0 active torsions:
REMARK  status: ('A' for Active; 'I' for Inactive)
ROOT
ATOM      1  H   UNN dAMED       3.434   2.016   0.592  0.00  0.00     0.184 HD
ATOM      2  N   UNN dAMED       2.718   1.308   0.439  0.00  0.00    -0.289 N 
ATOM      3  O   UNN dAMED       2.762  -2.209  -0.346  0.00  0.00    -0.290 OA
ATOM      4  N   UNN dAMED       1.534   1.916   0.266  0.00  0.00    -0.175 NA
ATOM      5  C   UNN dAMED       0.658   1.376  -0.456  0.00  0.00     0.119 C 
ATOM      6  C   UNN dAMED       0.021   0.033  -0.157  0.00  0.00     0.020 C 
ATOM      7  C   UNN dAMED       0.705  -1.117  -0.141  0.00  0.00     0.016 C 
ATOM      8  C   UNN dAMED      -1.437  -0.024  -0.078  0.00  0.00     0.001 A 
ATOM      9  C   UNN dAMED      -2.185   0.587  -1.085  0.00  0.00     0.000 A 
ATOM     10  C   UNN dAMED      -3.577   0.594  -1.018  0.00  0.00     0.000 A 
ATOM     11  C   UNN dAMED      -4.226  -0.005   0.058  0.00  0.00     0.000 A 
ATOM     12  C   UNN dAMED      -2.092  -0.607   1.009  0.00  0.00     0.000 A 
ATOM     13  C   UNN dAMED       2.178  -1.137  -0.229  0.00  0.00     0.193 C 
ATOM     14  C   UNN dAMED       3.001   0.123  -0.353  0.00  0.00     0.186 C 
ATOM     15  C   UNN dAMED      -3.485  -0.608   1.071  0.00  0.00     0.000 A 
ATOM     16  C   UNN dAMED      -0.034  -2.410   0.061  0.00  0.00     0.034 C 
ENDROOT
TORSDOF 0
