REMARK  2 active torsions:
REMARK  status: ('A' for Active; 'I' for Inactive)
REMARK    1  A    between atoms: C_3  and  AS_11 
REMARK    2  A    between atoms: C_7  and  C_8 
ROOT
ATOM      1  C   UNN dAMED       0.654  -2.052  -0.067  0.00  0.00     0.000 A 
ATOM      2  C   UNN dAMED       0.942  -0.720   0.056  0.00  0.00     0.000 A 
ATOM      3  C   UNN dAMED      -0.669  -2.467  -0.201  0.00  0.00     0.000 A 
ATOM      4  C   UNN dAMED      -0.110   0.238   0.053  0.00  0.00     0.006 A 
ATOM      5  C   UNN dAMED      -1.705  -1.533  -0.214  0.00  0.00     0.006 A 
ATOM      6  C   UNN dAMED      -1.439  -0.168  -0.086  0.00  0.00     0.064 A 
ENDROOT
BRANCH   2   7
ATOM      7 AS   UNN dAMED       2.335   0.579   0.269  0.00  0.00     0.000 As
ATOM      8  O   UNN dAMED       2.900   1.004  -1.155  0.00  0.00     0.000 OA
ATOM      9  C   UNN dAMED       1.633   2.146   1.184  0.00  0.00     0.000 C 
ATOM     10  O   UNN dAMED       3.636  -0.121   1.223  0.00  0.00     0.000 OA
ENDBRANCH   2   7
BRANCH   6  11
ATOM     11  C   UNN dAMED      -2.553   0.833  -0.101  0.00  0.00     0.211 C 
ATOM     12  O   UNN dAMED      -2.227   2.061  -0.103  0.00  0.00    -0.644 OA
ATOM     13  O   UNN dAMED      -3.739   0.378  -0.112  0.00  0.00    -0.644 OA
ENDBRANCH   6  11
TORSDOF 2
