REMARK  5 active torsions:
REMARK  status: ('A' for Active; 'I' for Inactive)
REMARK    1  A    between atoms: C_2  and  C_14 
REMARK    2  A    between atoms: C_5  and  C_11 
REMARK    3  A    between atoms: C_11  and  N_12 
REMARK    4  A    between atoms: C_14  and  S_15 
REMARK    5  A    between atoms: S_15  and  S_16 
ROOT
ATOM      1  C   UNN dAMED      -1.011  -0.820   0.647  0.00  0.00     0.127 C 
ENDROOT
BRANCH   1   2
ATOM      2  C   UNN dAMED      -2.111   0.092   0.091  0.00  0.00     0.024 C 
ATOM      3  C   UNN dAMED      -2.744   1.172   0.983  0.00  0.00     0.002 C 
ATOM      4  C   UNN dAMED      -4.176   0.753   2.009  0.00  0.00     0.000 C 
ATOM      5  C   UNN dAMED      -3.524   2.304   0.352  0.00  0.00     0.000 C 
ATOM      6  C   UNN dAMED      -4.551   1.220   0.203  0.00  0.00     0.000 C 
ATOM      7  C   UNN dAMED      -4.115   1.185   0.145  0.00  0.00     0.000 C 
ATOM      8  C   UNN dAMED      -4.115   1.185   0.145  0.00  0.00     0.000 C 
ATOM      9  C   UNN dAMED      -4.398   0.185  -0.919  0.00  0.00     0.000 C 
ATOM     10  C   UNN dAMED      -3.009  -0.413  -1.024  0.00  0.00     0.002 C 
ENDBRANCH   1   2
BRANCH   1  11
ATOM     11  N   UNN dAMED      -1.353  -2.021   1.394  0.00  0.00    -0.254 NA
ATOM     12  C   UNN dAMED      -2.310  -2.823   0.965  0.00  0.00     0.168 C 
ATOM     13  N   UNN dAMED      -3.203  -2.275   0.163  0.00  0.00    -0.131 N 
BRANCH  12  14
ATOM     14  C   UNN dAMED      -2.295  -4.300   1.261  0.00  0.00     0.143 C 
BRANCH  14  15
ATOM     15  S   UNN dAMED      -1.899  -5.491  -0.026  0.00  0.00     0.010 SA
BRANCH  15  16
ATOM     16  S   UNN dAMED      -1.055  -6.942   1.267  0.00  0.00     0.167 S 
ATOM     17  O   UNN dAMED      -2.024  -8.029   1.207  0.00  0.00    -0.586 OA
ATOM     18  O   UNN dAMED      -0.981  -6.243   2.547  0.00  0.00    -0.586 OA
ATOM     19  O   UNN dAMED       0.231  -7.220   0.634  0.00  0.00    -0.586 OA
ENDBRANCH  15  16
ENDBRANCH  14  15
ENDBRANCH  12  14
ENDBRANCH   1  11
TORSDOF 5
