REMARK  0 active torsions:
REMARK  status: ('A' for Active; 'I' for Inactive)
ROOT
ATOM      1  C   UNN dAMED      -4.942   1.675  -1.140  0.00  0.00    -0.000 A 
ATOM      2  C   UNN dAMED      -5.335   0.410  -0.661  0.00  0.00     0.000 A 
ATOM      3  C   UNN dAMED      -3.600   2.061  -1.173  0.00  0.00    -0.004 A 
ATOM      4  C   UNN dAMED      -4.400  -0.517  -0.197  0.00  0.00     0.001 A 
ATOM      5  C   UNN dAMED      -2.674   1.148  -0.715  0.00  0.00    -0.016 A 
ATOM      6  C   UNN dAMED      -3.081  -0.128  -0.233  0.00  0.00     0.015 A 
ATOM      7  C   UNN dAMED      -1.157   1.284  -0.630  0.00  0.00     0.056 A 
ATOM      8  C   UNN dAMED      -1.886  -0.819   0.159  0.00  0.00     0.098 A 
ATOM      9  N   UNN dAMED      -1.585  -2.004   0.671  0.00  0.00    -0.173 NA
ATOM     10  C   UNN dAMED      -0.748  -0.035  -0.056  0.00  0.00     0.019 A 
ATOM     11  C   UNN dAMED       0.344  -0.741   0.337  0.00  0.00     0.072 A 
ATOM     12  N   UNN dAMED      -0.223  -1.935   0.772  0.00  0.00    -0.276 N 
ATOM     13  H   UNN dAMED       0.258  -2.745   1.144  0.00  0.00     0.189 HD
ATOM     14  C   UNN dAMED       1.764  -0.447   0.345  0.00  0.00     0.018 A 
ATOM     15  C   UNN dAMED       2.234   0.796   0.775  0.00  0.00     0.002 A 
ATOM     16  C   UNN dAMED       2.685  -1.403  -0.088  0.00  0.00     0.014 A 
ATOM     17  C   UNN dAMED       4.054  -1.132  -0.087  0.00  0.00     0.068 A 
ATOM     18  C   UNN dAMED       3.601   1.075   0.774  0.00  0.00     0.012 A 
ATOM     19  C   UNN dAMED       4.515   0.113   0.345  0.00  0.00     0.068 A 
ATOM     20 CL   UNN dAMED       5.103  -2.384  -0.634  0.00  0.00    -0.082 Cl
ATOM     21 CL   UNN dAMED       6.185   0.534   0.377  0.00  0.00    -0.082 Cl
ENDROOT
TORSDOF 0
