REMARK  0 active torsions:
REMARK  status: ('A' for Active; 'I' for Inactive)
ROOT
ATOM      1  H   UNN dAMED       0.139  -1.239  -1.375  0.00  0.00     0.320 HD
ATOM      2  N   UNN dAMED      -0.121   1.356  -0.725  0.00  0.00     0.137 N 
ATOM      3  H   UNN dAMED      -0.790   2.122  -0.705  0.00  0.00     0.320 HD
ATOM      4  N   UNN dAMED       0.104  -1.042  -0.373  0.00  0.00     0.139 N 
ATOM      5  C   UNN dAMED       1.381  -1.014   0.316  0.00  0.00     0.220 C 
ATOM      6  C   UNN dAMED       2.159   0.256   0.077  0.00  0.00     0.064 C 
ATOM      7  C   UNN dAMED       1.066   1.717   0.054  0.00  0.00     0.193 C 
ATOM      8  C   UNN dAMED      -2.132  -0.082  -0.911  0.00  0.00     0.064 C 
ATOM      9  C   UNN dAMED      -0.741   0.139  -0.226  0.00  0.00     0.371 C 
ATOM     10  C   UNN dAMED      -3.310   0.456  -0.102  0.00  0.00     0.004 C 
ATOM     11  C   UNN dAMED      -2.765   0.709   1.281  0.00  0.00     0.004 C 
ATOM     12  C   UNN dAMED      -1.294   0.300   1.229  0.00  0.00     0.064 C 
ATOM     13  C   UNN dAMED       2.176   0.234   0.078  0.00  0.00     0.033 C 
ATOM     14  C   UNN dAMED       2.089  -2.303   0.739  0.00  0.00     0.035 C 
ATOM     15  C   UNN dAMED       2.177   0.232   0.077  0.00  0.00     0.033 C 
ENDROOT
TORSDOF 0
