REMARK  2 active torsions:
REMARK  status: ('A' for Active; 'I' for Inactive)
REMARK    1  A    between atoms: C_2  and  C_10 
REMARK    2  A    between atoms: C_10  and  O_12 
ROOT
ATOM      1  C   UNN dAMED      -0.150   1.211  -0.026  0.00  0.00     0.084 C 
ATOM      2  C   UNN dAMED       0.465  -0.047   0.589  0.00  0.00     0.032 C 
ATOM      3  C   UNN dAMED      -0.821   1.032  -1.391  0.00  0.00     0.140 C 
ATOM      4  C   UNN dAMED      -0.387  -1.309   0.435  0.00  0.00     0.084 C 
ATOM      5  C   UNN dAMED      -1.675  -0.241  -1.588  0.00  0.00     0.174 C 
ATOM      6  C   UNN dAMED      -1.083  -1.502  -0.917  0.00  0.00     0.140 C 
ATOM      7  O   UNN dAMED      -0.812   2.054  -2.304  0.00  0.00    -0.192 OA
ATOM      8  O   UNN dAMED      -3.042  -0.114  -1.682  0.00  0.00    -0.186 OA
ATOM      9  O   UNN dAMED      -1.374  -2.767  -1.360  0.00  0.00    -0.192 OA
ENDROOT
BRANCH   2  10
ATOM     10  C   UNN dAMED       1.962  -0.196   0.530  0.00  0.00     0.289 C 
ATOM     11  O   UNN dAMED       2.448  -1.302   0.723  0.00  0.00    -0.260 OA
BRANCH  10  12
ATOM     12  O   UNN dAMED       2.718   0.921   0.359  0.00  0.00    -0.296 OA
ATOM     13  C   UNN dAMED       1.797   1.964   0.239  0.00  0.00     0.185 C 
ENDBRANCH  10  12
ENDBRANCH   2  10
TORSDOF 2
