REMARK  2 active torsions:
REMARK  status: ('A' for Active; 'I' for Inactive)
REMARK    1  A    between atoms: S_1  and  C_9 
REMARK    2  A    between atoms: S_1  and  C_17 
ROOT
ATOM      1  O   UNN dAMED      -0.610  -0.816   2.097  0.00  0.00    -0.271 OA
ATOM      2  N   UNN dAMED      -1.011   0.054  -0.065  0.00  0.00    -0.245 N 
ATOM      3  O   UNN dAMED      -0.452   0.555  -2.300  0.00  0.00    -0.266 OA
ATOM      4 CL   UNN dAMED      -5.322   1.747  -2.215  0.00  0.00    -0.081 Cl
ATOM      5 CL   UNN dAMED      -6.910  -0.566  -0.541  0.00  0.00    -0.082 Cl
ATOM      6  C   UNN dAMED      -0.263  -0.302   1.046  0.00  0.00     0.249 A 
ATOM      7  C   UNN dAMED       1.202  -0.087   0.776  0.00  0.00     0.126 A 
ATOM      8  C   UNN dAMED       1.271   0.347  -0.675  0.00  0.00     0.073 A 
ATOM      9  C   UNN dAMED      -0.176   0.409  -1.118  0.00  0.00     0.269 A 
ATOM     10  C   UNN dAMED      -3.144   0.797  -0.993  0.00  0.00     0.030 A 
ATOM     11  C   UNN dAMED      -2.418  -0.063  -0.163  0.00  0.00     0.070 A 
ATOM     12  C   UNN dAMED      -4.529   0.666  -1.132  0.00  0.00     0.070 A 
ATOM     13  C   UNN dAMED      -5.209  -0.319  -0.415  0.00  0.00     0.068 A 
ATOM     14  C   UNN dAMED      -3.113  -1.038   0.556  0.00  0.00     0.019 A 
ATOM     15  C   UNN dAMED      -4.499  -1.161   0.438  0.00  0.00     0.014 A 
ENDROOT
BRANCH   8  16
ATOM     16  S   UNN dAMED       2.503   1.563  -1.191  0.00  0.00    -0.085 SA
BRANCH  16  17
ATOM     17  C   UNN dAMED       3.843   0.410  -1.365  0.00  0.00     0.042 A 
ATOM     18  C   UNN dAMED       5.090   0.813  -1.849  0.00  0.00     0.076 A 
ATOM     19  C   UNN dAMED       6.115  -0.118  -2.011  0.00  0.00     0.015 A 
ATOM     20  N   UNN dAMED       5.324   2.173  -2.202  0.00  0.00    -0.100 NA
ATOM     21  C   UNN dAMED       5.899  -1.455  -1.689  0.00  0.00     0.001 A 
ATOM     22  C   UNN dAMED       4.661  -1.859  -1.199  0.00  0.00     0.001 A 
ATOM     23  C   UNN dAMED       3.636  -0.929  -1.037  0.00  0.00     0.007 A 
ENDBRANCH  16  17
ENDBRANCH   8  16
TORSDOF 2
