REMARK  3 active torsions:
REMARK  status: ('A' for Active; 'I' for Inactive)
REMARK    1  A    between atoms: C_3  and  C_9 
REMARK    2  A    between atoms: C_3  and  N_13 
REMARK    3  A    between atoms: C_7  and  N_13 
ROOT
ATOM      1  N   UNN dAMED       0.226  -0.158   0.282  0.00  0.00    -0.205 NA
ATOM      2  N   UNN dAMED       2.058  -1.610   1.028  0.00  0.00    -0.203 NA
ATOM      3  C   UNN dAMED       2.903  -0.689   0.428  0.00  0.00     0.190 A 
ATOM      4  C   UNN dAMED       2.446   0.444  -0.214  0.00  0.00     0.094 A 
ATOM      5  C   UNN dAMED       1.091   0.728  -0.293  0.00  0.00     0.169 A 
ATOM      6  C   UNN dAMED       0.752  -1.257   0.898  0.00  0.00     0.202 A 
ATOM      7  C   UNN dAMED       3.618   1.007  -0.621  0.00  0.00     0.128 A 
ATOM      8  N   UNN dAMED       4.699   0.289  -0.262  0.00  0.00    -0.145 NA
ATOM      9  N   UNN dAMED       4.240  -0.802   0.414  0.00  0.00    -0.128 NA
ENDROOT
BRANCH   5  10
ATOM     10  N   UNN dAMED       0.606   1.822  -0.889  0.00  0.00    -0.223 NA
BRANCH  10  11
ATOM     11  C   UNN dAMED      -0.814   1.883  -1.226  0.00  0.00     0.125 C 
BRANCH  11  12
ATOM     12  C   UNN dAMED      -1.584   3.179  -1.257  0.00  0.00     0.119 A 
ATOM     13  O   UNN dAMED      -2.787   3.311  -0.641  0.00  0.00    -0.304 OA
ATOM     14  C   UNN dAMED      -3.387   4.406  -1.189  0.00  0.00     0.123 A 
ATOM     15  C   UNN dAMED      -2.590   4.936  -2.181  0.00  0.00     0.029 A 
ATOM     16  C   UNN dAMED      -1.437   4.121  -2.248  0.00  0.00     0.028 A 
ENDBRANCH  11  12
ENDBRANCH  10  11
ENDBRANCH   5  10
TORSDOF 3
