REMARK  3 active torsions:
REMARK  status: ('A' for Active; 'I' for Inactive)
REMARK    1  A    between atoms: C_15  and  C_17 
REMARK    2  A    between atoms: C_16  and  C_19 
REMARK    3  A    between atoms: C_19  and  C_20 
ROOT
ATOM      1  O   UNN dAMED       0.491  -0.739   1.061  0.00  0.00    -0.306 OA
ATOM      2 CL   UNN dAMED      -2.776  -0.064  -0.714  0.00  0.00    -0.082 Cl
ATOM      3  O   UNN dAMED       0.380  -0.926  -1.362  0.00  0.00    -0.290 OA
ATOM      4  O   UNN dAMED      -1.972   4.989  -0.189  0.00  0.00    -0.299 OA
ATOM      5  O   UNN dAMED       0.306   4.770   0.119  0.00  0.00    -0.300 OA
ATOM      6  C   UNN dAMED      -2.473   2.596  -0.493  0.00  0.00     0.038 A 
ATOM      7  C   UNN dAMED      -1.623   3.672  -0.275  0.00  0.00     0.120 A 
ATOM      8  C   UNN dAMED      -1.819   1.348  -0.475  0.00  0.00     0.064 A 
ATOM      9  C   UNN dAMED      -0.249   3.538  -0.075  0.00  0.00     0.119 A 
ATOM     10  C   UNN dAMED      -0.425   1.203  -0.264  0.00  0.00     0.059 A 
ATOM     11  C   UNN dAMED       0.415   2.318  -0.064  0.00  0.00     0.031 A 
ATOM     12  C   UNN dAMED       0.180  -0.181  -0.190  0.00  0.00     0.200 C 
ATOM     13  C   UNN dAMED      -0.776   5.595   0.056  0.00  0.00     0.304 A 
ATOM     14  C   UNN dAMED       1.813  -1.187   1.110  0.00  0.00     0.175 C 
ATOM     15  C   UNN dAMED       2.393  -1.794  -0.160  0.00  0.00     0.004 C 
ATOM     16  C   UNN dAMED       1.644  -1.510  -1.455  0.00  0.00     0.074 C 
ENDROOT
BRANCH  16  17
ATOM     17  C   UNN dAMED       2.410  -1.485  -2.779  0.00  0.00     0.051 C 
BRANCH  17  18
ATOM     18  C   UNN dAMED       3.815  -0.877  -2.805  0.00  0.00     0.007 C 
ATOM     19  C   UNN dAMED       4.675  -0.895  -1.535  0.00  0.00     0.000 C 
ENDBRANCH  17  18
ENDBRANCH  16  17
BRANCH  15  20
ATOM     20  C   UNN dAMED       3.682  -2.622  -0.144  0.00  0.00     0.026 C 
ATOM     21  C   UNN dAMED       5.043  -1.942  -0.320  0.00  0.00     0.005 C 
ENDBRANCH  15  20
TORSDOF 3
