REMARK  4 active torsions:
REMARK  status: ('A' for Active; 'I' for Inactive)
REMARK    1  A    between atoms: C_13  and  N_22 
REMARK    2  A    between atoms: C_14  and  C_23 
REMARK    3  A    between atoms: C_17  and  C_21 
REMARK    4  A    between atoms: C_21  and  N_22 
ROOT
ATOM      1  O   UNN dAMED      -6.475   0.356  -1.251  0.00  0.00    -0.246 OA
ATOM      2  N   UNN dAMED      -5.154  -0.474   0.484  0.00  0.00    -0.246 N 
ATOM      3  O   UNN dAMED      -3.934  -1.374   2.251  0.00  0.00    -0.265 OA
ATOM      4  N   UNN dAMED      -4.166   0.538  -1.342  0.00  0.00    -0.263 N 
ATOM      5  N   UNN dAMED      -1.495  -0.395   0.668  0.00  0.00    -0.334 N 
ATOM      6  H   UNN dAMED      -1.050  -0.785   1.488  0.00  0.00     0.167 HD
ATOM      7  N   UNN dAMED      -1.712   0.642  -1.311  0.00  0.00    -0.212 NA
ATOM      8  C   UNN dAMED      -3.979  -0.791   1.174  0.00  0.00     0.283 A 
ATOM      9  C   UNN dAMED      -2.837  -0.333   0.418  0.00  0.00     0.149 A 
ATOM     10  C   UNN dAMED      -2.931   0.311  -0.800  0.00  0.00     0.169 A 
ATOM     11  C   UNN dAMED      -0.868   0.176  -0.412  0.00  0.00     0.144 A 
ATOM     12  C   UNN dAMED      -5.367   0.164  -0.757  0.00  0.00     0.335 A 
ATOM     13  C   UNN dAMED      -6.343  -0.923   1.114  0.00  0.00     0.139 C 
ATOM     14  C   UNN dAMED      -4.231   1.210  -2.586  0.00  0.00     0.137 C 
ENDROOT
BRANCH  11  15
ATOM     15  C   UNN dAMED       0.613   0.469  -0.448  0.00  0.00     0.189 C 
BRANCH  15  16
ATOM     16  N   UNN dAMED       1.568  -0.468  -1.036  0.00  0.00    -0.263 NA
BRANCH  16  17
ATOM     17  C   UNN dAMED       2.851  -0.108  -1.217  0.00  0.00     0.077 A 
ATOM     18  C   UNN dAMED       3.348   1.085  -0.687  0.00  0.00     0.019 A 
ATOM     19  C   UNN dAMED       4.682   1.458  -0.865  0.00  0.00     0.008 A 
ATOM     20  C   UNN dAMED       5.554   0.649  -1.595  0.00  0.00     0.065 A 
ATOM     21  C   UNN dAMED       5.068  -0.542  -2.138  0.00  0.00     0.008 A 
ATOM     22  C   UNN dAMED       3.735  -0.914  -1.941  0.00  0.00     0.019 A 
BRANCH  20  23
ATOM     23  C   UNN dAMED       6.978   1.053  -1.786  0.00  0.00     0.211 C 
ATOM     24  O   UNN dAMED       7.206   2.294  -1.931  0.00  0.00    -0.644 OA
ATOM     25  O   UNN dAMED       7.845   0.125  -1.784  0.00  0.00    -0.644 OA
ENDBRANCH  20  23
ENDBRANCH  16  17
ENDBRANCH  15  16
ENDBRANCH  11  15
TORSDOF 4
