REMARK  2 active torsions:
REMARK  status: ('A' for Active; 'I' for Inactive)
REMARK    1  A    between atoms: N_1  and  C_8 
REMARK    2  A    between atoms: N_2  and  C_9 
ROOT
ATOM      1  C   UNN dAMED       0.566   0.361   0.195  0.00  0.00     0.103 A 
ATOM      2  C   UNN dAMED       0.834   1.566   0.858  0.00  0.00     0.022 A 
ATOM      3  C   UNN dAMED       1.640  -0.466  -0.196  0.00  0.00     0.020 A 
ATOM      4  C   UNN dAMED       1.446  -1.701  -0.832  0.00  0.00     0.002 A 
ATOM      5  C   UNN dAMED       2.526  -2.499  -1.203  0.00  0.00     0.000 A 
ATOM      6  C   UNN dAMED       2.142   1.973   1.102  0.00  0.00     0.016 A 
ATOM      7  C   UNN dAMED       2.966  -0.048   0.063  0.00  0.00     0.015 A 
ATOM      8  C   UNN dAMED       3.824  -2.073  -0.943  0.00  0.00     0.000 A 
ATOM      9  C   UNN dAMED       3.203   1.168   0.702  0.00  0.00     0.070 A 
ATOM     10  C   UNN dAMED       4.042  -0.851  -0.313  0.00  0.00     0.001 A 
ATOM     11  N   UNN dAMED       4.541   1.583   0.954  0.00  0.00    -0.101 NA
ENDROOT
BRANCH   1  12
ATOM     12  N   UNN dAMED      -0.769  -0.035  -0.013  0.00  0.00    -0.148 NA
ATOM     13  N   UNN dAMED      -1.256   0.600  -0.974  0.00  0.00    -0.148 NA
BRANCH  13  14
ATOM     14  C   UNN dAMED      -2.559   0.148  -1.231  0.00  0.00     0.103 A 
ATOM     15  C   UNN dAMED      -2.806  -0.648  -2.352  0.00  0.00     0.021 A 
ATOM     16  C   UNN dAMED      -4.100  -1.070  -2.648  0.00  0.00     0.002 A 
ATOM     17  C   UNN dAMED      -5.159  -0.691  -1.828  0.00  0.00     0.000 A 
ATOM     18  C   UNN dAMED      -4.926   0.116  -0.718  0.00  0.00     0.002 A 
ATOM     19  C   UNN dAMED      -3.632   0.543  -0.427  0.00  0.00     0.021 A 
ENDBRANCH  13  14
ENDBRANCH   1  12
TORSDOF 2
