REMARK  2 active torsions:
REMARK  status: ('A' for Active; 'I' for Inactive)
REMARK    1  A    between atoms: C_7  and  N_15 
REMARK       I    between atoms: C_8  and  N_15 
REMARK       I    between atoms: C_8  and  N_16 
REMARK    2  A    between atoms: C_10  and  N_16 
ROOT
ATOM      1  C   UNN dAMED       0.707  -0.388  -0.256  0.00  0.00     0.370 C 
ATOM      2  O   UNN dAMED       1.062   0.783  -0.374  0.00  0.00    -0.242 OA
ATOM      3  N   UNN dAMED      -0.412  -0.797   0.386  0.00  0.00    -0.191 NA
ATOM      4  N   UNN dAMED       1.398  -1.476  -0.681  0.00  0.00    -0.166 NA
ENDROOT
BRANCH   3   5
ATOM      5  C   UNN dAMED      -1.604  -0.297  -0.022  0.00  0.00     0.087 A 
ATOM      6  C   UNN dAMED      -2.770  -0.899   0.471  0.00  0.00     0.031 A 
ATOM      7  C   UNN dAMED      -4.039  -0.381   0.208  0.00  0.00     0.059 A 
ATOM      8  C   UNN dAMED      -4.188   0.760  -0.570  0.00  0.00     0.011 A 
ATOM      9 CL   UNN dAMED      -5.427  -1.137   0.882  0.00  0.00    -0.082 Cl
ATOM     10  C   UNN dAMED      -3.054   1.372  -1.089  0.00  0.00     0.002 A 
ATOM     11  C   UNN dAMED      -1.788   0.851  -0.808  0.00  0.00     0.019 A 
ENDBRANCH   3   5
BRANCH   4  12
ATOM     12  C   UNN dAMED       2.744  -1.299  -0.654  0.00  0.00     0.199 A 
ATOM     13  N   UNN dAMED       3.494  -1.274   0.431  0.00  0.00    -0.219 NA
ATOM     14  C   UNN dAMED       4.811  -1.075   0.073  0.00  0.00     0.108 A 
ATOM     15  C   UNN dAMED       5.048  -0.986  -1.273  0.00  0.00     0.059 A 
ATOM     16  S   UNN dAMED       3.605  -1.148  -2.146  0.00  0.00    -0.046 SA
ENDBRANCH   4  12
TORSDOF 2
