REMARK  1 active torsions:
REMARK  status: ('A' for Active; 'I' for Inactive)
REMARK    1  A    between atoms: C_16  and  S_20 
ROOT
ATOM      1  C   UNN dAMED       2.262   3.504   0.226  0.00  0.00     0.241 A 
ATOM      2  N   UNN dAMED       1.048   3.658   0.851  0.00  0.00    -0.184 NA
ATOM      3  C   UNN dAMED       0.163   2.716   0.721  0.00  0.00     0.226 A 
ATOM      4  N   UNN dAMED       0.335   1.527   0.029  0.00  0.00    -0.266 N 
ATOM      5  C   UNN dAMED       1.666   1.358  -0.581  0.00  0.00     0.152 A 
ATOM      6  N   UNN dAMED       2.575   2.455  -0.463  0.00  0.00    -0.197 NA
ATOM      7  C   UNN dAMED       2.599  -0.921  -0.024  0.00  0.00     0.004 A 
ATOM      8  C   UNN dAMED       2.253   0.024  -0.989  0.00  0.00     0.035 A 
ATOM      9  C   UNN dAMED       2.486  -0.238  -2.341  0.00  0.00     0.004 A 
ATOM     10  C   UNN dAMED       3.037  -1.455  -2.731  0.00  0.00     0.011 A 
ATOM     11  C   UNN dAMED       3.357  -2.402  -1.763  0.00  0.00     0.058 A 
ATOM     12  C   UNN dAMED       3.148  -2.140  -0.413  0.00  0.00     0.011 A 
ATOM     13  C   UNN dAMED      -0.819   0.755  -0.275  0.00  0.00     0.068 A 
ATOM     14  C   UNN dAMED      -0.730  -0.390  -1.074  0.00  0.00     0.018 A 
ATOM     15  C   UNN dAMED      -1.847  -1.171  -1.361  0.00  0.00     0.015 A 
ATOM     16  C   UNN dAMED      -3.070  -0.786  -0.835  0.00  0.00     0.107 A 
ATOM     17  C   UNN dAMED      -3.211   0.349  -0.053  0.00  0.00     0.015 A 
ATOM     18  C   UNN dAMED      -2.080   1.109   0.227  0.00  0.00     0.018 A 
ATOM     19 CL   UNN dAMED       4.047  -3.899  -2.238  0.00  0.00    -0.082 Cl
ATOM     20  N   UNN dAMED      -1.113   2.938   1.316  0.00  0.00    -0.061 NA
ATOM     21  N   UNN dAMED       3.212   4.561   0.323  0.00  0.00    -0.059 NA
ENDROOT
BRANCH  16  22
ATOM     22  S   UNN dAMED      -4.483  -1.755  -1.216  0.00  0.00     0.302 S 
ATOM     23  O   UNN dAMED      -5.097  -2.072   0.062  0.00  0.00    -0.197 OA
ATOM     24  O   UNN dAMED      -5.216  -0.988  -2.206  0.00  0.00    -0.197 OA
ATOM     25  N   UNN dAMED      -3.958  -3.211  -1.936  0.00  0.00    -0.043 N 
ENDBRANCH  16  22
TORSDOF 1
