REMARK  3 active torsions:
REMARK  status: ('A' for Active; 'I' for Inactive)
REMARK    1  A    between atoms: C_7  and  N_12 
REMARK       I    between atoms: N_12  and  C_13 
REMARK    2  A    between atoms: C_13  and  O_15 
REMARK    3  A    between atoms: O_15  and  C_16 
ROOT
ATOM      1  O   UNN dAMED      -3.390   1.396   0.731  0.00  0.00    -0.246 OA
ATOM      2  N   UNN dAMED      -2.340  -0.621   0.329  0.00  0.00    -0.269 N 
ATOM      3  N   UNN dAMED      -1.207   1.312  -0.048  0.00  0.00    -0.246 N 
ATOM      4 CL   UNN dAMED      -1.448  -3.036   0.374  0.00  0.00    -0.061 Cl
ATOM      5  O   UNN dAMED       0.693   1.267  -1.353  0.00  0.00    -0.265 OA
ATOM      6  C   UNN dAMED      -1.240  -1.364   0.046  0.00  0.00     0.145 C 
ATOM      7  C   UNN dAMED      -0.096  -0.826  -0.432  0.00  0.00     0.169 C 
ATOM      8  C   UNN dAMED      -0.135   0.685  -0.658  0.00  0.00     0.284 C 
ATOM      9  C   UNN dAMED      -2.406   0.752   0.381  0.00  0.00     0.335 C 
ATOM     10  C   UNN dAMED      -3.339  -1.291   1.078  0.00  0.00     0.136 C 
ATOM     11  C   UNN dAMED      -1.349   2.669  -0.440  0.00  0.00     0.139 C 
ENDROOT
BRANCH   7  12
ATOM     12  N   UNN dAMED       1.112  -1.367  -0.718  0.00  0.00    -0.179 NA
ATOM     13  C   UNN dAMED       1.186  -1.952  -1.913  0.00  0.00     0.388 C 
ATOM     14  O   UNN dAMED       0.473  -1.801  -2.902  0.00  0.00    -0.236 OA
BRANCH  13  15
ATOM     15  O   UNN dAMED       2.268  -2.780  -1.945  0.00  0.00    -0.283 OA
BRANCH  15  16
ATOM     16  C   UNN dAMED       2.868  -2.626  -0.692  0.00  0.00     0.154 C 
ATOM     17  C   UNN dAMED       2.966  -1.236  -0.055  0.00  0.00     0.035 C 
ENDBRANCH  15  16
ENDBRANCH  13  15
ENDBRANCH   7  12
TORSDOF 3
