REMARK  1 active torsions:
REMARK  status: ('A' for Active; 'I' for Inactive)
REMARK    1  A    between atoms: C_11  and  C_12 
ROOT
ATOM      1  O   UNN dAMED      -1.446  -2.806   0.271  0.00  0.00    -0.245 OA
ATOM      2  H   UNN dAMED       0.907  -1.946  -0.017  0.00  0.00     0.171 HD
ATOM      3  N   UNN dAMED       0.190  -1.229   0.029  0.00  0.00    -0.303 N 
ATOM      4  N   UNN dAMED      -2.120  -0.612   0.256  0.00  0.00    -0.165 NA
ATOM      5  O   UNN dAMED      -2.409   1.733   0.190  0.00  0.00    -0.173 OA
ATOM      6  N   UNN dAMED      -0.279   2.388  -0.068  0.00  0.00    -0.119 NA
ATOM      7  N   UNN dAMED      -1.462   2.801   0.043  0.00  0.00    -0.016 NA
ATOM      8  C   UNN dAMED      -1.152  -1.612   0.192  0.00  0.00     0.349 A 
ATOM      9  C   UNN dAMED      -1.679   0.590   0.160  0.00  0.00     0.233 A 
ATOM     10  C   UNN dAMED      -0.322   1.045  -0.005  0.00  0.00     0.165 A 
ATOM     11  C   UNN dAMED       0.595   0.085  -0.077  0.00  0.00     0.105 A 
ENDROOT
BRANCH  11  12
ATOM     12  C   UNN dAMED       2.050   0.417  -0.283  0.00  0.00     0.149 C 
ATOM     13  N   UNN dAMED       2.569   0.333  -1.422  0.00  0.00    -0.093 NA
ATOM     14  O   UNN dAMED       3.903   0.576  -1.588  0.00  0.00    -0.061 OA
ENDBRANCH  11  12
TORSDOF 1
