REMARK  6 active torsions:
REMARK  status: ('A' for Active; 'I' for Inactive)
REMARK    1  A    between atoms: C_1  and  O_23 
REMARK    2  A    between atoms: C_2  and  O_21 
REMARK    3  A    between atoms: C_3  and  O_26 
REMARK    4  A    between atoms: C_9  and  C_28 
REMARK    5  A    between atoms: C_11  and  O_17 
REMARK    6  A    between atoms: C_14  and  O_19 
ROOT
ATOM      1  C   UNN dAMED       3.479  -1.252   0.046  0.00  0.00     0.138 A 
ATOM      2  C   UNN dAMED       2.788  -1.051  -1.139  0.00  0.00     0.118 A 
ATOM      3  C   UNN dAMED       2.976  -0.727   1.227  0.00  0.00     0.118 A 
ATOM      4  C   UNN dAMED       1.783  -0.011   1.233  0.00  0.00     0.026 A 
ATOM      5  C   UNN dAMED       1.601  -0.325  -1.153  0.00  0.00     0.026 A 
ATOM      6  C   UNN dAMED       1.081   0.201   0.038  0.00  0.00     0.004 A 
ATOM      7  C   UNN dAMED      -0.177   0.962   0.031  0.00  0.00     0.006 A 
ATOM      8  C   UNN dAMED      -1.433   0.309   0.022  0.00  0.00     0.005 A 
ATOM      9  C   UNN dAMED      -0.163   2.364   0.019  0.00  0.00     0.068 A 
ATOM     10  C   UNN dAMED      -1.516  -1.096   0.022  0.00  0.00     0.026 A 
ATOM     11  C   UNN dAMED      -2.736  -1.754  -0.009  0.00  0.00     0.116 A 
ATOM     12  C   UNN dAMED      -1.368   3.074   0.007  0.00  0.00     0.048 A 
ATOM     13  C   UNN dAMED      -2.644   1.067   0.001  0.00  0.00     0.041 A 
ATOM     14  C   UNN dAMED      -3.907  -1.028  -0.035  0.00  0.00     0.116 A 
ATOM     15  C   UNN dAMED      -2.643   2.489  -0.002  0.00  0.00     0.196 A 
ATOM     16  C   UNN dAMED      -3.862   0.359  -0.026  0.00  0.00     0.029 A 
ATOM     17  O   UNN dAMED      -3.691   3.221  -0.015  0.00  0.00    -0.287 OA
ENDROOT
BRANCH   9  18
ATOM     18  C   UNN dAMED       1.100   3.155   0.017  0.00  0.00     0.211 C 
ATOM     19  O   UNN dAMED       1.612   3.395  -1.118  0.00  0.00    -0.644 OA
ATOM     20  O   UNN dAMED       1.538   3.521   1.149  0.00  0.00    -0.644 OA
ENDBRANCH   9  18
BRANCH   3  21
ATOM     21  O   UNN dAMED       3.640  -0.900   2.404  0.00  0.00    -0.326 OA
ATOM     22  C   UNN dAMED       2.959  -0.105   3.329  0.00  0.00     0.181 C 
ENDBRANCH   3  21
BRANCH   2  23
ATOM     23  O   UNN dAMED       3.255  -1.563  -2.312  0.00  0.00    -0.326 OA
ATOM     24  C   UNN dAMED       4.385  -2.307  -1.962  0.00  0.00     0.181 C 
ENDBRANCH   2  23
BRANCH  11  25
ATOM     25  O   UNN dAMED      -2.753  -3.115  -0.023  0.00  0.00    -0.326 OA
ATOM     26  C   UNN dAMED      -1.741  -3.503   0.858  0.00  0.00     0.181 C 
ENDBRANCH  11  25
BRANCH   1  27
ATOM     27  O   UNN dAMED       4.643  -1.959   0.049  0.00  0.00    -0.324 OA
ATOM     28  C   UNN dAMED       5.095  -1.917   1.370  0.00  0.00     0.182 C 
ENDBRANCH   1  27
BRANCH  14  29
ATOM     29  O   UNN dAMED      -5.118  -1.648  -0.077  0.00  0.00    -0.326 OA
ATOM     30  C   UNN dAMED      -6.044  -0.670   0.292  0.00  0.00     0.181 C 
ENDBRANCH  14  29
TORSDOF 6
