REMARK  1 active torsions:
REMARK  status: ('A' for Active; 'I' for Inactive)
REMARK    1  A    between atoms: C_5  and  O_17 
ROOT
ATOM      1  C   UNN dAMED       1.211  -1.320  -0.248  0.00  0.00     0.101 A 
ATOM      2  C   UNN dAMED       2.218  -2.261  -0.429  0.00  0.00     0.021 A 
ATOM      3  C   UNN dAMED       3.564  -1.906  -0.415  0.00  0.00     0.004 A 
ATOM      4  C   UNN dAMED       3.914  -0.581  -0.217  0.00  0.00     0.026 A 
ATOM      5  C   UNN dAMED       2.906   0.360  -0.036  0.00  0.00     0.113 A 
ATOM      6  C   UNN dAMED       1.554   0.022  -0.047  0.00  0.00     0.121 A 
ATOM      7  N   UNN dAMED      -0.073  -1.705  -0.269  0.00  0.00    -0.242 NA
ATOM      8  C   UNN dAMED      -1.030  -0.783  -0.092  0.00  0.00     0.099 A 
ATOM      9  C   UNN dAMED      -0.694   0.559   0.110  0.00  0.00     0.099 A 
ATOM     10  N   UNN dAMED       0.589   0.944   0.129  0.00  0.00    -0.241 NA
ATOM     11  C   UNN dAMED      -2.370  -1.152  -0.106  0.00  0.00     0.016 A 
ATOM     12  C   UNN dAMED      -3.381  -0.214   0.076  0.00  0.00    -0.024 A 
ATOM     13  C   UNN dAMED      -3.048   1.116   0.276  0.00  0.00    -0.024 A 
ATOM     14  C   UNN dAMED      -1.709   1.491   0.291  0.00  0.00     0.016 A 
ATOM     15  C   UNN dAMED      -4.820  -0.642   0.058  0.00  0.00     0.031 C 
ATOM     16  C   UNN dAMED      -4.124   2.144   0.477  0.00  0.00     0.031 C 
ENDROOT
BRANCH   5  17
ATOM     17  O   UNN dAMED       3.280   1.661   0.157  0.00  0.00    -0.327 OA
ATOM     18  C   UNN dAMED       4.673   1.658   0.051  0.00  0.00     0.181 C 
ENDBRANCH   5  17
TORSDOF 1
