REMARK  3 active torsions:
REMARK  status: ('A' for Active; 'I' for Inactive)
REMARK    1  A    between atoms: C_5  and  N_15 
REMARK    2  A    between atoms: C_6  and  O_16 
REMARK    3  A    between atoms: C_11  and  N_15 
ROOT
ATOM      1  N   UNN dAMED      -0.121   0.333  -1.313  0.00  0.00    -0.227 NA
ENDROOT
BRANCH   1   2
ATOM      2  C   UNN dAMED       0.707   1.404  -1.306  0.00  0.00     0.083 A 
ATOM      3  C   UNN dAMED       0.599   2.523  -0.461  0.00  0.00     0.021 A 
ATOM      4  C   UNN dAMED       1.524   3.569  -0.493  0.00  0.00     0.026 A 
ATOM      5  C   UNN dAMED       2.592   3.496  -1.373  0.00  0.00     0.094 A 
ATOM      6  C   UNN dAMED       2.748   2.411  -2.221  0.00  0.00     0.026 A 
ATOM      7  C   UNN dAMED       1.807   1.383  -2.178  0.00  0.00     0.021 A 
BRANCH   5   8
ATOM      8  O   UNN dAMED       3.515   4.497  -1.403  0.00  0.00    -0.328 OA
ATOM      9  C   UNN dAMED       2.938   5.552  -0.692  0.00  0.00     0.181 C 
ENDBRANCH   5   8
ENDBRANCH   1   2
BRANCH   1  10
ATOM     10  C   UNN dAMED      -1.298   0.452  -0.668  0.00  0.00     0.166 A 
ATOM     11  N   UNN dAMED      -2.293   1.099  -1.321  0.00  0.00    -0.196 NA
ATOM     12  C   UNN dAMED      -3.508   1.112  -0.728  0.00  0.00     0.239 A 
ATOM     13  N   UNN dAMED      -3.808   0.519   0.445  0.00  0.00    -0.219 NA
ATOM     14  N   UNN dAMED      -4.563   1.785  -1.410  0.00  0.00    -0.060 NA
ATOM     15  C   UNN dAMED      -2.798  -0.129   1.058  0.00  0.00     0.065 A 
ATOM     16  C   UNN dAMED      -1.520  -0.198   0.537  0.00  0.00     0.054 A 
ATOM     17  C   UNN dAMED      -3.078  -0.824   2.362  0.00  0.00     0.052 C 
ENDBRANCH   1  10
TORSDOF 3
