REMARK  4 active torsions:
REMARK  status: ('A' for Active; 'I' for Inactive)
REMARK    1  A    between atoms: C_6  and  C_20 
REMARK    2  A    between atoms: C_10  and  C_20 
REMARK    3  A    between atoms: C_11  and  C_18 
REMARK    4  A    between atoms: C_12  and  C_18 
ROOT
ATOM      1  N   UNN dAMED      -0.353   0.897   0.027  0.00  0.00    -0.133 NA
ATOM      2  N   UNN dAMED      -1.265   0.615  -0.975  0.00  0.00    -0.133 NA
ATOM      3  N   UNN dAMED       0.339  -0.856  -1.065  0.00  0.00    -0.077 NA
ATOM      4  C   UNN dAMED      -0.846  -0.463  -1.608  0.00  0.00     0.168 C 
ATOM      5  C   UNN dAMED       0.530  -0.075   0.029  0.00  0.00     0.168 C 
ATOM      6  N   UNN dAMED       0.237  -2.213  -0.661  0.00  0.00    -0.067 N 
ENDROOT
BRANCH   4   7
ATOM      7  C   UNN dAMED      -1.813  -1.475  -2.172  0.00  0.00     0.035 C 
BRANCH   7   8
ATOM      8  C   UNN dAMED      -3.154  -1.082  -2.738  0.00  0.00     0.003 A 
ATOM      9  C   UNN dAMED      -3.284  -0.800  -4.097  0.00  0.00     0.000 A 
ATOM     10  C   UNN dAMED      -4.532  -0.477  -4.622  0.00  0.00     0.000 A 
ATOM     11  C   UNN dAMED      -5.651  -0.445  -3.792  0.00  0.00     0.000 A 
ATOM     12  C   UNN dAMED      -5.522  -0.736  -2.437  0.00  0.00     0.000 A 
ATOM     13  C   UNN dAMED      -4.274  -1.056  -1.909  0.00  0.00     0.000 A 
ENDBRANCH   7   8
ENDBRANCH   4   7
BRANCH   5  14
ATOM     14  C   UNN dAMED       1.853   0.002   0.744  0.00  0.00     0.035 C 
BRANCH  14  15
ATOM     15  C   UNN dAMED       1.985   0.488   2.166  0.00  0.00     0.003 A 
ATOM     16  C   UNN dAMED       1.683  -0.368   3.225  0.00  0.00     0.000 A 
ATOM     17  C   UNN dAMED       1.995  -0.001   4.532  0.00  0.00     0.000 A 
ATOM     18  C   UNN dAMED       2.621   1.218   4.781  0.00  0.00     0.000 A 
ATOM     19  C   UNN dAMED       2.928   2.074   3.725  0.00  0.00     0.000 A 
ATOM     20  C   UNN dAMED       2.615   1.706   2.418  0.00  0.00     0.000 A 
ENDBRANCH  14  15
ENDBRANCH   5  14
TORSDOF 4
