REMARK  9 active torsions:
REMARK  status: ('A' for Active; 'I' for Inactive)
REMARK    1  A    between atoms: N_3  and  C_5 
REMARK    2  A    between atoms: N_3  and  C_18 
REMARK    3  A    between atoms: N_3  and  S_19 
REMARK    4  A    between atoms: C_10  and  S_19 
REMARK    5  A    between atoms: C_18  and  C_22 
REMARK    6  A    between atoms: C_22  and  C_23 
REMARK    7  A    between atoms: C_23  and  C_24 
REMARK    8  A    between atoms: C_24  and  O_26 
REMARK    9  A    between atoms: O_26  and  C_27 
ROOT
ATOM      1  N   UNN dAMED       1.885   1.527  -1.238  0.00  0.00    -0.343 N 
ATOM      2  H   UNN dAMED       2.168   0.730  -1.791  0.00  0.00     0.167 HD
ATOM      3  C   UNN dAMED       0.784   2.800   0.238  0.00  0.00     0.098 A 
ATOM      4  C   UNN dAMED       0.806   1.569  -0.391  0.00  0.00     0.140 A 
ATOM      5  C   UNN dAMED       1.868   3.526  -0.286  0.00  0.00     0.002 A 
ATOM      6  C   UNN dAMED       2.519   2.731  -1.180  0.00  0.00     0.032 A 
ATOM      7  C   UNN dAMED       2.262   4.916   0.104  0.00  0.00     0.033 C 
ATOM      8  C   UNN dAMED       3.765   3.085  -1.931  0.00  0.00     0.050 C 
ATOM      9  C   UNN dAMED      -0.159   3.248   1.207  0.00  0.00     0.104 C 
ATOM     10  N   UNN dAMED      -0.938   3.617   1.985  0.00  0.00    -0.191 NA
ENDROOT
BRANCH   4  11
ATOM     11  N   UNN dAMED      -0.079   0.472  -0.184  0.00  0.00    -0.239 N 
BRANCH  11  12
ATOM     12  C   UNN dAMED       0.191  -0.521   0.844  0.00  0.00     0.120 C 
BRANCH  12  13
ATOM     13  C   UNN dAMED       1.329  -0.301   1.850  0.00  0.00     0.036 C 
BRANCH  13  14
ATOM     14  C   UNN dAMED       2.540   0.561   1.476  0.00  0.00     0.098 C 
BRANCH  14  15
ATOM     15  C   UNN dAMED       3.904  -0.055   1.311  0.00  0.00     0.272 C 
ATOM     16  O   UNN dAMED       4.676   0.444   0.502  0.00  0.00    -0.264 OA
BRANCH  15  17
ATOM     17  O   UNN dAMED       4.232  -1.136   2.067  0.00  0.00    -0.302 OA
BRANCH  17  18
ATOM     18  C   UNN dAMED       5.498  -1.516   1.613  0.00  0.00     0.152 C 
ATOM     19  C   UNN dAMED       6.554  -0.448   1.308  0.00  0.00     0.035 C 
ENDBRANCH  17  18
ENDBRANCH  15  17
ENDBRANCH  14  15
ENDBRANCH  13  14
ENDBRANCH  12  13
ENDBRANCH  11  12
BRANCH  11  20
ATOM     20  S   UNN dAMED      -1.631   0.625  -0.897  0.00  0.00     0.269 S 
ATOM     21  O   UNN dAMED      -2.579  -0.132  -0.103  0.00  0.00    -0.200 OA
ATOM     22  O   UNN dAMED      -1.900   2.005  -1.253  0.00  0.00    -0.200 OA
BRANCH  20  23
ATOM     23  C   UNN dAMED      -1.441  -0.264  -2.404  0.00  0.00     0.104 A 
ATOM     24  C   UNN dAMED      -0.882  -1.536  -2.380  0.00  0.00     0.013 A 
ATOM     25  C   UNN dAMED      -0.827  -2.272  -3.562  0.00  0.00    -0.004 A 
ATOM     26  C   UNN dAMED      -1.345  -1.738  -4.742  0.00  0.00    -0.022 A 
ATOM     27  C   UNN dAMED      -1.916  -0.466  -4.748  0.00  0.00    -0.004 A 
ATOM     28  C   UNN dAMED      -1.314  -2.546  -6.008  0.00  0.00     0.031 C 
ATOM     29  C   UNN dAMED      -1.974   0.275  -3.572  0.00  0.00     0.013 A 
ENDBRANCH  20  23
ENDBRANCH  11  20
ENDBRANCH   4  11
TORSDOF 9
