REMARK  3 active torsions:
REMARK  status: ('A' for Active; 'I' for Inactive)
REMARK    1  A    between atoms: C_2  and  C_5 
REMARK    2  A    between atoms: O_4  and  C_5 
REMARK    3  A    between atoms: O_4  and  C_10 
ROOT
ATOM      1  C   UNN dAMED       1.012   1.355  -0.018  0.00  0.00     0.100 A 
ATOM      2  C   UNN dAMED       0.273   0.191  -0.069  0.00  0.00     0.127 A 
ATOM      3  C   UNN dAMED       1.243  -0.833   0.038  0.00  0.00     0.237 A 
ATOM      4  N   UNN dAMED       2.488  -0.364   0.141  0.00  0.00    -0.145 NA
ATOM      5  N   UNN dAMED       2.316   0.969   0.107  0.00  0.00    -0.272 N 
ATOM      6  H   UNN dAMED       3.134   1.561   0.183  0.00  0.00     0.189 HD
ATOM      7  O   UNN dAMED       0.972  -2.125   0.042  0.00  0.00    -0.167 OA
ENDROOT
BRANCH   2   8
ATOM      8  C   UNN dAMED      -1.160   0.126  -0.178  0.00  0.00     0.301 C 
ATOM      9  O   UNN dAMED      -1.912   0.005   0.779  0.00  0.00    -0.259 OA
BRANCH   8  10
ATOM     10  O   UNN dAMED      -1.585   0.203  -1.465  0.00  0.00    -0.298 OA
BRANCH  10  11
ATOM     11  C   UNN dAMED      -0.419   0.284  -2.231  0.00  0.00     0.152 C 
ATOM     12  C   UNN dAMED      -0.502   0.204  -3.758  0.00  0.00     0.035 C 
ENDBRANCH  10  11
ENDBRANCH   8  10
ENDBRANCH   2   8
TORSDOF 3
