REMARK  2 active torsions:
REMARK  status: ('A' for Active; 'I' for Inactive)
REMARK    1  A    between atoms: C_8  and  O_22 
REMARK    2  A    between atoms: C_13  and  O_21 
ROOT
ATOM      1  C   UNN dAMED       0.184  -3.423  -1.028  0.00  0.00     0.102 C 
ATOM      2  C   UNN dAMED      -0.583  -2.258  -1.597  0.00  0.00     0.036 C 
ATOM      3  C   UNN dAMED       0.438  -1.913   0.148  0.00  0.00     0.091 C 
ATOM      4  C   UNN dAMED      -2.701  -0.910  -0.229  0.00  0.00     0.024 A 
ATOM      5  C   UNN dAMED       1.092  -1.175   1.283  0.00  0.00     0.032 C 
ATOM      6  C   UNN dAMED      -0.216  -0.936  -0.955  0.00  0.00     0.074 A 
ATOM      7  C   UNN dAMED      -1.469  -0.311  -0.414  0.00  0.00     0.003 A 
ATOM      8  C   UNN dAMED      -3.736  -0.108   0.251  0.00  0.00     0.116 A 
ATOM      9  C   UNN dAMED       2.486  -2.950   0.576  0.00  0.00     0.068 C 
ATOM     10  C   UNN dAMED       2.418  -0.705   0.748  0.00  0.00     0.051 C 
ATOM     11  C   UNN dAMED       0.718   0.289  -0.884  0.00  0.00     0.047 A 
ATOM     12  C   UNN dAMED      -1.273   1.047  -0.132  0.00  0.00     0.065 A 
ATOM     13  C   UNN dAMED      -3.537   1.248   0.530  0.00  0.00     0.118 A 
ATOM     14  C   UNN dAMED       3.466  -1.805   0.590  0.00  0.00     0.001 C 
ATOM     15  C   UNN dAMED       2.183   0.131  -0.490  0.00  0.00     0.013 C 
ATOM     16  C   UNN dAMED      -2.296   1.847   0.344  0.00  0.00     0.043 A 
ATOM     17  C   UNN dAMED       3.000   1.390  -0.602  0.00  0.00     0.085 C 
ATOM     18  C   UNN dAMED       0.708   2.620  -0.277  0.00  0.00     0.247 C 
ATOM     19  C   UNN dAMED       4.938   0.153  -0.050  0.00  0.00     0.122 C 
ATOM     20  C   UNN dAMED       2.174   2.672  -0.648  0.00  0.00     0.140 C 
ATOM     21  O   UNN dAMED       0.200   3.682   0.071  0.00  0.00    -0.271 OA
ATOM     22  N   UNN dAMED       0.029   1.440  -0.390  0.00  0.00    -0.282 N 
ATOM     23  O   UNN dAMED       4.279   1.386  -0.056  0.00  0.00    -0.309 OA
ATOM     24  N   UNN dAMED       1.339  -3.025  -0.292  0.00  0.00    -0.348 N 
ATOM     25  C   UNN dAMED       4.510  -1.024   0.856  0.00  0.00     0.024 C 
ENDROOT
BRANCH   8  26
ATOM     26  O   UNN dAMED      -4.964  -0.672   0.442  0.00  0.00    -0.326 OA
ATOM     27  C   UNN dAMED      -4.723  -2.043   0.545  0.00  0.00     0.181 C 
ENDBRANCH   8  26
BRANCH  13  28
ATOM     28  O   UNN dAMED      -4.563   2.023   0.985  0.00  0.00    -0.326 OA
ATOM     29  C   UNN dAMED      -4.046   3.321   1.023  0.00  0.00     0.181 C 
ENDBRANCH  13  28
TORSDOF 2
