REMARK  0 active torsions:
REMARK  status: ('A' for Active; 'I' for Inactive)
ROOT
ATOM      1  C   UNN dAMED       2.739  -1.710  -0.001  0.00  0.00     0.020 A 
ATOM      2  C   UNN dAMED      -2.561  -0.469   0.893  0.00  0.00     0.005 A 
ATOM      3  C   UNN dAMED      -3.948  -0.370   0.844  0.00  0.00     0.021 A 
ATOM      4  C   UNN dAMED       4.074  -1.301  -0.000  0.00  0.00     0.002 A 
ATOM      5  C   UNN dAMED       1.712  -0.745   0.000  0.00  0.00     0.088 A 
ATOM      6  C   UNN dAMED      -0.325   0.136   0.004  0.00  0.00     0.112 A 
ATOM      7  C   UNN dAMED      -1.778   0.244  -0.010  0.00  0.00     0.043 A 
ATOM      8  C   UNN dAMED      -4.504   0.460  -0.116  0.00  0.00     0.099 A 
ATOM      9  C   UNN dAMED       4.398   0.049  -0.001  0.00  0.00     0.001 A 
ATOM     10  C   UNN dAMED       2.066   0.605   0.004  0.00  0.00     0.049 A 
ATOM     11  C   UNN dAMED      -2.442   1.028  -0.944  0.00  0.00     0.101 A 
ATOM     12  C   UNN dAMED       3.403   1.028   0.001  0.00  0.00     0.008 A 
ATOM     13  N   UNN dAMED      -3.784   1.165  -1.014  0.00  0.00    -0.242 NA
ATOM     14  N   UNN dAMED       0.347  -0.995  -0.004  0.00  0.00    -0.238 NA
ATOM     15  S   UNN dAMED       0.638   1.561   0.024  0.00  0.00    -0.066 SA
ENDROOT
TORSDOF 0
