REMARK  4 active torsions:
REMARK  status: ('A' for Active; 'I' for Inactive)
REMARK    1  A    between atoms: C_8  and  C_26 
REMARK    2  A    between atoms: C_17  and  N_25 
REMARK    3  A    between atoms: C_24  and  C_26 
REMARK    4  A    between atoms: N_25  and  C_26 
ROOT
ATOM      1  C   UNN dAMED       0.404  -0.479  -0.248  0.00  0.00     0.086 C 
ENDROOT
BRANCH   1   2
ATOM      2  C   UNN dAMED       0.639  -1.859  -0.854  0.00  0.00     0.018 A 
ATOM      3  C   UNN dAMED       0.964  -1.988  -2.206  0.00  0.00     0.002 A 
ATOM      4  C   UNN dAMED       1.191  -3.249  -2.752  0.00  0.00     0.000 A 
ATOM      5  C   UNN dAMED       1.086  -4.385  -1.951  0.00  0.00     0.000 A 
ATOM      6  C   UNN dAMED       0.768  -4.259  -0.601  0.00  0.00     0.000 A 
ATOM      7  C   UNN dAMED       0.545  -3.000  -0.053  0.00  0.00     0.002 A 
ENDBRANCH   1   2
BRANCH   1   8
ATOM      8  C   UNN dAMED      -0.973   0.170  -0.362  0.00  0.00     0.058 A 
ATOM      9  C   UNN dAMED      -1.909   0.014   0.695  0.00  0.00     0.214 A 
ATOM     10  C   UNN dAMED      -3.154   0.684   0.544  0.00  0.00     0.120 A 
ATOM     11  O   UNN dAMED      -1.617  -0.687   1.724  0.00  0.00    -0.285 OA
ATOM     12  N   UNN dAMED      -4.109   0.621   1.502  0.00  0.00    -0.241 NA
ATOM     13  C   UNN dAMED      -3.403   1.444  -0.621  0.00  0.00     0.021 A 
ATOM     14  C   UNN dAMED      -5.275   1.294   1.331  0.00  0.00     0.099 A 
ATOM     15  C   UNN dAMED      -5.577   2.049   0.218  0.00  0.00     0.021 A 
ATOM     16  C   UNN dAMED      -4.613   2.115  -0.772  0.00  0.00     0.003 A 
ATOM     17  C   UNN dAMED      -2.463   1.563  -1.632  0.00  0.00     0.002 A 
ATOM     18  C   UNN dAMED      -1.245   0.925  -1.504  0.00  0.00     0.005 A 
ENDBRANCH   1   8
BRANCH   1  19
ATOM     19  N   UNN dAMED       1.491   0.260   0.420  0.00  0.00    -0.227 NA
BRANCH  19  20
ATOM     20  C   UNN dAMED       2.781   0.140   0.066  0.00  0.00     0.162 A 
ATOM     21  N   UNN dAMED       3.538  -0.652   0.864  0.00  0.00    -0.225 NA
ATOM     22  C   UNN dAMED       4.843  -0.800   0.535  0.00  0.00     0.100 A 
ATOM     23  C   UNN dAMED       5.443  -0.199  -0.557  0.00  0.00     0.017 A 
ATOM     24  C   UNN dAMED       4.648   0.612  -1.353  0.00  0.00    -0.017 A 
ATOM     25  C   UNN dAMED       3.301   0.788  -1.047  0.00  0.00     0.035 A 
ATOM     26  C   UNN dAMED       5.238   1.290  -2.555  0.00  0.00     0.031 C 
ENDBRANCH  19  20
ENDBRANCH   1  19
TORSDOF 4
