REMARK  4 active torsions:
REMARK  status: ('A' for Active; 'I' for Inactive)
REMARK    1  A    between atoms: C_11  and  C_24 
REMARK    2  A    between atoms: C_19  and  CA_20 
REMARK    3  A    between atoms: CA_20  and  C_21 
REMARK    4  A    between atoms: CA_20  and  N_23 
REMARK       I    between atoms: N_23  and  C_24 
ROOT
ATOM      1  N   UNN dAMED      -3.574   2.997   4.929  0.00  0.00    -0.250 NA
ATOM      2  N   UNN dAMED      -6.597  -1.753   7.311  0.00  0.00    -0.352 N 
ATOM      3  H   UNN dAMED      -6.969  -2.514   7.863  0.00  0.00     0.166 HD
ATOM      4  C   UNN dAMED      -6.178  -2.619   3.709  0.00  0.00     0.002 A 
ATOM      5  C   UNN dAMED      -5.574  -1.421   3.324  0.00  0.00     0.000 A 
ATOM      6  C   UNN dAMED      -6.604  -2.857   5.026  0.00  0.00     0.017 A 
ATOM      7  C   UNN dAMED      -5.377  -0.411   4.258  0.00  0.00     0.002 A 
ATOM      8  C   UNN dAMED      -6.390  -1.824   5.947  0.00  0.00     0.056 A 
ATOM      9  C   UNN dAMED      -4.666   0.836   3.975  0.00  0.00     0.006 C 
ATOM     10  C   UNN dAMED      -4.402   1.113   2.695  0.00  0.00     0.003 C 
ATOM     11  C   UNN dAMED      -3.672   2.398   2.343  0.00  0.00     0.052 C 
ATOM     12  C   UNN dAMED      -5.802  -0.621   5.574  0.00  0.00     0.013 A 
ATOM     13  C   UNN dAMED      -3.677   3.430   3.443  0.00  0.00     0.108 C 
ATOM     14  C   UNN dAMED      -4.396   1.789   5.132  0.00  0.00     0.018 C 
ATOM     15  C   UNN dAMED      -5.668   0.161   6.728  0.00  0.00     0.002 A 
ATOM     16  C   UNN dAMED      -4.660   1.272   6.595  0.00  0.00     0.066 C 
ATOM     17  C   UNN dAMED      -6.081  -0.570   7.811  0.00  0.00     0.069 A 
ATOM     18  C   UNN dAMED      -3.678   3.434   3.430  0.00  0.00     0.094 C 
ENDROOT
BRANCH  11  19
ATOM     19  C   UNN dAMED      -3.866   2.996   0.991  0.00  0.00     0.276 C 
ATOM     20  N   UNN dAMED      -5.099   3.329   0.643  0.00  0.00    -0.210 NA
ATOM     21  O   UNN dAMED      -2.833   3.198   0.365  0.00  0.00    -0.266 OA
BRANCH  20  22
ATOM     22  CA  UNN dAMED      -6.237   2.730   1.356  0.00  0.00     0.090 C 
BRANCH  22  23
ATOM     23  C   UNN dAMED      -7.682   2.955   0.830  0.00  0.00     0.171 C 
ATOM     24  O   UNN dAMED      -8.160   2.328  -0.300  0.00  0.00    -0.187 OA
ENDBRANCH  22  23
BRANCH  22  25
ATOM     25  C   UNN dAMED      -5.871   1.480   2.161  0.00  0.00     0.048 C 
ATOM     26  C   UNN dAMED      -4.989   0.386   1.561  0.00  0.00     0.007 C 
ENDBRANCH  22  25
ENDBRANCH  20  22
ENDBRANCH  11  19
TORSDOF 4
