REMARK  0 active torsions:
REMARK  status: ('A' for Active; 'I' for Inactive)
ROOT
ATOM      1  C   UNN dAMED      -3.475   0.132  -0.092  0.00  0.00     0.002 A 
ATOM      2  C   UNN dAMED      -2.610  -0.941  -0.279  0.00  0.00     0.021 A 
ATOM      3  C   UNN dAMED      -2.961   1.395   0.180  0.00  0.00     0.000 A 
ATOM      4  C   UNN dAMED      -1.219  -0.761  -0.195  0.00  0.00     0.110 A 
ATOM      5  C   UNN dAMED      -1.582   1.579   0.265  0.00  0.00     0.002 A 
ATOM      6  C   UNN dAMED      -0.687   0.511   0.080  0.00  0.00     0.021 A 
ATOM      7  O   UNN dAMED      -0.739  -2.996  -0.630  0.00  0.00    -0.061 OA
ATOM      8  N   UNN dAMED      -0.339  -1.827  -0.381  0.00  0.00    -0.102 N 
ATOM      9  C   UNN dAMED       0.708   0.656   0.157  0.00  0.00     0.021 A 
ATOM     10  N   UNN dAMED       0.991  -1.682  -0.306  0.00  0.00    -0.142 NA
ATOM     11  C   UNN dAMED       1.327   1.890   0.427  0.00  0.00     0.002 A 
ATOM     12  C   UNN dAMED       1.502  -0.483  -0.046  0.00  0.00     0.103 A 
ATOM     13  C   UNN dAMED       2.710   2.002   0.497  0.00  0.00     0.000 A 
ATOM     14  C   UNN dAMED       2.881  -0.349   0.028  0.00  0.00     0.021 A 
ATOM     15  C   UNN dAMED       3.491   0.875   0.296  0.00  0.00     0.002 A 
ENDROOT
TORSDOF 0
