REMARK  5 active torsions:
REMARK  status: ('A' for Active; 'I' for Inactive)
REMARK    1  A    between atoms: N_5  and  C_20 
REMARK    2  A    between atoms: N_7  and  C_18 
REMARK    3  A    between atoms: C_15  and  C_21 
REMARK    4  A    between atoms: C_18  and  C_19 
REMARK    5  A    between atoms: C_19  and  C_20 
ROOT
ATOM      1 CL   UNN dAMED       4.284  -3.945  -0.181  0.00  0.00    -0.059 Cl
ATOM      2 CL   UNN dAMED       6.304  -1.563  -1.147  0.00  0.00    -0.059 Cl
ATOM      3  N   UNN dAMED       2.580  -2.066   0.251  0.00  0.00    -0.217 NA
ATOM      4  N   UNN dAMED       4.365   0.040  -0.611  0.00  0.00    -0.210 NA
ATOM      5  N   UNN dAMED       1.124  -0.143   0.607  0.00  0.00    -0.196 NA
ATOM      6  N   UNN dAMED       2.450   1.477  -0.124  0.00  0.00    -0.209 NA
ATOM      7  C   UNN dAMED       3.842  -2.281  -0.185  0.00  0.00     0.168 A 
ATOM      8  C   UNN dAMED       4.701  -1.269  -0.596  0.00  0.00     0.169 A 
ATOM      9  C   UNN dAMED       1.231   1.189   0.302  0.00  0.00     0.199 A 
ATOM     10  C   UNN dAMED       2.273  -0.760   0.228  0.00  0.00     0.162 A 
ATOM     11  C   UNN dAMED       3.100   0.271  -0.182  0.00  0.00     0.194 A 
ENDROOT
BRANCH   5  12
ATOM     12  C   UNN dAMED       0.034  -0.701  -0.116  0.00  0.00     0.086 C 
BRANCH  12  13
ATOM     13  C   UNN dAMED       0.243  -1.232  -1.538  0.00  0.00     0.042 C 
BRANCH  13  14
ATOM     14  C   UNN dAMED       0.745  -2.662  -1.761  0.00  0.00     0.099 C 
BRANCH  14  15
ATOM     15  N   UNN dAMED      -0.082  -3.778  -1.405  0.00  0.00    -0.364 N 
ATOM     16  C   UNN dAMED      -1.415  -3.174  -1.542  0.00  0.00     0.130 C 
ATOM     17  C   UNN dAMED      -2.591  -3.718  -0.722  0.00  0.00     0.166 C 
ATOM     18  O   UNN dAMED      -3.031  -5.041  -0.904  0.00  0.00    -0.350 OA
ATOM     19  C   UNN dAMED      -1.757  -5.589  -0.668  0.00  0.00     0.166 C 
ATOM     20  C   UNN dAMED      -0.557  -5.130  -1.505  0.00  0.00     0.130 C 
ENDBRANCH  14  15
ENDBRANCH  13  14
ENDBRANCH  12  13
ENDBRANCH   5  12
BRANCH   9  21
ATOM     21  C   UNN dAMED       0.113   2.137   0.463  0.00  0.00     0.446 C 
ATOM     22  F   UNN dAMED       0.470   3.201   1.227  0.00  0.00    -0.164 F 
ATOM     23  F   UNN dAMED      -0.297   2.631  -0.732  0.00  0.00    -0.164 F 
ATOM     24  F   UNN dAMED      -0.973   1.577   1.052  0.00  0.00    -0.164 F 
ENDBRANCH   9  21
TORSDOF 5
