REMARK  0 active torsions:
REMARK  status: ('A' for Active; 'I' for Inactive)
ROOT
ATOM      1 BR   UNN dAMED      -3.384   0.440  -0.000  0.00  0.00    -0.049 Br
ATOM      2 BR   UNN dAMED       2.022   2.119  -0.000  0.00  0.00    -0.048 Br
ATOM      3  C   UNN dAMED       0.217  -1.611   0.000  0.00  0.00     0.015 A 
ATOM      4  C   UNN dAMED       1.159  -0.585   0.000  0.00  0.00     0.076 A 
ATOM      5  C   UNN dAMED      -1.142  -1.304   0.000  0.00  0.00     0.008 A 
ATOM      6  C   UNN dAMED       0.739   0.742  -0.000  0.00  0.00     0.048 A 
ATOM      7  C   UNN dAMED      -1.546   0.029  -0.000  0.00  0.00     0.035 A 
ATOM      8  C   UNN dAMED      -0.614   1.060  -0.000  0.00  0.00     0.015 A 
ATOM      9  N   UNN dAMED       2.549  -0.891   0.000  0.00  0.00    -0.100 NA
ENDROOT
TORSDOF 0
