REMARK  1 active torsions:
REMARK  status: ('A' for Active; 'I' for Inactive)
REMARK    1  A    between atoms: C_5  and  C_7 
ROOT
ATOM      1  C   UNN dAMED       1.498  -0.655  -0.004  0.00  0.00     0.234 A 
ATOM      2  C   UNN dAMED       1.841   0.746  -0.000  0.00  0.00     0.234 A 
ATOM      3  C   UNN dAMED       0.118  -0.977  -0.012  0.00  0.00     0.051 A 
ATOM      4  C   UNN dAMED       0.764   1.664   0.004  0.00  0.00     0.046 A 
ATOM      5  C   UNN dAMED      -0.913  -0.037  -0.001  0.00  0.00     0.068 A 
ATOM      6  C   UNN dAMED      -0.578   1.303   0.011  0.00  0.00     0.010 A 
ATOM      7  O   UNN dAMED       2.362  -1.601  -0.000  0.00  0.00    -0.283 OA
ATOM      8  O   UNN dAMED       3.043   1.190   0.000  0.00  0.00    -0.283 OA
ENDROOT
BRANCH   5   9
ATOM      9  C   UNN dAMED      -2.342  -0.456   0.004  0.00  0.00     0.211 C 
ATOM     10  O   UNN dAMED      -2.688  -1.295   0.890  0.00  0.00    -0.644 OA
ATOM     11  O   UNN dAMED      -3.094   0.075  -0.871  0.00  0.00    -0.644 OA
ENDBRANCH   5   9
TORSDOF 1
