REMARK  4 active torsions:
REMARK  status: ('A' for Active; 'I' for Inactive)
REMARK    1  A    between atoms: C_7  and  C_16 
REMARK    2  A    between atoms: C_8  and  C_13 
REMARK    3  A    between atoms: C_13  and  O_15 
REMARK    4  A    between atoms: O_15  and  C_16 
ROOT
ATOM      1  C   UNN dAMED      -0.979   0.203  -0.695  0.00  0.00     0.315 C 
ATOM      2  O   UNN dAMED      -0.157   0.919  -0.139  0.00  0.00    -0.257 OA
ENDROOT
BRANCH   1   3
ATOM      3  C   UNN dAMED      -2.395   0.210  -0.189  0.00  0.00     0.141 C 
ATOM      4  O   UNN dAMED      -3.327   1.131  -0.670  0.00  0.00    -0.304 OA
ATOM      5  C   UNN dAMED      -4.700   0.861  -0.651  0.00  0.00     0.118 C 
ATOM      6  C   UNN dAMED      -5.219   0.034   0.259  0.00  0.00     0.001 C 
ATOM      7  C   UNN dAMED      -4.287  -0.540   1.326  0.00  0.00     0.035 C 
ATOM      8  C   UNN dAMED      -2.875  -0.815   0.833  0.00  0.00     0.062 C 
ENDBRANCH   1   3
BRANCH   1   9
ATOM      9  O   UNN dAMED      -0.669  -0.599  -1.747  0.00  0.00    -0.295 OA
BRANCH   9  10
ATOM     10  C   UNN dAMED      -1.883  -1.175  -2.128  0.00  0.00     0.182 C 
BRANCH  10  11
ATOM     11  C   UNN dAMED      -3.101  -1.057  -1.208  0.00  0.00     0.152 C 
ATOM     12  O   UNN dAMED      -3.476  -2.143  -0.419  0.00  0.00    -0.329 OA
ATOM     13  C   UNN dAMED      -4.400  -2.097   0.629  0.00  0.00     0.112 C 
ATOM     14  C   UNN dAMED      -4.921  -0.934   1.033  0.00  0.00     0.000 C 
ATOM     15  C   UNN dAMED      -4.813   0.278   0.107  0.00  0.00     0.031 C 
ATOM     16  C   UNN dAMED      -3.545   0.319  -0.729  0.00  0.00     0.037 C 
ENDBRANCH  10  11
ENDBRANCH   9  10
ENDBRANCH   1   9
TORSDOF 4
