REMARK  4 active torsions:
REMARK  status: ('A' for Active; 'I' for Inactive)
REMARK    1  A    between atoms: C_4  and  S_18 
REMARK    2  A    between atoms: C_10  and  S_15 
REMARK    3  A    between atoms: S_15  and  C_16 
REMARK    4  A    between atoms: C_16  and  S_18 
ROOT
ATOM      1  C   UNN dAMED      -1.783   0.412  -3.808  0.00  0.00     0.114 C 
ATOM      2  S   UNN dAMED      -3.242   1.053  -4.331  0.00  0.00    -0.064 SA
ENDROOT
BRANCH   1   3
ATOM      3  S   UNN dAMED      -1.172   0.488  -2.149  0.00  0.00    -0.070 SA
BRANCH   3   4
ATOM      4  C   UNN dAMED      -2.598   0.191  -1.130  0.00  0.00     0.031 A 
ATOM      5  C   UNN dAMED      -3.158  -1.083  -1.028  0.00  0.00     0.007 A 
ATOM      6  C   UNN dAMED      -4.236  -1.303  -0.170  0.00  0.00     0.012 A 
ATOM      7  C   UNN dAMED      -4.732  -0.249   0.595  0.00  0.00     0.058 A 
ATOM      8 CL   UNN dAMED      -6.074  -0.505   1.637  0.00  0.00    -0.082 Cl
ATOM      9  C   UNN dAMED      -4.166   1.019   0.520  0.00  0.00     0.012 A 
ATOM     10  C   UNN dAMED      -3.092   1.234  -0.340  0.00  0.00     0.007 A 
ENDBRANCH   3   4
ENDBRANCH   1   3
BRANCH   1  11
ATOM     11  S   UNN dAMED      -0.539  -0.085  -4.968  0.00  0.00    -0.070 SA
BRANCH  11  12
ATOM     12  C   UNN dAMED      -0.786  -1.843  -5.051  0.00  0.00     0.031 A 
ATOM     13  C   UNN dAMED      -0.295  -2.675  -4.044  0.00  0.00     0.007 A 
ATOM     14  C   UNN dAMED      -0.429  -4.059  -4.144  0.00  0.00     0.012 A 
ATOM     15  C   UNN dAMED      -1.038  -4.604  -5.271  0.00  0.00     0.058 A 
ATOM     16 CL   UNN dAMED      -1.256  -6.304  -5.373  0.00  0.00    -0.082 Cl
ATOM     17  C   UNN dAMED      -1.504  -3.789  -6.296  0.00  0.00     0.012 A 
ATOM     18  C   UNN dAMED      -1.369  -2.405  -6.188  0.00  0.00     0.007 A 
ENDBRANCH  11  12
ENDBRANCH   1  11
TORSDOF 4
