REMARK  6 active torsions:
REMARK  status: ('A' for Active; 'I' for Inactive)
REMARK    1  A    between atoms: AS_1  and  C_8 
REMARK    2  A    between atoms: AS_1  and  C_11 
REMARK    3  A    between atoms: AS_1  and  C_16 
REMARK    4  A    between atoms: C_5  and  N_25 
REMARK    5  A    between atoms: C_14  and  N_29 
REMARK    6  A    between atoms: C_20  and  N_21 
REMARK       I    between atoms: N_21  and  C_22 
REMARK       I    between atoms: N_25  and  C_26 
REMARK       I    between atoms: N_29  and  C_30 
ROOT
ATOM      1 AS   UNN dAMED       0.310  -0.322  -0.655  0.00  0.00     0.000 As
ATOM      2  O   UNN dAMED      -0.498  -0.050   0.686  0.00  0.00     0.000 OA
ENDROOT
BRANCH   1   3
ATOM      3  C   UNN dAMED       1.267  -1.976  -0.449  0.00  0.00     0.002 A 
ATOM      4  C   UNN dAMED       2.642  -2.130  -0.615  0.00  0.00     0.019 A 
ATOM      5  C   UNN dAMED       3.299  -3.331  -0.320  0.00  0.00     0.084 A 
ATOM      6  C   UNN dAMED       2.519  -4.376   0.195  0.00  0.00     0.019 A 
ATOM      7  C   UNN dAMED       1.141  -4.245   0.362  0.00  0.00     0.002 A 
ATOM      8  C   UNN dAMED       0.516  -3.044   0.043  0.00  0.00     0.000 A 
BRANCH   5   9
ATOM      9  N   UNN dAMED       4.637  -3.430  -0.445  0.00  0.00    -0.212 NA
ATOM     10  C   UNN dAMED       4.961  -4.348  -1.354  0.00  0.00     0.256 C 
ATOM     11  O   UNN dAMED       6.090  -4.749  -1.611  0.00  0.00    -0.270 OA
ATOM     12  C   UNN dAMED       3.815  -5.073  -2.007  0.00  0.00     0.100 C 
ENDBRANCH   5   9
ENDBRANCH   1   3
BRANCH   1  13
ATOM     13  C   UNN dAMED      -0.902  -0.402  -2.149  0.00  0.00     0.002 A 
ATOM     14  C   UNN dAMED      -1.871   0.572  -1.829  0.00  0.00     0.000 A 
ATOM     15  C   UNN dAMED      -2.888   0.878  -2.725  0.00  0.00     0.002 A 
ATOM     16  C   UNN dAMED      -2.933   0.226  -3.955  0.00  0.00     0.019 A 
ATOM     17  C   UNN dAMED      -1.982  -0.740  -4.310  0.00  0.00     0.084 A 
ATOM     18  C   UNN dAMED      -0.965  -1.026  -3.378  0.00  0.00     0.019 A 
BRANCH  17  19
ATOM     19  N   UNN dAMED      -1.962  -1.222  -5.569  0.00  0.00    -0.212 NA
ATOM     20  C   UNN dAMED      -2.109  -2.543  -5.612  0.00  0.00     0.256 C 
ATOM     21  O   UNN dAMED      -1.586  -3.297  -6.425  0.00  0.00    -0.270 OA
ATOM     22  C   UNN dAMED      -3.053  -3.164  -4.619  0.00  0.00     0.100 C 
ENDBRANCH  17  19
ENDBRANCH   1  13
BRANCH   1  23
ATOM     23  C   UNN dAMED       1.575   1.101  -0.907  0.00  0.00     0.002 A 
ATOM     24  C   UNN dAMED       2.544   0.910  -1.892  0.00  0.00     0.000 A 
ATOM     25  C   UNN dAMED       3.643   1.757  -1.960  0.00  0.00     0.002 A 
ATOM     26  C   UNN dAMED       3.752   2.821  -1.065  0.00  0.00     0.019 A 
ATOM     27  C   UNN dAMED       2.792   3.049  -0.068  0.00  0.00     0.084 A 
ATOM     28  C   UNN dAMED       1.709   2.161  -0.011  0.00  0.00     0.019 A 
BRANCH  27  29
ATOM     29  N   UNN dAMED       2.793   4.152   0.709  0.00  0.00    -0.212 NA
ATOM     30  C   UNN dAMED       3.949   4.335   1.342  0.00  0.00     0.256 C 
ATOM     31  O   UNN dAMED       4.168   5.168   2.214  0.00  0.00    -0.270 OA
ATOM     32  C   UNN dAMED       5.140   3.592   0.802  0.00  0.00     0.100 C 
ENDBRANCH  27  29
ENDBRANCH   1  23
TORSDOF 6
