REMARK  3 active torsions:
REMARK  status: ('A' for Active; 'I' for Inactive)
REMARK    1  A    between atoms: N_2  and  C_13 
REMARK    2  A    between atoms: C_8  and  C_12 
REMARK    3  A    between atoms: C_12  and  C_13 
ROOT
ATOM      1  C   UNN dAMED      -0.097   0.436  -0.601  0.00  0.00     0.044 C 
ENDROOT
BRANCH   1   2
ATOM      2  C   UNN dAMED      -1.517   0.267  -0.137  0.00  0.00    -0.018 A 
ATOM      3  C   UNN dAMED      -2.021  -1.010   0.079  0.00  0.00     0.017 A 
ATOM      4  C   UNN dAMED      -3.382  -1.136   0.308  0.00  0.00     0.099 A 
ATOM      5  N   UNN dAMED      -4.249  -0.100   0.322  0.00  0.00    -0.243 NA
ATOM      6  C   UNN dAMED      -3.722   1.123   0.092  0.00  0.00     0.099 A 
ATOM      7  C   UNN dAMED      -2.377   1.358  -0.147  0.00  0.00     0.017 A 
ENDBRANCH   1   2
BRANCH   1   8
ATOM      8  C   UNN dAMED       0.511   1.836  -0.719  0.00  0.00     0.086 C 
BRANCH   8   9
ATOM      9  N   UNN dAMED       1.135   2.233  -1.933  0.00  0.00    -0.230 NA
ATOM     10  C   UNN dAMED       0.275   1.989  -2.962  0.00  0.00     0.051 C 
ATOM     11  C   UNN dAMED       0.987   1.298  -3.917  0.00  0.00     0.014 C 
ATOM     12  C   UNN dAMED       2.256   0.996  -3.363  0.00  0.00     0.014 C 
ATOM     13  C   UNN dAMED       2.281   1.512  -2.086  0.00  0.00     0.051 C 
ENDBRANCH   8   9
ENDBRANCH   1   8
TORSDOF 3
