REMARK  2 active torsions:
REMARK  status: ('A' for Active; 'I' for Inactive)
REMARK    1  A    between atoms: C_5  and  C_15 
REMARK    2  A    between atoms: C_9  and  C_15 
ROOT
ATOM      1  H   UNN dAMED      -0.595   2.377  -1.651  0.00  0.00     0.318 HD
ATOM      2  N   UNN dAMED       0.064   2.375  -2.427  0.00  0.00     0.116 N 
ATOM      3  C   UNN dAMED       0.538  -0.436  -0.498  0.00  0.00     0.135 C 
ATOM      4  C   UNN dAMED       1.535   0.209  -1.890  0.00  0.00     0.066 C 
ATOM      5  C   UNN dAMED       1.445   1.712  -2.197  0.00  0.00     0.249 C 
ATOM      6  C   UNN dAMED       1.538   0.211  -1.893  0.00  0.00     0.066 C 
ATOM      7  C   UNN dAMED       1.444   1.704  -2.248  0.00  0.00     0.249 C 
ATOM      8  O   UNN dAMED      -0.673  -0.656  -0.944  0.00  0.00    -0.226 OA
ENDROOT
BRANCH   3   9
ATOM      9  C   UNN dAMED       1.635  -0.097  -1.929  0.00  0.00     0.057 C 
BRANCH   9  10
ATOM     10  C   UNN dAMED       2.598  -1.191  -2.364  0.00  0.00    -0.020 A 
ATOM     11  C   UNN dAMED       2.800  -2.311  -1.551  0.00  0.00    -0.004 A 
ATOM     12  C   UNN dAMED       3.650  -3.339  -1.948  0.00  0.00    -0.000 A 
ATOM     13  C   UNN dAMED       4.307  -3.262  -3.173  0.00  0.00    -0.000 A 
ATOM     14  C   UNN dAMED       4.101  -2.155  -3.995  0.00  0.00    -0.000 A 
ATOM     15  C   UNN dAMED       3.253  -1.124  -3.592  0.00  0.00    -0.004 A 
ENDBRANCH   9  10
ENDBRANCH   3   9
TORSDOF 2
