REMARK  2 active torsions:
REMARK  status: ('A' for Active; 'I' for Inactive)
REMARK    1  A    between atoms: N_8  and  C_23 
REMARK    2  A    between atoms: C_11  and  C_23 
ROOT
ATOM      1  C   UNN dAMED      -3.604   3.093   0.877  0.00  0.00     0.001 A 
ATOM      2  C   UNN dAMED      -2.343   3.561   0.531  0.00  0.00     0.002 A 
ATOM      3  C   UNN dAMED      -3.865   1.725   0.848  0.00  0.00     0.008 A 
ATOM      4  C   UNN dAMED      -1.351   2.658   0.157  0.00  0.00     0.018 A 
ATOM      5  C   UNN dAMED      -2.873   0.813   0.474  0.00  0.00     0.045 A 
ATOM      6  C   UNN dAMED      -1.602   1.280   0.124  0.00  0.00     0.066 A 
ATOM      7  S   UNN dAMED      -3.318  -0.907   0.474  0.00  0.00    -0.084 SA
ATOM      8  N   UNN dAMED      -0.540   0.431  -0.268  0.00  0.00    -0.327 N 
ATOM      9  C   UNN dAMED      -1.809  -1.686  -0.047  0.00  0.00     0.045 A 
ATOM     10  C   UNN dAMED      -0.640  -0.978  -0.347  0.00  0.00     0.066 A 
ATOM     11  C   UNN dAMED       0.500  -1.687  -0.750  0.00  0.00     0.018 A 
ATOM     12  C   UNN dAMED      -1.818  -3.080  -0.154  0.00  0.00     0.008 A 
ATOM     13  C   UNN dAMED       0.483  -3.075  -0.854  0.00  0.00     0.002 A 
ATOM     14  C   UNN dAMED      -0.680  -3.774  -0.555  0.00  0.00     0.001 A 
ENDROOT
BRANCH   8  15
ATOM     15  C   UNN dAMED       0.736   1.045  -0.603  0.00  0.00     0.108 C 
BRANCH  15  16
ATOM     16  C   UNN dAMED       1.716   1.425   0.511  0.00  0.00     0.056 C 
ATOM     17  C   UNN dAMED       1.334   1.223   1.959  0.00  0.00     0.008 C 
ATOM     18  C   UNN dAMED       0.594   2.461   2.410  0.00  0.00     0.035 C 
ATOM     19  C   UNN dAMED       2.613   1.141   2.760  0.00  0.00     0.035 C 
ATOM     20  C   UNN dAMED       1.495   3.684   2.199  0.00  0.00     0.250 C 
ATOM     21  N   UNN dAMED       2.847   3.440   1.640  0.00  0.00     0.137 N 
ATOM     22  C   UNN dAMED       2.547   2.707   0.388  0.00  0.00     0.252 C 
ATOM     23  C   UNN dAMED       3.428   2.419   2.539  0.00  0.00     0.250 C 
ENDBRANCH  15  16
ENDBRANCH   8  15
TORSDOF 2
