REMARK  1 active torsions:
REMARK  status: ('A' for Active; 'I' for Inactive)
REMARK    1  A    between atoms: N_10  and  O_11 
ROOT
ATOM      1  O   UNN dAMED      -2.746  -1.642   0.017  0.00  0.00    -0.287 OA
ATOM      2  C   UNN dAMED      -0.870   1.372  -0.064  0.00  0.00     0.020 A 
ATOM      3  C   UNN dAMED      -1.933   0.568  -0.051  0.00  0.00     0.018 A 
ATOM      4  C   UNN dAMED       0.535   0.828  -0.023  0.00  0.00     0.103 A 
ATOM      5  C   UNN dAMED       0.696  -0.643   0.038  0.00  0.00    -0.003 A 
ATOM      6  C   UNN dAMED      -1.777  -0.893   0.006  0.00  0.00     0.188 A 
ATOM      7  C   UNN dAMED      -0.393  -1.417   0.050  0.00  0.00     0.014 A 
ATOM      8  C   UNN dAMED      -3.307   1.174  -0.093  0.00  0.00     0.034 C 
ATOM      9  C   UNN dAMED      -0.207  -2.908   0.112  0.00  0.00     0.034 C 
ATOM     10  N   UNN dAMED       1.500   1.691  -0.043  0.00  0.00    -0.132 NA
ATOM     11  C   UNN dAMED       2.067  -1.254   0.085  0.00  0.00     0.032 C 
ENDROOT
BRANCH  10  12
ATOM     12  O   UNN dAMED       2.742   1.051  -0.000  0.00  0.00    -0.234 OA
ATOM     13  C   UNN dAMED       2.660   0.038  -0.959  0.00  0.00     0.211 C 
ENDBRANCH  10  12
TORSDOF 1
