REMARK  0 active torsions:
REMARK  status: ('A' for Active; 'I' for Inactive)
ROOT
ATOM      1  C   UNN dAMED      -5.387  -0.098   2.844  0.00  0.00     0.000 A 
ATOM      2  C   UNN dAMED      -6.332   0.557   2.059  0.00  0.00     0.002 A 
ATOM      3  C   UNN dAMED      -4.072  -0.257   2.407  0.00  0.00     0.001 A 
ATOM      4  C   UNN dAMED      -6.006   1.068   0.800  0.00  0.00     0.017 A 
ATOM      5  C   UNN dAMED      -3.716   0.248   1.147  0.00  0.00     0.013 A 
ATOM      6  C   UNN dAMED      -4.686   0.898   0.365  0.00  0.00     0.056 A 
ATOM      7  N   UNN dAMED      -4.074   1.310  -0.811  0.00  0.00    -0.357 N 
ATOM      8  H   UNN dAMED      -4.525   1.834  -1.551  0.00  0.00     0.166 HD
ATOM      9  C   UNN dAMED      -2.524   0.302   0.409  0.00  0.00    -0.009 A 
ATOM     10  C   UNN dAMED      -2.786   0.888  -0.787  0.00  0.00     0.030 A 
ATOM     11  C   UNN dAMED      -1.160  -0.183   0.794  0.00  0.00     0.031 C 
ATOM     12  C   UNN dAMED      -1.672   1.247  -1.704  0.00  0.00     0.044 C 
ATOM     13  C   UNN dAMED       0.118   0.574   0.296  0.00  0.00     0.019 C 
ATOM     14  C   UNN dAMED      -0.301   0.651  -1.344  0.00  0.00     0.010 C 
ATOM     15  C   UNN dAMED       1.467  -0.205   0.347  0.00  0.00    -0.049 C 
ATOM     16  C   UNN dAMED       2.085  -0.586   1.684  0.00  0.00     0.022 C 
ATOM     17  C   UNN dAMED       0.824   0.958  -2.334  0.00  0.00     0.005 C 
ATOM     18  C   UNN dAMED       2.166   0.287  -2.106  0.00  0.00     0.025 C 
ATOM     19  C   UNN dAMED       2.553   0.158  -0.642  0.00  0.00    -0.038 C 
ATOM     20  C   UNN dAMED       3.620  -0.713   1.643  0.00  0.00     0.011 C 
ATOM     21  C   UNN dAMED       4.334  -1.790   0.638  0.00  0.00     0.043 C 
ATOM     22  C   UNN dAMED       3.978  -0.209  -0.234  0.00  0.00    -0.047 C 
ATOM     23  C   UNN dAMED       5.869  -1.236   0.611  0.00  0.00     0.156 C 
ATOM     24  C   UNN dAMED       5.105   0.252  -1.133  0.00  0.00     0.024 C 
ATOM     25  C   UNN dAMED       6.319  -0.451  -0.617  0.00  0.00     0.038 C 
ATOM     26  C   UNN dAMED      -0.129   0.011  -1.256  0.00  0.00     0.004 C 
ATOM     27  C   UNN dAMED       3.993  -0.273  -0.198  0.00  0.00     0.007 C 
ATOM     28  O   UNN dAMED       6.813  -1.849   1.384  0.00  0.00    -0.223 OA
ENDROOT
TORSDOF 0
