REMARK  6 active torsions:
REMARK  status: ('A' for Active; 'I' for Inactive)
REMARK    1  A    between atoms: O_1  and  C_7 
REMARK    2  A    between atoms: O_1  and  C_20 
REMARK    3  A    between atoms: C_8  and  C_20 
REMARK    4  A    between atoms: C_10  and  C_22 
REMARK    5  A    between atoms: C_15  and  O_24 
REMARK    6  A    between atoms: C_22  and  O_24 
ROOT
ATOM      1  C   UNN dAMED      -1.111   2.440   0.076  0.00  0.00     0.068 A 
ATOM      2  C   UNN dAMED      -2.127   2.953  -0.734  0.00  0.00     0.005 A 
ATOM      3  C   UNN dAMED       0.206   2.882  -0.085  0.00  0.00     0.068 A 
ATOM      4  C   UNN dAMED       0.507   3.808  -1.087  0.00  0.00     0.005 A 
ATOM      5  C   UNN dAMED      -1.829   3.915  -1.698  0.00  0.00     0.000 A 
ATOM      6  C   UNN dAMED      -0.511   4.329  -1.885  0.00  0.00     0.000 A 
ENDROOT
BRANCH   1   7
ATOM      7  C   UNN dAMED      -1.468   1.411   1.060  0.00  0.00     0.296 C 
ATOM      8  O   UNN dAMED      -1.068   0.262   1.046  0.00  0.00    -0.259 OA
BRANCH   7   9
ATOM      9  O   UNN dAMED      -2.298   1.955   1.975  0.00  0.00    -0.301 OA
BRANCH   9  10
ATOM     10  C   UNN dAMED      -3.233   2.670   1.225  0.00  0.00     0.125 C 
ATOM     11  C   UNN dAMED      -4.726   2.569   1.567  0.00  0.00     0.030 C 
ATOM     12  C   UNN dAMED      -5.391   3.859   2.059  0.00  0.00     0.003 C 
ATOM     13  C   UNN dAMED      -4.949   5.141   1.346  0.00  0.00     0.000 C 
ATOM     14  C   UNN dAMED      -3.447   5.246   1.069  0.00  0.00     0.003 C 
ATOM     15  C   UNN dAMED      -2.798   3.967   0.536  0.00  0.00     0.030 C 
ENDBRANCH   9  10
ENDBRANCH   7   9
ENDBRANCH   1   7
BRANCH   3  16
ATOM     16  C   UNN dAMED       1.303   2.409   0.775  0.00  0.00     0.296 C 
ATOM     17  O   UNN dAMED       1.617   1.246   0.942  0.00  0.00    -0.259 OA
BRANCH  16  18
ATOM     18  O   UNN dAMED       1.917   3.469   1.343  0.00  0.00    -0.301 OA
BRANCH  18  19
ATOM     19  C   UNN dAMED       3.219   3.025   1.598  0.00  0.00     0.125 C 
ATOM     20  C   UNN dAMED       4.224   2.923   0.443  0.00  0.00     0.030 C 
ATOM     21  C   UNN dAMED       5.689   2.697   0.837  0.00  0.00     0.003 C 
ATOM     22  C   UNN dAMED       5.928   1.737   2.006  0.00  0.00     0.000 C 
ATOM     23  C   UNN dAMED       4.933   1.859   3.163  0.00  0.00     0.003 C 
ATOM     24  C   UNN dAMED       3.468   2.051   2.756  0.00  0.00     0.030 C 
ENDBRANCH  18  19
ENDBRANCH  16  18
ENDBRANCH   3  16
TORSDOF 6
