REMARK  4 active torsions:
REMARK  status: ('A' for Active; 'I' for Inactive)
REMARK    1  A    between atoms: C_5  and  N_20 
REMARK    2  A    between atoms: C_16  and  C_22 
REMARK    3  A    between atoms: N_20  and  C_21 
REMARK    4  A    between atoms: C_21  and  C_22 
ROOT
ATOM      1  O   UNN dAMED      -0.776  -1.737  -0.849  0.00  0.00    -0.285 OA
ATOM      2  O   UNN dAMED      -3.462   2.575   0.818  0.00  0.00    -0.286 OA
ATOM      3 CL   UNN dAMED      -0.680   3.242   0.169  0.00  0.00    -0.077 Cl
ATOM      4  C   UNN dAMED      -1.368  -0.722  -0.492  0.00  0.00     0.214 A 
ATOM      5  C   UNN dAMED      -0.685   0.615  -0.398  0.00  0.00     0.129 A 
ATOM      6  C   UNN dAMED      -2.797  -0.811  -0.152  0.00  0.00     0.044 A 
ATOM      7  C   UNN dAMED      -3.448  -2.039  -0.285  0.00  0.00     0.003 A 
ATOM      8  C   UNN dAMED      -4.805  -2.145   0.014  0.00  0.00     0.000 A 
ATOM      9  C   UNN dAMED      -1.405   1.667   0.036  0.00  0.00     0.117 A 
ATOM     10  C   UNN dAMED      -3.503   0.301   0.282  0.00  0.00     0.043 A 
ATOM     11  C   UNN dAMED      -5.511  -1.027   0.449  0.00  0.00     0.000 A 
ATOM     12  C   UNN dAMED      -2.838   1.600   0.418  0.00  0.00     0.208 A 
ATOM     13  C   UNN dAMED      -4.861   0.197   0.585  0.00  0.00     0.003 A 
ENDROOT
BRANCH   5  14
ATOM     14  N   UNN dAMED       0.607   0.561  -0.792  0.00  0.00    -0.266 NA
BRANCH  14  15
ATOM     15  C   UNN dAMED       1.410  -0.624  -0.528  0.00  0.00     0.131 C 
BRANCH  15  16
ATOM     16  C   UNN dAMED       2.696  -0.887  -1.328  0.00  0.00     0.053 C 
BRANCH  16  17
ATOM     17  C   UNN dAMED       3.758   0.174  -1.443  0.00  0.00    -0.020 A 
ATOM     18  C   UNN dAMED       4.577   0.455  -0.352  0.00  0.00    -0.004 A 
ATOM     19  C   UNN dAMED       5.452   1.537  -0.401  0.00  0.00    -0.000 A 
ATOM     20  C   UNN dAMED       5.502   2.342  -1.537  0.00  0.00    -0.000 A 
ATOM     21  C   UNN dAMED       4.680   2.063  -2.626  0.00  0.00    -0.000 A 
ATOM     22  C   UNN dAMED       3.806   0.980  -2.578  0.00  0.00    -0.004 A 
ENDBRANCH  16  17
ENDBRANCH  15  16
ENDBRANCH  14  15
ENDBRANCH   5  14
TORSDOF 4
