REMARK  3 active torsions:
REMARK  status: ('A' for Active; 'I' for Inactive)
REMARK    1  A    between atoms: C_1  and  S_7 
REMARK    2  A    between atoms: S_7  and  C_11 
REMARK    3  A    between atoms: C_8  and  C_11 
ROOT
ATOM      1  C   UNN dAMED      -0.617   0.017  -0.098  0.00  0.00     0.190 A 
ATOM      2  C   UNN dAMED      -2.674  -0.013   0.524  0.00  0.00     0.141 A 
ATOM      3  N   UNN dAMED      -1.948  -0.005   1.616  0.00  0.00    -0.133 NA
ATOM      4  N   UNN dAMED      -1.888   0.005  -0.585  0.00  0.00    -0.320 N 
ATOM      5  N   UNN dAMED      -0.624   0.011   1.215  0.00  0.00    -0.123 NA
ATOM      6  H   UNN dAMED      -2.178   0.005  -1.554  0.00  0.00     0.169 HD
ATOM      7  C   UNN dAMED      -4.172  -0.001   0.504  0.00  0.00     0.074 C 
ENDROOT
BRANCH   1   8
ATOM      8  S   UNN dAMED       0.743   0.023  -1.144  0.00  0.00    -0.064 SA
BRANCH   8   9
ATOM      9  C   UNN dAMED       1.932  -0.169   0.182  0.00  0.00     0.162 C 
BRANCH   9  10
ATOM     10  C   UNN dAMED       3.144   0.722   0.255  0.00  0.00     0.197 C 
ATOM     11  O   UNN dAMED       2.996   1.838   0.838  0.00  0.00    -0.647 OA
ATOM     12  O   UNN dAMED       4.205   0.272  -0.273  0.00  0.00    -0.647 OA
ENDBRANCH   9  10
ENDBRANCH   8   9
ENDBRANCH   1   8
TORSDOF 3
