REMARK  2 active torsions:
REMARK  status: ('A' for Active; 'I' for Inactive)
REMARK    1  A    between atoms: C_5  and  N_6 
REMARK    2  A    between atoms: N_9  and  C_10 
ROOT
ATOM      1  S   UNN dAMED      -2.850  -1.617   0.126  0.00  0.00    -0.011 SA
ATOM      2  S   UNN dAMED      -0.819  -1.597   0.170  0.00  0.00    -0.009 SA
ATOM      3  C   UNN dAMED      -0.715   0.146  -0.084  0.00  0.00     0.202 A 
ATOM      4  N   UNN dAMED      -1.903   0.846  -0.092  0.00  0.00    -0.197 NA
ATOM      5  C   UNN dAMED      -2.986   0.133   0.004  0.00  0.00     0.180 A 
ATOM      6  N   UNN dAMED       0.379   0.821  -0.264  0.00  0.00    -0.221 NA
ENDROOT
BRANCH   6   7
ATOM      7  C   UNN dAMED       1.624   0.178  -0.276  0.00  0.00     0.084 A 
ATOM      8  C   UNN dAMED       2.405   0.135   0.882  0.00  0.00     0.019 A 
ATOM      9  C   UNN dAMED       3.665  -0.462   0.863  0.00  0.00     0.002 A 
ATOM     10  C   UNN dAMED       4.159  -1.008  -0.318  0.00  0.00     0.011 A 
ATOM     11  C   UNN dAMED       3.392  -0.945  -1.476  0.00  0.00     0.059 A 
ATOM     12  C   UNN dAMED       2.136  -0.347  -1.465  0.00  0.00     0.031 A 
ATOM     13 CL   UNN dAMED       3.998  -1.615  -2.934  0.00  0.00    -0.082 Cl
ENDBRANCH   6   7
BRANCH   5  14
ATOM     14  N   UNN dAMED      -4.268   0.626   0.014  0.00  0.00    -0.324 N 
ATOM     15  C   UNN dAMED      -5.393  -0.288   0.079  0.00  0.00     0.128 C 
ATOM     16  C   UNN dAMED      -4.493   2.056   0.103  0.00  0.00     0.128 C 
ENDBRANCH   5  14
TORSDOF 2
