REMARK  3 active torsions:
REMARK  status: ('A' for Active; 'I' for Inactive)
REMARK    1  A    between atoms: S_2  and  C_6 
REMARK    2  A    between atoms: C_16  and  C_20 
REMARK    3  A    between atoms: C_20  and  C_21 
ROOT
ATOM      1 CL   UNN dAMED      -1.634  -0.579   5.369  0.00  0.00    -0.082 Cl
ATOM      2  C   UNN dAMED      -1.524   0.165   3.823  0.00  0.00     0.071 A 
ATOM      3  C   UNN dAMED      -2.630   0.619   3.114  0.00  0.00     0.118 A 
ATOM      4  C   UNN dAMED      -0.257   0.300   3.255  0.00  0.00     0.030 A 
ATOM      5  C   UNN dAMED      -2.491   1.211   1.864  0.00  0.00     0.028 A 
ATOM      6  C   UNN dAMED      -1.216   1.348   1.320  0.00  0.00     0.120 A 
ATOM      7  C   UNN dAMED      -0.078   0.903   2.003  0.00  0.00     0.071 A 
ATOM      8  O   UNN dAMED      -0.977   3.512  -0.064  0.00  0.00    -0.200 OA
ATOM      9  N   UNN dAMED       1.202   0.884   1.419  0.00  0.00    -0.342 N 
ATOM     10  S   UNN dAMED      -1.120   2.086  -0.278  0.00  0.00     0.267 S 
ATOM     11  H   UNN dAMED       1.945   0.766   2.103  0.00  0.00     0.167 HD
ATOM     12  O   UNN dAMED      -2.197   1.533  -1.076  0.00  0.00    -0.200 OA
ATOM     13  C   UNN dAMED       1.470   1.382   0.079  0.00  0.00     0.108 C 
ATOM     14  N   UNN dAMED       0.360   1.451  -0.853  0.00  0.00    -0.268 N 
ATOM     15  H   UNN dAMED       0.271   0.718  -1.569  0.00  0.00     0.180 HD
ENDROOT
BRANCH  13  16
ATOM     16  C   UNN dAMED       2.874   1.171  -0.505  0.00  0.00     0.089 C 
BRANCH  16  17
ATOM     17  C   UNN dAMED       4.031   2.056  -0.128  0.00  0.00    -0.015 A 
ATOM     18  C   UNN dAMED       4.336   2.271   1.215  0.00  0.00    -0.004 A 
ATOM     19  C   UNN dAMED       5.504   2.942   1.566  0.00  0.00    -0.000 A 
ATOM     20  C   UNN dAMED       6.374   3.390   0.576  0.00  0.00    -0.000 A 
ATOM     21  C   UNN dAMED       6.073   3.172  -0.767  0.00  0.00    -0.000 A 
ATOM     22  C   UNN dAMED       4.904   2.501  -1.118  0.00  0.00    -0.004 A 
ENDBRANCH  16  17
ENDBRANCH  13  16
BRANCH   3  23
ATOM     23  S   UNN dAMED      -4.259   0.438   3.757  0.00  0.00     0.303 S 
ATOM     24  O   UNN dAMED      -4.870  -0.610   2.959  0.00  0.00    -0.197 OA
ATOM     25  O   UNN dAMED      -4.825   1.774   3.768  0.00  0.00    -0.197 OA
ATOM     26  N   UNN dAMED      -4.140  -0.110   5.370  0.00  0.00    -0.043 N 
ENDBRANCH   3  23
TORSDOF 3
