REMARK  0 active torsions:
REMARK  status: ('A' for Active; 'I' for Inactive)
ROOT
ATOM      1 CL   UNN dAMED      -4.665  -1.157   0.869  0.00  0.00    -0.082 Cl
ATOM      2 CL   UNN dAMED      -4.152   1.270  -1.252  0.00  0.00    -0.082 Cl
ATOM      3  C   UNN dAMED      -2.009  -1.273   1.056  0.00  0.00     0.008 A 
ATOM      4  C   UNN dAMED      -3.081  -0.617   0.444  0.00  0.00     0.068 A 
ATOM      5  C   UNN dAMED      -0.736  -0.856   0.729  0.00  0.00    -0.017 A 
ATOM      6  C   UNN dAMED       0.586  -1.377   1.231  0.00  0.00     0.053 A 
ATOM      7  C   UNN dAMED       1.602  -0.525   0.514  0.00  0.00    -0.017 A 
ATOM      8  C   UNN dAMED       2.977  -0.570   0.598  0.00  0.00     0.010 A 
ATOM      9  C   UNN dAMED       3.691   0.341  -0.180  0.00  0.00     0.070 A 
ATOM     10  C   UNN dAMED      -2.859   0.432  -0.473  0.00  0.00     0.068 A 
ATOM     11  C   UNN dAMED      -0.503   0.193  -0.188  0.00  0.00    -0.003 A 
ATOM     12  C   UNN dAMED       0.927   0.396  -0.320  0.00  0.00    -0.004 A 
ATOM     13  C   UNN dAMED       3.031   1.261  -1.013  0.00  0.00     0.014 A 
ATOM     14  C   UNN dAMED      -1.561   0.843  -0.793  0.00  0.00     0.012 A 
ATOM     15  C   UNN dAMED       1.637   1.297  -1.090  0.00  0.00     0.001 A 
ATOM     16  N   UNN dAMED       5.114   0.341  -0.132  0.00  0.00    -0.101 NA
ENDROOT
TORSDOF 0
