REMARK  4 active torsions:
REMARK  status: ('A' for Active; 'I' for Inactive)
REMARK    1  A    between atoms: C_5  and  N_17 
REMARK    2  A    between atoms: C_11  and  N_17 
REMARK    3  A    between atoms: C_14  and  N_18 
REMARK    4  A    between atoms: N_18  and  C_19 
ROOT
ATOM      1  C   UNN dAMED      -2.840  -3.035   0.810  0.00  0.00     0.081 A 
ATOM      2  C   UNN dAMED      -2.689  -4.390   0.562  0.00  0.00     0.021 A 
ATOM      3  C   UNN dAMED      -2.759  -5.320   1.601  0.00  0.00     0.021 A 
ATOM      4  C   UNN dAMED      -2.999  -4.930   2.928  0.00  0.00     0.082 A 
ATOM      5  C   UNN dAMED      -3.223  -3.568   3.146  0.00  0.00     0.021 A 
ATOM      6  C   UNN dAMED      -3.149  -2.635   2.113  0.00  0.00     0.021 A 
ENDROOT
BRANCH   1   7
ATOM      7  N   UNN dAMED      -2.619  -2.121  -0.153  0.00  0.00    -0.254 NA
BRANCH   7   8
ATOM      8  C   UNN dAMED      -3.065  -0.759   0.067  0.00  0.00     0.041 C 
ATOM      9  C   UNN dAMED      -2.897   0.315  -1.009  0.00  0.00     0.075 C 
ATOM     10  C   UNN dAMED      -4.179   1.105  -1.359  0.00  0.00     0.232 C 
ATOM     11  N   UNN dAMED      -4.656   1.795  -0.176  0.00  0.00     0.331 N 
ATOM     12  C   UNN dAMED      -5.263   0.125  -1.793  0.00  0.00     0.036 C 
ATOM     13  C   UNN dAMED      -3.595   2.108  -2.351  0.00  0.00     0.036 C 
ATOM     14  C   UNN dAMED      -5.409   0.829   0.611  0.00  0.00     0.232 C 
ATOM     15  C   UNN dAMED      -4.289  -0.581   0.963  0.00  0.00     0.075 C 
ATOM     16  C   UNN dAMED      -4.275  -0.591   0.967  0.00  0.00     0.036 C 
ATOM     17  C   UNN dAMED      -4.279  -0.594   0.966  0.00  0.00     0.036 C 
ENDBRANCH   7   8
ENDBRANCH   1   7
BRANCH   4  18
ATOM     18  N   UNN dAMED      -2.932  -5.743   4.004  0.00  0.00    -0.246 NA
BRANCH  18  19
ATOM     19  C   UNN dAMED      -2.946  -7.070   3.766  0.00  0.00     0.081 A 
ATOM     20  C   UNN dAMED      -4.136  -7.803   3.831  0.00  0.00     0.019 A 
ATOM     21  C   UNN dAMED      -4.136  -9.197   3.755  0.00  0.00     0.002 A 
ATOM     22  C   UNN dAMED      -2.931  -9.884   3.623  0.00  0.00     0.000 A 
ATOM     23  C   UNN dAMED      -1.737  -9.179   3.547  0.00  0.00     0.002 A 
ATOM     24  C   UNN dAMED      -1.746  -7.787   3.631  0.00  0.00     0.019 A 
ENDBRANCH  18  19
ENDBRANCH   4  18
TORSDOF 4
