REMARK  2 active torsions:
REMARK  status: ('A' for Active; 'I' for Inactive)
REMARK    1  A    between atoms: N_3  and  N_4 
REMARK    2  A    between atoms: C_12  and  C_16 
ROOT
ATOM      1  C   UNN dAMED      -4.654   0.297   0.479  0.00  0.00     0.026 A 
ATOM      2  C   UNN dAMED      -5.071  -0.596  -0.698  0.00  0.00     0.009 A 
ATOM      3  C   UNN dAMED      -3.154   0.338   0.455  0.00  0.00    -0.026 A 
ATOM      4  C   UNN dAMED      -2.317   1.072   1.269  0.00  0.00    -0.004 A 
ATOM      5  C   UNN dAMED      -0.949   1.023   0.999  0.00  0.00     0.001 A 
ATOM      6  C   UNN dAMED      -3.777  -1.035  -1.400  0.00  0.00     0.026 A 
ATOM      7  C   UNN dAMED      -2.654  -0.422  -0.615  0.00  0.00    -0.026 A 
ATOM      8  C   UNN dAMED      -0.444   0.256  -0.066  0.00  0.00     0.021 A 
ATOM      9  C   UNN dAMED      -1.303  -0.471  -0.895  0.00  0.00    -0.003 A 
ENDROOT
BRANCH   8  10
ATOM     10  C   UNN dAMED       1.040   0.237  -0.329  0.00  0.00     0.121 C 
ATOM     11  N   UNN dAMED       1.781  -0.593   0.251  0.00  0.00    -0.161 NA
BRANCH  11  12
ATOM     12  N   UNN dAMED       3.097  -0.607   0.007  0.00  0.00    -0.186 N 
ATOM     13  C   UNN dAMED       3.796   0.253  -0.792  0.00  0.00     0.224 A 
ATOM     14  N   UNN dAMED       5.069  -0.083  -0.780  0.00  0.00    -0.124 NA
ATOM     15  N   UNN dAMED       5.207  -1.181   0.041  0.00  0.00    -0.124 NA
ATOM     16  C   UNN dAMED       4.015  -1.486   0.508  0.00  0.00     0.224 A 
ENDBRANCH  11  12
ENDBRANCH   8  10
TORSDOF 2
