REMARK  2 active torsions:
REMARK  status: ('A' for Active; 'I' for Inactive)
REMARK    1  A    between atoms: N_10  and  C_15 
REMARK       I    between atoms: C_11  and  N_13 
REMARK    2  A    between atoms: C_11  and  C_15 
ROOT
ATOM      1  C   UNN dAMED      -2.282  -0.957   4.291  0.00  0.00     0.160 C 
ATOM      2  C   UNN dAMED      -1.382  -1.285   3.094  0.00  0.00     0.112 C 
ATOM      3  C   UNN dAMED      -3.440   0.082   2.895  0.00  0.00     0.160 C 
ATOM      4  C   UNN dAMED      -2.379  -0.362   1.875  0.00  0.00     0.112 C 
ATOM      5  C   UNN dAMED      -0.295  -0.911   1.145  0.00  0.00     0.247 C 
ATOM      6  O   UNN dAMED      -0.868  -1.508   0.240  0.00  0.00    -0.276 OA
ATOM      7  N   UNN dAMED      -0.961  -0.258   2.164  0.00  0.00    -0.216 NA
ATOM      8  O   UNN dAMED      -3.631  -0.629   4.091  0.00  0.00    -0.351 OA
ENDROOT
BRANCH   5   9
ATOM      9  C   UNN dAMED       1.179  -1.235   1.365  0.00  0.00     0.331 C 
BRANCH   9  10
ATOM     10  N   UNN dAMED       2.304  -1.132   0.076  0.00  0.00     0.151 N 
ATOM     11  C   UNN dAMED       1.188  -1.240   1.343  0.00  0.00     0.283 C 
ATOM     12  C   UNN dAMED       1.540  -2.098   2.573  0.00  0.00     0.178 C 
ATOM     13  O   UNN dAMED       2.349  -1.560   3.620  0.00  0.00    -0.350 OA
ATOM     14  C   UNN dAMED       1.506  -0.770   2.780  0.00  0.00     0.178 C 
ATOM     15  C   UNN dAMED       1.176  -1.239   1.353  0.00  0.00     0.283 C 
ENDBRANCH   9  10
ENDBRANCH   5   9
TORSDOF 2
