REMARK  1 active torsions:
REMARK  status: ('A' for Active; 'I' for Inactive)
REMARK    1  A    between atoms: C_2  and  O_21 
ROOT
ATOM      1  C   UNN dAMED      -5.115  -0.362  -1.199  0.00  0.00     0.024 A 
ATOM      2  C   UNN dAMED      -5.722  -0.598   0.028  0.00  0.00     0.094 A 
ATOM      3  C   UNN dAMED      -3.739  -0.160  -1.246  0.00  0.00     0.004 A 
ATOM      4  C   UNN dAMED      -4.987  -0.632   1.206  0.00  0.00     0.024 A 
ATOM      5  C   UNN dAMED      -2.986  -0.180  -0.071  0.00  0.00     0.026 A 
ATOM      6  C   UNN dAMED      -3.612  -0.422   1.154  0.00  0.00     0.004 A 
ATOM      7  C   UNN dAMED      -1.472  -0.084  -0.139  0.00  0.00     0.142 A 
ATOM      8  C   UNN dAMED      -0.657   1.163  -0.320  0.00  0.00     0.237 A 
ATOM      9  O   UNN dAMED      -0.669  -1.197   0.124  0.00  0.00    -0.285 OA
ATOM     10  C   UNN dAMED       0.602  -0.701   0.101  0.00  0.00     0.202 A 
ATOM     11  C   UNN dAMED       0.610   0.753  -0.198  0.00  0.00     0.140 A 
ATOM     12  N   UNN dAMED       1.639  -1.440   0.320  0.00  0.00    -0.219 NA
ATOM     13  N   UNN dAMED       1.831   1.344  -0.277  0.00  0.00    -0.347 N 
ATOM     14  H   UNN dAMED       1.890   2.340  -0.443  0.00  0.00     0.166 HD
ATOM     15  C   UNN dAMED       2.892  -0.781   0.261  0.00  0.00     0.099 A 
ATOM     16  C   UNN dAMED       2.997   0.600  -0.035  0.00  0.00     0.074 A 
ATOM     17  C   UNN dAMED       4.052  -1.519   0.502  0.00  0.00     0.016 A 
ATOM     18  C   UNN dAMED       4.255   1.201  -0.108  0.00  0.00     0.014 A 
ATOM     19  C   UNN dAMED       5.402   0.448   0.130  0.00  0.00    -0.024 A 
ATOM     20  C   UNN dAMED       5.301  -0.905   0.441  0.00  0.00    -0.024 A 
ATOM     21  O   UNN dAMED      -1.215   2.263  -0.559  0.00  0.00    -0.283 OA
ATOM     22  C   UNN dAMED       6.541  -1.705   0.719  0.00  0.00     0.031 C 
ATOM     23  C   UNN dAMED       6.754   1.100   0.059  0.00  0.00     0.031 C 
ENDROOT
BRANCH   2  24
ATOM     24  O   UNN dAMED      -7.068  -0.805   0.077  0.00  0.00    -0.328 OA
ATOM     25  C   UNN dAMED      -7.291  -1.468   1.286  0.00  0.00     0.181 C 
ENDBRANCH   2  24
TORSDOF 1
