REMARK  2 active torsions:
REMARK  status: ('A' for Active; 'I' for Inactive)
REMARK    1  A    between atoms: C_3  and  N_7 
REMARK       I    between atoms: N_7  and  C_8 
REMARK    2  A    between atoms: C_8  and  C_10 
ROOT
ATOM      1  N   UNN dAMED      -2.970  -0.486  -0.001  0.00  0.00    -0.241 NA
ATOM      2  C   UNN dAMED      -1.839  -1.185  -0.257  0.00  0.00     0.118 A 
ATOM      3  C   UNN dAMED      -0.544  -0.685  -0.165  0.00  0.00     0.104 A 
ATOM      4  C   UNN dAMED      -0.445   0.665   0.184  0.00  0.00     0.022 A 
ATOM      5  C   UNN dAMED      -1.577   1.426   0.463  0.00  0.00     0.022 A 
ATOM      6  C   UNN dAMED      -2.808   0.804   0.359  0.00  0.00     0.099 A 
ENDROOT
BRANCH   3   7
ATOM      7  N   UNN dAMED       0.528  -1.429  -0.497  0.00  0.00    -0.207 NA
ATOM      8  C   UNN dAMED       1.151  -1.887   0.588  0.00  0.00     0.271 C 
ATOM      9  O   UNN dAMED       1.770  -2.940   0.683  0.00  0.00    -0.266 OA
BRANCH   8  10
ATOM     10  C   UNN dAMED       1.154  -0.987   1.793  0.00  0.00     0.014 C 
ATOM     11  C   UNN dAMED       1.692  -1.507   3.130  0.00  0.00     0.031 C 
ATOM     12  C   UNN dAMED       0.387   0.337   1.745  0.00  0.00     0.031 C 
ENDBRANCH   8  10
ENDBRANCH   3   7
TORSDOF 2
