REMARK  3 active torsions:
REMARK  status: ('A' for Active; 'I' for Inactive)
REMARK    1  A    between atoms: C_4  and  AS_17 
REMARK    2  A    between atoms: C_9  and  AS_17 
REMARK    3  A    between atoms: C_12  and  N_14 
ROOT
ATOM      1  O   UNN dAMED       1.116  -2.428   1.019  0.00  0.00     0.000 OA
ATOM      2 AS   UNN dAMED       0.771  -0.878   0.955  0.00  0.00     0.000 As
ATOM      3  O   UNN dAMED       0.513  -0.281   2.590  0.00  0.00     0.000 OA
ENDROOT
BRANCH   2   4
ATOM      4  C   UNN dAMED       2.245   0.040   0.135  0.00  0.00     0.000 A 
ATOM      5  C   UNN dAMED       2.566   0.275  -1.187  0.00  0.00     0.001 A 
ATOM      6  C   UNN dAMED       3.839   0.732  -1.525  0.00  0.00     0.014 A 
ATOM      7  C   UNN dAMED       4.795   0.946  -0.533  0.00  0.00     0.070 A 
ATOM      8  C   UNN dAMED       4.480   0.712   0.802  0.00  0.00     0.014 A 
ATOM      9  N   UNN dAMED       6.117   1.333  -0.892  0.00  0.00    -0.101 NA
ATOM     10  C   UNN dAMED       3.210   0.256   1.138  0.00  0.00     0.001 A 
ENDBRANCH   2   4
BRANCH   2  11
ATOM     11  C   UNN dAMED      -0.846  -0.604  -0.043  0.00  0.00     0.000 A 
ATOM     12  C   UNN dAMED      -1.295   0.635  -0.487  0.00  0.00     0.002 A 
ATOM     13  C   UNN dAMED      -2.626   0.800  -0.866  0.00  0.00     0.024 A 
ATOM     14  C   UNN dAMED      -3.496  -0.285  -0.772  0.00  0.00     0.127 A 
ATOM     15  C   UNN dAMED      -3.066  -1.531  -0.325  0.00  0.00     0.024 A 
ATOM     16  C   UNN dAMED      -1.733  -1.688   0.038  0.00  0.00     0.002 A 
BRANCH  14  17
ATOM     17  N   UNN dAMED      -4.896  -0.100  -1.097  0.00  0.00    -0.114 N 
ATOM     18  O   UNN dAMED      -5.315   1.062  -1.189  0.00  0.00    -0.532 OA
ATOM     19  O   UNN dAMED      -5.587  -1.116  -1.252  0.00  0.00    -0.532 OA
ENDBRANCH  14  17
ENDBRANCH   2  11
TORSDOF 3
