REMARK  2 active torsions:
REMARK  status: ('A' for Active; 'I' for Inactive)
REMARK    1  A    between atoms: C_8  and  N_16 
REMARK    2  A    between atoms: C_11  and  N_16 
ROOT
ATOM      1 CL   UNN dAMED      -3.010  -0.039   1.651  0.00  0.00    -0.079 Cl
ATOM      2 CL   UNN dAMED      -4.827  -0.318  -1.009  0.00  0.00    -0.059 Cl
ATOM      3  N   UNN dAMED      -2.770   0.536  -2.282  0.00  0.00    -0.134 NA
ATOM      4 CL   UNN dAMED      -0.016   1.016   1.242  0.00  0.00    -0.078 Cl
ATOM      5  N   UNN dAMED      -1.496   0.985  -2.456  0.00  0.00    -0.127 NA
ATOM      6  C   UNN dAMED      -1.097   0.824  -0.102  0.00  0.00     0.108 A 
ATOM      7  C   UNN dAMED      -2.403   0.363   0.083  0.00  0.00     0.102 A 
ATOM      8  C   UNN dAMED      -0.669   1.128  -1.395  0.00  0.00     0.195 A 
ATOM      9  C   UNN dAMED      -3.199   0.236  -1.042  0.00  0.00     0.171 A 
ENDROOT
BRANCH   8  10
ATOM     10  N   UNN dAMED       0.561   1.567  -1.711  0.00  0.00    -0.233 NA
BRANCH  10  11
ATOM     11  C   UNN dAMED       1.148   2.689  -0.998  0.00  0.00     0.039 C 
ATOM     12  C   UNN dAMED       2.053   2.399   0.209  0.00  0.00     0.041 C 
ATOM     13  C   UNN dAMED       2.565   3.611   0.995  0.00  0.00     0.006 C 
ATOM     14  C   UNN dAMED       2.969   4.818   0.149  0.00  0.00     0.001 C 
ATOM     15  C   UNN dAMED       1.990   5.162  -0.974  0.00  0.00     0.006 C 
ATOM     16  C   UNN dAMED       1.474   3.968  -1.784  0.00  0.00     0.041 C 
ENDBRANCH  10  11
ENDBRANCH   8  10
TORSDOF 2
