REMARK  4 active torsions:
REMARK  status: ('A' for Active; 'I' for Inactive)
REMARK    1  A    between atoms: C_7  and  C_11 
REMARK    2  A    between atoms: C_11  and  C_12 
REMARK    3  A    between atoms: C_12  and  C_13 
REMARK    4  A    between atoms: C_13  and  C_14 
ROOT
ATOM      1  O   UNN dAMED      -3.066   2.386   0.934  0.00  0.00    -0.267 OA
ATOM      2  H   UNN dAMED      -3.822   0.031   0.229  0.00  0.00     0.171 HD
ATOM      3  N   UNN dAMED      -2.828   0.222   0.155  0.00  0.00    -0.299 N 
ATOM      4  S   UNN dAMED      -2.600  -2.254  -0.798  0.00  0.00    -0.040 SA
ATOM      5  N   UNN dAMED      -0.650  -0.481  -0.431  0.00  0.00    -0.335 N 
ATOM      6  H   UNN dAMED      -0.031  -1.196  -0.801  0.00  0.00     0.168 HD
ATOM      7  C   UNN dAMED      -0.096   0.724  -0.085  0.00  0.00     0.040 A 
ATOM      8  C   UNN dAMED      -0.881   1.704   0.369  0.00  0.00     0.073 A 
ATOM      9  C   UNN dAMED      -2.362   1.469   0.526  0.00  0.00     0.260 A 
ATOM     10  C   UNN dAMED      -1.995  -0.763  -0.333  0.00  0.00     0.178 A 
ENDROOT
BRANCH   7  11
ATOM     11  C   UNN dAMED       1.366   0.980  -0.322  0.00  0.00     0.044 C 
BRANCH  11  12
ATOM     12  C   UNN dAMED       2.326  -0.186  -0.581  0.00  0.00     0.006 C 
BRANCH  12  13
ATOM     13  C   UNN dAMED       3.748   0.086  -1.084  0.00  0.00     0.000 C 
BRANCH  13  14
ATOM     14  C   UNN dAMED       4.363   1.481  -0.933  0.00  0.00     0.000 C 
ATOM     15  C   UNN dAMED       3.493   2.725  -1.136  0.00  0.00     0.000 C 
ENDBRANCH  13  14
ENDBRANCH  12  13
ENDBRANCH  11  12
ENDBRANCH   7  11
TORSDOF 4
