REMARK  3 active torsions:
REMARK  status: ('A' for Active; 'I' for Inactive)
REMARK    1  A    between atoms: C_2  and  C_8 
REMARK       I    between atoms: C_8  and  N_10 
REMARK    2  A    between atoms: N_10  and  C_11 
REMARK    3  A    between atoms: C_11  and  C_12 
ROOT
ATOM      1  C   UNN dAMED      -0.012   0.881  -0.353  0.00  0.00     0.005 A 
ATOM      2  C   UNN dAMED      -0.275  -0.485  -0.479  0.00  0.00     0.058 A 
ATOM      3  C   UNN dAMED      -0.945   1.721   0.255  0.00  0.00    -0.000 A 
ATOM      4  C   UNN dAMED      -1.479  -0.998   0.007  0.00  0.00     0.001 A 
ATOM      5  C   UNN dAMED      -2.148   1.205   0.732  0.00  0.00    -0.004 A 
ATOM      6  C   UNN dAMED      -2.412  -0.156   0.609  0.00  0.00    -0.022 A 
ATOM      7  C   UNN dAMED      -3.707  -0.729   1.106  0.00  0.00     0.031 C 
ENDROOT
BRANCH   2   8
ATOM      8  C   UNN dAMED       0.673  -1.419  -1.146  0.00  0.00     0.279 C 
ATOM      9  O   UNN dAMED       0.474  -2.626  -1.050  0.00  0.00    -0.265 OA
ATOM     10  N   UNN dAMED       1.676  -0.855  -1.814  0.00  0.00    -0.217 NA
BRANCH  10  11
ATOM     11  C   UNN dAMED       2.060   0.524  -1.557  0.00  0.00     0.040 C 
ATOM     12  C   UNN dAMED       3.028   1.196  -2.541  0.00  0.00     0.047 C 
BRANCH  11  13
ATOM     13  C   UNN dAMED       2.060   1.014  -0.104  0.00  0.00     0.042 C 
ATOM     14  C   UNN dAMED       3.164   0.570   0.862  0.00  0.00     0.006 C 
ENDBRANCH  11  13
ENDBRANCH  10  11
ENDBRANCH   2   8
TORSDOF 3
