REMARK  2 active torsions:
REMARK  status: ('A' for Active; 'I' for Inactive)
REMARK    1  A    between atoms: C_3  and  N_17 
REMARK    2  A    between atoms: C_7  and  O_12 
REMARK       I    between atoms: C_14  and  N_17 
ROOT
ATOM      1 BR   UNN dAMED      -3.751  -0.499  -0.286  0.00  0.00    -0.047 Br
ATOM      2  N   UNN dAMED       0.649   2.416   0.202  0.00  0.00    -0.242 NA
ATOM      3  C   UNN dAMED       0.950   0.029   0.059  0.00  0.00     0.104 A 
ATOM      4  C   UNN dAMED       0.118   1.175   0.084  0.00  0.00     0.100 A 
ATOM      5  C   UNN dAMED       0.334  -1.231  -0.051  0.00  0.00     0.045 A 
ATOM      6  C   UNN dAMED      -1.290   1.012  -0.021  0.00  0.00     0.027 A 
ATOM      7  C   UNN dAMED      -1.039  -1.381  -0.156  0.00  0.00     0.102 A 
ATOM      8  C   UNN dAMED      -2.085   2.168  -0.000  0.00  0.00     0.004 A 
ATOM      9  C   UNN dAMED      -0.168   3.498   0.216  0.00  0.00     0.099 A 
ATOM     10  C   UNN dAMED      -1.538   3.432   0.118  0.00  0.00     0.021 A 
ATOM     11  C   UNN dAMED      -1.863  -0.268  -0.143  0.00  0.00     0.058 A 
ENDROOT
BRANCH   3  12
ATOM     12  N   UNN dAMED       2.302   0.151   0.178  0.00  0.00    -0.210 NA
ATOM     13  C   UNN dAMED       2.992  -0.841  -0.387  0.00  0.00     0.256 C 
ATOM     14  O   UNN dAMED       4.202  -0.876  -0.578  0.00  0.00    -0.270 OA
ATOM     15  C   UNN dAMED       2.203  -2.050  -0.810  0.00  0.00     0.100 C 
ENDBRANCH   3  12
BRANCH   7  16
ATOM     16  O   UNN dAMED      -1.526  -2.647  -0.278  0.00  0.00    -0.328 OA
ATOM     17  C   UNN dAMED      -1.855  -2.774  -1.629  0.00  0.00     0.181 C 
ENDBRANCH   7  16
TORSDOF 2
