REMARK  2 active torsions:
REMARK  status: ('A' for Active; 'I' for Inactive)
REMARK    1  A    between atoms: C_2  and  N_16 
REMARK    2  A    between atoms: C_6  and  N_19 
REMARK       I    between atoms: C_7  and  N_9 
REMARK       I    between atoms: C_7  and  N_19 
ROOT
ATOM      1  C   UNN dAMED       1.791  -0.073  -6.628  0.00  0.00     0.000 A 
ATOM      2  C   UNN dAMED       1.854   1.175  -6.023  0.00  0.00     0.124 A 
ATOM      3  C   UNN dAMED       1.915  -1.207  -5.837  0.00  0.00    -0.001 A 
ATOM      4  C   UNN dAMED       2.044   1.314  -4.649  0.00  0.00     0.042 A 
ATOM      5  C   UNN dAMED       2.094  -1.070  -4.457  0.00  0.00     0.019 A 
ATOM      6  C   UNN dAMED       2.147   0.184  -3.829  0.00  0.00     0.087 A 
ATOM      7  C   UNN dAMED       1.587  -0.182  -8.112  0.00  0.00     0.033 C 
ENDROOT
BRANCH   6   8
ATOM      8  N   UNN dAMED       2.402   0.251  -2.506  0.00  0.00    -0.198 NA
ATOM      9  C   UNN dAMED       1.588   1.050  -1.793  0.00  0.00     0.325 C 
ATOM     10  O   UNN dAMED       0.441   1.415  -2.055  0.00  0.00    -0.251 OA
ATOM     11  N   UNN dAMED       2.218   1.433  -0.613  0.00  0.00    -0.204 NA
ATOM     12  C   UNN dAMED       1.784   2.767  -0.331  0.00  0.00     0.081 C 
ATOM     13  C   UNN dAMED       3.621   1.310  -0.865  0.00  0.00     0.081 C 
ATOM     14  C   UNN dAMED       2.636   3.600   0.628  0.00  0.00     0.018 C 
ATOM     15  C   UNN dAMED       4.138   3.480   0.393  0.00  0.00     0.003 C 
ATOM     16  C   UNN dAMED       4.580   2.059   0.058  0.00  0.00     0.018 C 
ENDBRANCH   6   8
BRANCH   2  17
ATOM     17  N   UNN dAMED       1.724   2.362  -6.836  0.00  0.00    -0.114 N 
ATOM     18  O   UNN dAMED       1.161   2.248  -7.933  0.00  0.00    -0.532 OA
ATOM     19  O   UNN dAMED       2.184   3.417  -6.379  0.00  0.00    -0.532 OA
ENDBRANCH   2  17
TORSDOF 2
