REMARK  1 active torsions:
REMARK  status: ('A' for Active; 'I' for Inactive)
REMARK       I    between atoms: N_1  and  C_22 
REMARK    1  A    between atoms: C_8  and  C_22 
ROOT
ATOM      1  N   UNN dAMED      -0.524   0.750   0.159  0.00  0.00    -0.274 N 
ATOM      2  S   UNN dAMED      -3.185  -0.439  -1.174  0.00  0.00    -0.084 SA
ATOM      3 CL   UNN dAMED       1.452  -3.803   1.353  0.00  0.00    -0.082 Cl
ATOM      4  C   UNN dAMED       0.276  -1.475   0.697  0.00  0.00     0.029 A 
ATOM      5  C   UNN dAMED      -0.717  -0.666   0.127  0.00  0.00     0.074 A 
ATOM      6  C   UNN dAMED       0.178  -2.863   0.696  0.00  0.00     0.059 A 
ATOM      7  C   UNN dAMED      -0.930  -3.483   0.146  0.00  0.00     0.012 A 
ATOM      8  C   UNN dAMED      -1.826  -1.298  -0.447  0.00  0.00     0.046 A 
ATOM      9  C   UNN dAMED      -1.932  -2.696  -0.409  0.00  0.00     0.009 A 
ATOM     10  C   UNN dAMED      -1.004   2.969  -0.725  0.00  0.00     0.018 A 
ATOM     11  C   UNN dAMED      -1.363   1.614  -0.609  0.00  0.00     0.073 A 
ATOM     12  C   UNN dAMED      -1.721   3.869  -1.509  0.00  0.00     0.002 A 
ATOM     13  C   UNN dAMED      -2.509   1.189  -1.285  0.00  0.00     0.046 A 
ATOM     14  C   UNN dAMED      -2.855   3.430  -2.173  0.00  0.00     0.001 A 
ATOM     15  C   UNN dAMED      -3.247   2.102  -2.047  0.00  0.00     0.008 A 
ATOM     16  C   UNN dAMED       0.397   1.285   1.056  0.00  0.00     0.265 C 
ATOM     17  O   UNN dAMED       0.202   1.431   2.259  0.00  0.00    -0.267 OA
ENDROOT
BRANCH  16  18
ATOM     18  C   UNN dAMED       1.666   1.732   0.471  0.00  0.00     0.064 C 
ATOM     19  C   UNN dAMED       2.281   1.126  -0.540  0.00  0.00    -0.019 C 
ATOM     20  C   UNN dAMED       3.544   1.843  -0.982  0.00  0.00     0.044 C 
ATOM     21  C   UNN dAMED       3.697   3.258  -0.425  0.00  0.00     0.081 C 
ATOM     22  N   UNN dAMED       3.553   3.476   1.151  0.00  0.00    -0.250 NA
ATOM     23  C   UNN dAMED       2.152   3.153   0.669  0.00  0.00     0.051 C 
ATOM     24  C   UNN dAMED       3.694   3.261  -0.401  0.00  0.00     0.094 C 
ENDBRANCH  16  18
TORSDOF 1
