REMARK  4 active torsions:
REMARK  status: ('A' for Active; 'I' for Inactive)
REMARK    1  A    between atoms: C_12  and  C_18 
REMARK    2  A    between atoms: C_14  and  N_19 
REMARK    3  A    between atoms: N_19  and  C_20 
REMARK    4  A    between atoms: N_19  and  C_22 
ROOT
ATOM      1  S   UNN dAMED      -6.048   1.150   0.519  0.00  0.00    -0.040 SA
ATOM      2  H   UNN dAMED      -5.111  -0.571  -1.436  0.00  0.00     0.171 HD
ATOM      3  N   UNN dAMED      -4.306  -0.324  -0.867  0.00  0.00    -0.299 N 
ATOM      4  N   UNN dAMED      -3.430   0.867   0.961  0.00  0.00    -0.299 N 
ATOM      5  O   UNN dAMED      -2.933  -1.662  -2.161  0.00  0.00    -0.267 OA
ATOM      6  H   UNN dAMED      -3.595   1.493   1.744  0.00  0.00     0.171 HD
ATOM      7  O   UNN dAMED      -1.202   0.743   1.523  0.00  0.00    -0.267 OA
ATOM      8  C   UNN dAMED      -3.096  -0.891  -1.220  0.00  0.00     0.264 A 
ATOM      9  C   UNN dAMED      -1.949  -0.493  -0.370  0.00  0.00     0.112 A 
ATOM     10  C   UNN dAMED      -2.128   0.424   0.785  0.00  0.00     0.264 A 
ATOM     11  C   UNN dAMED      -4.528   0.538   0.189  0.00  0.00     0.181 A 
ATOM     12  C   UNN dAMED      -0.764  -1.029  -0.708  0.00  0.00     0.009 C 
ENDROOT
BRANCH  12  13
ATOM     13  C   UNN dAMED       0.613  -0.579  -0.267  0.00  0.00     0.000 A 
ATOM     14  C   UNN dAMED       1.223   0.503  -0.901  0.00  0.00     0.002 A 
ATOM     15  C   UNN dAMED       2.481   0.932  -0.489  0.00  0.00     0.017 A 
ATOM     16  C   UNN dAMED       3.142   0.277   0.550  0.00  0.00     0.056 A 
ATOM     17  C   UNN dAMED       2.541  -0.823   1.163  0.00  0.00     0.017 A 
ATOM     18  C   UNN dAMED       1.282  -1.256   0.752  0.00  0.00     0.002 A 
BRANCH  16  19
ATOM     19  N   UNN dAMED       4.401   0.732   0.979  0.00  0.00    -0.348 N 
BRANCH  19  20
ATOM     20  C   UNN dAMED       5.068   1.804   0.263  0.00  0.00     0.102 C 
ATOM     21  C   UNN dAMED       4.262   2.733  -0.651  0.00  0.00     0.026 C 
ENDBRANCH  19  20
BRANCH  19  22
ATOM     22  C   UNN dAMED       5.156  -0.021   1.961  0.00  0.00     0.102 C 
ATOM     23  C   UNN dAMED       6.427   0.582   2.568  0.00  0.00     0.026 C 
ENDBRANCH  19  22
ENDBRANCH  16  19
ENDBRANCH  12  13
TORSDOF 4
