REMARK  3 active torsions:
REMARK  status: ('A' for Active; 'I' for Inactive)
REMARK    1  A    between atoms: N_2  and  C_15 
REMARK    2  A    between atoms: C4*_9  and  C5*_23 
REMARK    3  A    between atoms: C_15  and  C_16 
ROOT
ATOM      1  O   UNN dAMED      -2.003  -2.750   0.597  0.00  0.00    -0.267 OA
ATOM      2  N   UNN dAMED      -0.773  -0.798   0.934  0.00  0.00    -0.226 N 
ATOM      3  N   UNN dAMED       1.283  -0.315  -0.060  0.00  0.00    -0.242 N 
ATOM      4  O   UNN dAMED       0.075   1.339   0.968  0.00  0.00    -0.245 OA
ATOM      5  O4* UNN dAMED       3.225   0.697  -1.145  0.00  0.00    -0.294 OA
ATOM      6  C   UNN dAMED       1.197  -1.684  -0.471  0.00  0.00     0.086 C 
ATOM      7  C   UNN dAMED       0.165  -2.518  -0.308  0.00  0.00     0.052 C 
ATOM      8  C   UNN dAMED      -0.996  -2.074   0.463  0.00  0.00     0.266 C 
ATOM      9  C4* UNN dAMED       4.294   1.393  -0.523  0.00  0.00     0.134 A 
ATOM     10  C3* UNN dAMED       3.973   1.971   0.852  0.00  0.00     0.138 A 
ATOM     11  C2* UNN dAMED       2.537   1.593   1.067  0.00  0.00     0.126 A 
ATOM     12  C1* UNN dAMED       2.208   0.746  -0.158  0.00  0.00     0.154 A 
ATOM     13  C   UNN dAMED       0.191   0.156   0.640  0.00  0.00     0.343 C 
ATOM     14  C   UNN dAMED       0.163  -3.875  -0.952  0.00  0.00     0.038 C 
ATOM     15  O3* UNN dAMED       4.430   3.207   1.220  0.00  0.00    -0.193 OA
ENDROOT
BRANCH   2  16
ATOM     16  C   UNN dAMED      -1.938  -0.210   1.508  0.00  0.00     0.087 C 
BRANCH  16  17
ATOM     17  C   UNN dAMED      -2.375  -0.459   2.936  0.00  0.00     0.018 A 
ATOM     18  C   UNN dAMED      -1.464  -0.831   3.923  0.00  0.00     0.002 A 
ATOM     19  C   UNN dAMED      -1.906  -1.124   5.211  0.00  0.00     0.000 A 
ATOM     20  C   UNN dAMED      -3.262  -1.039   5.512  0.00  0.00     0.000 A 
ATOM     21  C   UNN dAMED      -4.175  -0.653   4.534  0.00  0.00     0.000 A 
ATOM     22  C   UNN dAMED      -3.729  -0.365   3.249  0.00  0.00     0.002 A 
ENDBRANCH  16  17
ENDBRANCH   2  16
BRANCH   9  23
ATOM     23  C5* UNN dAMED       5.742   1.084  -0.919  0.00  0.00     0.235 C 
ATOM     24  O5* UNN dAMED       6.425   0.072  -0.298  0.00  0.00    -0.213 OA
ENDBRANCH   9  23
TORSDOF 3
