REMARK  0 active torsions:
REMARK  status: ('A' for Active; 'I' for Inactive)
ROOT
ATOM      1  O   UNN dAMED       3.623   4.501  -0.543  0.00  0.00    -0.351 OA
ATOM      2  N   UNN dAMED       2.106   1.705  -0.247  0.00  0.00    -0.232 NA
ATOM      3  N   UNN dAMED      -0.126   0.905  -0.589  0.00  0.00    -0.205 NA
ATOM      4  N   UNN dAMED      -0.534  -1.424  -0.908  0.00  0.00    -0.221 NA
ATOM      5  N   UNN dAMED      -2.338   0.109  -0.868  0.00  0.00    -0.217 NA
ATOM      6  O   UNN dAMED      -5.130   0.571  -2.412  0.00  0.00    -0.351 OA
ATOM      7  C   UNN dAMED      -2.818   1.274  -1.618  0.00  0.00     0.112 C 
ATOM      8  C   UNN dAMED      -4.323   1.521  -1.764  0.00  0.00     0.160 C 
ATOM      9  C   UNN dAMED       1.594   3.058  -0.002  0.00  0.00     0.110 C 
ATOM     10  C   UNN dAMED       2.247   4.260  -0.693  0.00  0.00     0.160 C 
ATOM     11  C   UNN dAMED      -0.956  -0.146  -0.790  0.00  0.00     0.207 A 
ATOM     12  C   UNN dAMED       1.199   0.651  -0.491  0.00  0.00     0.124 A 
ATOM     13  C   UNN dAMED       1.710  -0.629  -0.601  0.00  0.00     0.046 A 
ATOM     14  C   UNN dAMED       0.795  -1.639  -0.813  0.00  0.00     0.065 A 
ATOM     15  C   UNN dAMED      -3.221  -0.854  -1.534  0.00  0.00     0.112 C 
ATOM     16  C   UNN dAMED      -4.714  -0.543  -1.665  0.00  0.00     0.160 C 
ATOM     17  C   UNN dAMED       3.023   2.148  -1.303  0.00  0.00     0.110 C 
ATOM     18  C   UNN dAMED       4.051   3.245  -1.005  0.00  0.00     0.160 C 
ATOM     19  C   UNN dAMED       1.299  -3.051  -0.924  0.00  0.00     0.052 C 
ENDROOT
TORSDOF 0
