REMARK  2 active torsions:
REMARK  status: ('A' for Active; 'I' for Inactive)
REMARK    1  A    between atoms: C_5  and  C_12 
REMARK    2  A    between atoms: C_12  and  C_13 
ROOT
ATOM      1  N   UNN dAMED      -0.950   0.672  -0.609  0.00  0.00    -0.289 N 
ATOM      2  N   UNN dAMED      -1.106  -0.679  -0.951  0.00  0.00    -0.142 NA
ATOM      3  O   UNN dAMED       0.311  -2.527  -0.625  0.00  0.00    -0.272 OA
ATOM      4  C   UNN dAMED       0.362   0.841  -0.219  0.00  0.00     0.050 C 
ATOM      5  C   UNN dAMED       1.075  -0.287  -0.281  0.00  0.00     0.045 C 
ATOM      6  C   UNN dAMED       0.089  -1.328  -0.659  0.00  0.00     0.251 C 
ATOM      7  C   UNN dAMED      -2.033   1.456  -0.034  0.00  0.00     0.120 C 
ATOM      8  C   UNN dAMED      -3.447   0.921  -0.235  0.00  0.00     0.027 C 
ATOM      9  C   UNN dAMED      -3.515  -0.597  -0.172  0.00  0.00     0.022 C 
ATOM     10  C   UNN dAMED      -2.141  -1.267  -0.164  0.00  0.00     0.103 C 
ATOM     11  C   UNN dAMED       0.826   2.047   0.543  0.00  0.00     0.051 C 
ENDROOT
BRANCH   5  12
ATOM     12  C   UNN dAMED       2.385  -0.531   0.402  0.00  0.00     0.068 C 
BRANCH  12  13
ATOM     13  C   UNN dAMED       2.407  -1.005   1.859  0.00  0.00     0.187 C 
ATOM     14  O   UNN dAMED       3.471  -1.719   2.334  0.00  0.00    -0.220 OA
ENDBRANCH  12  13
ENDBRANCH   5  12
TORSDOF 2
