REMARK  5 active torsions:
REMARK  status: ('A' for Active; 'I' for Inactive)
REMARK    1  A    between atoms: O_6  and  C_13 
REMARK    2  A    between atoms: O_6  and  C_18 
REMARK    3  A    between atoms: C_18  and  C_19 
REMARK    4  A    between atoms: C_19  and  C_20 
REMARK    5  A    between atoms: C_20  and  C_21 
ROOT
ATOM      1  O   UNN dAMED      -1.552   1.928  -0.457  0.00  0.00    -0.267 OA
ATOM      2  N   UNN dAMED      -4.177  -1.092  -1.069  0.00  0.00    -0.347 N 
ATOM      3  H   UNN dAMED      -4.925  -1.766  -1.186  0.00  0.00     0.163 HD
ATOM      4  N   UNN dAMED      -2.137  -0.328  -0.091  0.00  0.00    -0.253 N 
ATOM      5  S   UNN dAMED      -2.595  -3.050  -0.349  0.00  0.00    -0.040 SA
ATOM      6  C   UNN dAMED      -2.370   1.016  -0.433  0.00  0.00     0.260 C 
ATOM      7  C   UNN dAMED      -3.766   1.341  -0.820  0.00  0.00     0.035 C 
ATOM      8  C   UNN dAMED      -4.686   0.158  -0.642  0.00  0.00     0.127 C 
ATOM      9  C   UNN dAMED       0.270  -0.276   0.449  0.00  0.00     0.020 A 
ATOM     10  C   UNN dAMED      -1.051  -0.559   0.806  0.00  0.00     0.069 A 
ATOM     11  C   UNN dAMED       1.281  -0.386   1.405  0.00  0.00     0.026 A 
ATOM     12  C   UNN dAMED       0.960  -0.802   2.694  0.00  0.00     0.094 A 
ATOM     13  C   UNN dAMED      -1.353  -0.954   2.116  0.00  0.00     0.020 A 
ATOM     14  C   UNN dAMED      -0.344  -1.103   3.058  0.00  0.00     0.026 A 
ATOM     15  C   UNN dAMED      -2.967  -1.406  -0.490  0.00  0.00     0.182 C 
ATOM     16  C   UNN dAMED      -4.297   2.758  -0.582  0.00  0.00     0.033 C 
ENDROOT
BRANCH  12  17
ATOM     17  O   UNN dAMED       1.941  -0.917   3.634  0.00  0.00    -0.331 OA
BRANCH  17  18
ATOM     18  C   UNN dAMED       2.972  -0.084   3.199  0.00  0.00     0.149 C 
BRANCH  18  19
ATOM     19  C   UNN dAMED       2.963   0.458   1.767  0.00  0.00     0.033 C 
BRANCH  19  20
ATOM     20  C   UNN dAMED       3.785  -0.242   0.681  0.00  0.00     0.003 C 
BRANCH  20  21
ATOM     21  C   UNN dAMED       3.276  -0.267  -0.763  0.00  0.00     0.000 C 
ATOM     22  C   UNN dAMED       4.208  -0.709  -1.895  0.00  0.00     0.000 C 
ENDBRANCH  20  21
ENDBRANCH  19  20
ENDBRANCH  18  19
ENDBRANCH  17  18
ENDBRANCH  12  17
TORSDOF 5
