REMARK  2 active torsions:
REMARK  status: ('A' for Active; 'I' for Inactive)
REMARK    1  A    between atoms: C_7  and  N_21 
REMARK    2  A    between atoms: C_13  and  N_24 
REMARK       I    between atoms: N_21  and  C_22 
REMARK       I    between atoms: C_22  and  N_24 
ROOT
ATOM      1  O   UNN dAMED      -0.480   3.290  -2.052  0.00  0.00    -0.264 OA
ATOM      2  N   UNN dAMED      -0.798   1.684  -5.089  0.00  0.00    -0.265 N 
ATOM      3  N   UNN dAMED      -0.009   2.302  -4.139  0.00  0.00    -0.213 N 
ATOM      4  C   UNN dAMED      -0.808   2.712  -3.078  0.00  0.00     0.298 A 
ATOM      5  C   UNN dAMED      -2.228   2.318  -3.420  0.00  0.00     0.157 A 
ATOM      6  C   UNN dAMED      -2.096   1.752  -4.630  0.00  0.00     0.077 A 
ATOM      7  C   UNN dAMED       2.152   3.318  -3.739  0.00  0.00     0.019 A 
ATOM      8  C   UNN dAMED       1.387   2.257  -4.227  0.00  0.00     0.084 A 
ATOM      9  C   UNN dAMED       3.544   3.279  -3.816  0.00  0.00     0.002 A 
ATOM     10  C   UNN dAMED       2.034   1.159  -4.800  0.00  0.00     0.019 A 
ATOM     11  C   UNN dAMED       4.181   2.186  -4.398  0.00  0.00     0.000 A 
ATOM     12  C   UNN dAMED       3.425   1.128  -4.894  0.00  0.00     0.002 A 
ATOM     13  C   UNN dAMED      -3.276   1.394  -5.484  0.00  0.00     0.053 C 
ATOM     14  C   UNN dAMED      -0.479   1.697  -6.505  0.00  0.00     0.152 C 
ENDROOT
BRANCH   5  15
ATOM     15  N   UNN dAMED      -3.214   2.649  -2.563  0.00  0.00    -0.185 NA
ATOM     16  C   UNN dAMED      -3.861   1.578  -2.048  0.00  0.00     0.369 C 
ATOM     17  N   UNN dAMED      -3.162   1.070  -1.004  0.00  0.00    -0.189 NA
ATOM     18  O   UNN dAMED      -4.965   1.205  -2.441  0.00  0.00    -0.242 OA
BRANCH  17  19
ATOM     19  C   UNN dAMED      -3.755   0.053  -0.327  0.00  0.00     0.107 A 
ATOM     20  C   UNN dAMED      -3.664  -1.294  -0.747  0.00  0.00     0.076 A 
ATOM     21 CL   UNN dAMED      -2.949  -1.744  -2.260  0.00  0.00    -0.081 Cl
ATOM     22  C   UNN dAMED      -4.168  -2.345   0.026  0.00  0.00     0.013 A 
ATOM     23  C   UNN dAMED      -4.777  -2.090   1.246  0.00  0.00     0.002 A 
ATOM     24  C   UNN dAMED      -4.908  -0.778   1.680  0.00  0.00     0.013 A 
ATOM     25  C   UNN dAMED      -4.408   0.275   0.907  0.00  0.00     0.076 A 
ATOM     26 CL   UNN dAMED      -4.655   1.866   1.544  0.00  0.00    -0.081 Cl
ENDBRANCH  17  19
ENDBRANCH   5  15
TORSDOF 2
