REMARK  6 active torsions:
REMARK  status: ('A' for Active; 'I' for Inactive)
REMARK    1  A    between atoms: C_8  and  C_22 
REMARK    2  A    between atoms: C_16  and  C_17 
REMARK    3  A    between atoms: C_17  and  O_19 
REMARK    4  A    between atoms: O_19  and  C_20 
REMARK    5  A    between atoms: C_22  and  O_24 
REMARK    6  A    between atoms: O_24  and  C_25 
ROOT
ATOM      1  C   UNN dAMED      -0.704   0.026  -0.743  0.00  0.00     0.001 A 
ATOM      2  C   UNN dAMED       0.689  -0.015  -0.720  0.00  0.00     0.001 A 
ATOM      3  C   UNN dAMED       1.380  -0.922   0.085  0.00  0.00     0.009 A 
ATOM      4  C   UNN dAMED       0.625  -1.788   0.882  0.00  0.00     0.001 A 
ATOM      5  C   UNN dAMED      -0.769  -1.755   0.870  0.00  0.00     0.001 A 
ATOM      6  C   UNN dAMED      -1.443  -0.848   0.053  0.00  0.00     0.009 A 
ATOM      7  C   UNN dAMED       2.844  -1.000   0.041  0.00  0.00     0.074 A 
ATOM      8  C   UNN dAMED       3.816  -0.283  -0.656  0.00  0.00     0.174 A 
ATOM      9  N   UNN dAMED       5.128  -0.714  -0.456  0.00  0.00    -0.135 NA
ATOM     10  N   UNN dAMED       5.195  -1.725   0.389  0.00  0.00    -0.109 NA
ATOM     11  S   UNN dAMED       3.704  -2.182   0.969  0.00  0.00     0.038 SA
ATOM     12  C   UNN dAMED      -2.891  -0.862  -0.035  0.00  0.00     0.067 A 
ATOM     13  S   UNN dAMED      -3.694  -2.182  -0.795  0.00  0.00     0.005 SA
ATOM     14  N   UNN dAMED      -5.208  -1.510  -0.595  0.00  0.00    -0.036 NA
ATOM     15  N   UNN dAMED      -5.174  -0.344   0.026  0.00  0.00    -0.162 NA
ATOM     16  C   UNN dAMED      -3.878   0.029   0.364  0.00  0.00     0.167 A 
ENDROOT
BRANCH   8  17
ATOM     17  C   UNN dAMED       3.589   0.819  -1.567  0.00  0.00     0.316 C 
ATOM     18  O   UNN dAMED       2.940   1.822  -1.306  0.00  0.00    -0.257 OA
BRANCH  17  19
ATOM     19  O   UNN dAMED       4.258   0.638  -2.734  0.00  0.00    -0.297 OA
BRANCH  19  20
ATOM     20  C   UNN dAMED       5.151  -0.398  -2.452  0.00  0.00     0.152 C 
ATOM     21  C   UNN dAMED       5.668  -1.301  -3.574  0.00  0.00     0.035 C 
ENDBRANCH  19  20
ENDBRANCH  17  19
ENDBRANCH   8  17
BRANCH  16  22
ATOM     22  C   UNN dAMED      -3.673   1.282   1.046  0.00  0.00     0.316 C 
ATOM     23  O   UNN dAMED      -3.385   1.384   2.230  0.00  0.00    -0.257 OA
BRANCH  22  24
ATOM     24  O   UNN dAMED      -3.903   2.340   0.227  0.00  0.00    -0.297 OA
BRANCH  24  25
ATOM     25  C   UNN dAMED      -3.541   1.874  -1.037  0.00  0.00     0.152 C 
ATOM     26  C   UNN dAMED      -3.071   0.424  -1.176  0.00  0.00     0.035 C 
ENDBRANCH  24  25
ENDBRANCH  22  24
ENDBRANCH  16  22
TORSDOF 6
