REMARK  4 active torsions:
REMARK  status: ('A' for Active; 'I' for Inactive)
REMARK    1  A    between atoms: C_3  and  C_10 
REMARK    2  A    between atoms: C_5  and  N_7 
REMARK    3  A    between atoms: C_10  and  C_12 
REMARK    4  A    between atoms: C_12  and  N_13 
REMARK       I    between atoms: N_13  and  C_14 
ROOT
ATOM      1  C   UNN dAMED      -1.147  -0.842   1.571  0.00  0.00     0.004 A 
ATOM      2  C   UNN dAMED      -2.465  -0.550   1.234  0.00  0.00     0.024 A 
ATOM      3  C   UNN dAMED      -0.115  -0.598   0.659  0.00  0.00     0.023 A 
ATOM      4  C   UNN dAMED      -0.404  -0.028  -0.586  0.00  0.00     0.004 A 
ATOM      5  C   UNN dAMED      -2.729  -0.024  -0.027  0.00  0.00     0.127 A 
ATOM      6  C   UNN dAMED      -1.719   0.253  -0.943  0.00  0.00     0.024 A 
ENDROOT
BRANCH   3   7
ATOM      7  C   UNN dAMED       1.286  -1.096   0.936  0.00  0.00     0.133 C 
ATOM      8  O   UNN dAMED       1.546  -2.444   0.879  0.00  0.00    -0.193 OA
BRANCH   7   9
ATOM      9  C   UNN dAMED       2.457  -0.121   0.737  0.00  0.00     0.182 C 
BRANCH   9  10
ATOM     10  N   UNN dAMED       3.012   0.655   1.840  0.00  0.00    -0.231 NA
ATOM     11  C   UNN dAMED       2.286   0.920   2.917  0.00  0.00     0.252 C 
ATOM     12  O   UNN dAMED       1.864   2.018   3.256  0.00  0.00    -0.271 OA
ATOM     13  C   UNN dAMED       1.995  -0.237   3.836  0.00  0.00     0.100 C 
ENDBRANCH   9  10
ENDBRANCH   7   9
ENDBRANCH   3   7
BRANCH   5  14
ATOM     14  N   UNN dAMED      -4.098   0.259  -0.388  0.00  0.00    -0.114 N 
ATOM     15  O   UNN dAMED      -4.944  -0.605  -0.120  0.00  0.00    -0.532 OA
ATOM     16  O   UNN dAMED      -4.329   1.346  -0.932  0.00  0.00    -0.532 OA
ENDBRANCH   5  14
TORSDOF 4
