REMARK  3 active torsions:
REMARK  status: ('A' for Active; 'I' for Inactive)
REMARK    1  A    between atoms: C_10  and  C_12 
REMARK       I    between atoms: C_12  and  N_16 
REMARK    2  A    between atoms: C_14  and  N_16 
REMARK    3  A    between atoms: C_14  and  C_19 
ROOT
ATOM      1  C   UNN dAMED      -4.947  -1.182   0.060  0.00  0.00     0.000 A 
ATOM      2  C   UNN dAMED      -5.188   0.111   0.492  0.00  0.00     0.000 A 
ATOM      3  C   UNN dAMED      -3.642  -1.581  -0.219  0.00  0.00     0.003 A 
ATOM      4  C   UNN dAMED      -4.122   0.992   0.631  0.00  0.00     0.001 A 
ATOM      5  C   UNN dAMED      -2.534  -0.720  -0.090  0.00  0.00     0.040 A 
ATOM      6  C   UNN dAMED      -2.801   0.609   0.345  0.00  0.00     0.014 A 
ATOM      7  C   UNN dAMED      -1.207  -1.177  -0.393  0.00  0.00     0.200 A 
ATOM      8  C   UNN dAMED      -1.744   1.515   0.473  0.00  0.00     0.058 A 
ATOM      9 CL   UNN dAMED      -1.965   3.142   1.001  0.00  0.00    -0.082 Cl
ATOM     10  C   UNN dAMED      -0.194  -0.190  -0.246  0.00  0.00     0.097 A 
ATOM     11  C   UNN dAMED      -0.455   1.123   0.161  0.00  0.00     0.019 A 
ATOM     12  O   UNN dAMED      -0.960  -2.377  -0.774  0.00  0.00    -0.286 OA
ENDROOT
BRANCH  10  13
ATOM     13  C   UNN dAMED       1.228  -0.484  -0.582  0.00  0.00     0.278 C 
ATOM     14  O   UNN dAMED       1.495  -0.847  -1.724  0.00  0.00    -0.265 OA
ATOM     15  N   UNN dAMED       2.095  -0.187   0.383  0.00  0.00    -0.228 NA
BRANCH  15  16
ATOM     16  C   UNN dAMED       2.551  -1.379   1.063  0.00  0.00     0.165 C 
ATOM     17  C   UNN dAMED       2.728  -2.525   0.062  0.00  0.00     0.035 C 
ATOM     18  C   UNN dAMED       1.499  -1.795   2.097  0.00  0.00     0.035 C 
BRANCH  16  19
ATOM     19  C   UNN dAMED       3.879  -1.121   1.777  0.00  0.00     0.206 C 
ATOM     20  O   UNN dAMED       4.552  -0.118   1.413  0.00  0.00    -0.646 OA
ATOM     21  O   UNN dAMED       4.152  -1.995   2.651  0.00  0.00    -0.646 OA
ENDBRANCH  16  19
ENDBRANCH  15  16
ENDBRANCH  10  13
TORSDOF 3
