REMARK  11 active torsions:
REMARK  status: ('A' for Active; 'I' for Inactive)
REMARK    1  A    between atoms: C_1  and  O_11 
REMARK    2  A    between atoms: C_8  and  N_36 
REMARK    3  A    between atoms: O_11  and  C_17 
REMARK    4  A    between atoms: C_14  and  O_21 
REMARK    5  A    between atoms: C_15  and  O_18 
REMARK    6  A    between atoms: O_18  and  C_19 
REMARK    7  A    between atoms: C_19  and  C_23 
REMARK       I    between atoms: C_34  and  N_36 
REMARK    8  A    between atoms: C_34  and  C_37 
REMARK    9  A    between atoms: C_41  and  C_45 
REMARK   10  A    between atoms: C_45  and  C_46 
REMARK   11  A    between atoms: C_46  and  C_47 
ROOT
ATOM      1  C   UNN dAMED      -2.405  -0.246  -2.276  0.00  0.00     0.115 A 
ATOM      2  C   UNN dAMED      -1.638  -0.807  -1.264  0.00  0.00     0.026 A 
ATOM      3  C   UNN dAMED      -0.263  -0.596  -1.253  0.00  0.00     0.007 A 
ATOM      4  C   UNN dAMED       0.378   0.202  -2.217  0.00  0.00     0.065 A 
ATOM      5  C   UNN dAMED      -0.410   0.717  -3.236  0.00  0.00     0.119 A 
ATOM      6  C   UNN dAMED      -1.799   0.501  -3.284  0.00  0.00     0.103 A 
ATOM      7  C   UNN dAMED       1.833   0.522  -2.082  0.00  0.00     0.220 C 
ATOM      8  C   UNN dAMED       2.350   1.379  -3.020  0.00  0.00     0.187 C 
ATOM      9  C   UNN dAMED       1.475   1.972  -4.103  0.00  0.00     0.321 C 
ATOM     10  O   UNN dAMED       0.168   1.537  -4.207  0.00  0.00    -0.271 OA
ATOM     11 CL   UNN dAMED      -2.764   1.218  -4.523  0.00  0.00    -0.078 Cl
ATOM     12  O   UNN dAMED       1.893   2.816  -4.895  0.00  0.00    -0.257 OA
ATOM     13  O   UNN dAMED       2.464   0.005  -1.106  0.00  0.00    -0.285 OA
ENDROOT
BRANCH   1  14
ATOM     14  O   UNN dAMED      -3.761  -0.248  -2.097  0.00  0.00    -0.283 OA
BRANCH  14  15
ATOM     15  C   UNN dAMED      -4.397  -1.214  -2.909  0.00  0.00     0.228 C 
ATOM     16  O   UNN dAMED      -3.732  -2.386  -3.338  0.00  0.00    -0.308 OA
ATOM     17  C   UNN dAMED      -4.253  -2.711  -4.626  0.00  0.00     0.142 C 
ATOM     18  C   UNN dAMED      -5.731  -3.096  -4.511  0.00  0.00     0.121 C 
ATOM     19  C   UNN dAMED      -3.525  -3.944  -5.176  0.00  0.00     0.037 C 
ATOM     20  C   UNN dAMED      -3.997  -1.548  -5.587  0.00  0.00     0.037 C 
ATOM     21  C   UNN dAMED      -6.600  -1.957  -4.009  0.00  0.00     0.153 C 
ATOM     22  C   UNN dAMED      -5.940  -1.259  -2.833  0.00  0.00     0.202 C 
ATOM     23  O   UNN dAMED      -6.561  -1.315  -1.611  0.00  0.00    -0.184 OA
BRANCH  18  24
ATOM     24  O   UNN dAMED      -6.043  -4.377  -4.096  0.00  0.00    -0.328 OA
ATOM     25  C   UNN dAMED      -6.760  -5.163  -3.216  0.00  0.00     0.181 C 
ENDBRANCH  18  24
BRANCH  21  26
ATOM     26  O   UNN dAMED      -7.301  -1.178  -4.936  0.00  0.00    -0.268 OA
BRANCH  26  27
ATOM     27  C   UNN dAMED      -8.223  -1.988  -5.468  0.00  0.00     0.318 C 
ATOM     28  O   UNN dAMED      -8.621  -3.058  -5.055  0.00  0.00    -0.257 OA
BRANCH  27  29
ATOM     29  C   UNN dAMED      -8.804  -1.360  -6.677  0.00  0.00     0.144 A 
ATOM     30  C   UNN dAMED     -10.255  -1.427  -7.085  0.00  0.00     0.026 A 
ATOM     31  C   UNN dAMED     -10.343  -0.908  -8.309  0.00  0.00     0.016 A 
ATOM     32  C   UNN dAMED      -8.909  -0.602  -8.735  0.00  0.00     0.060 A 
ATOM     33  N   UNN dAMED      -8.055  -0.895  -7.633  0.00  0.00    -0.244 NA
ATOM     34  C   UNN dAMED      -8.564   0.436  -9.806  0.00  0.00     0.052 C 
ENDBRANCH  27  29
ENDBRANCH  26  27
ENDBRANCH  21  26
ENDBRANCH  14  15
ENDBRANCH   1  14
BRANCH   8  35
ATOM     35  N   UNN dAMED       3.608   1.911  -3.149  0.00  0.00    -0.199 NA
ATOM     36  C   UNN dAMED       4.634   1.107  -2.862  0.00  0.00     0.279 C 
ATOM     37  O   UNN dAMED       5.371   1.196  -1.882  0.00  0.00    -0.265 OA
BRANCH  36  38
ATOM     38  C   UNN dAMED       5.006   0.111  -3.882  0.00  0.00     0.058 A 
ATOM     39  C   UNN dAMED       5.352   0.516  -5.163  0.00  0.00     0.008 A 
ATOM     40  C   UNN dAMED       5.875  -0.427  -6.049  0.00  0.00     0.042 A 
ATOM     41  C   UNN dAMED       6.127  -1.768  -5.703  0.00  0.00     0.192 A 
ATOM     42  C   UNN dAMED       5.772  -2.117  -4.383  0.00  0.00     0.017 A 
ATOM     43  O   UNN dAMED       6.657  -2.597  -6.512  0.00  0.00    -0.287 OA
ATOM     44  C   UNN dAMED       5.219  -1.203  -3.482  0.00  0.00     0.004 A 
BRANCH  42  45
ATOM     45  C   UNN dAMED       6.217  -3.460  -3.864  0.00  0.00     0.030 C 
BRANCH  45  46
ATOM     46  C   UNN dAMED       5.216  -4.569  -3.518  0.00  0.00     0.005 C 
BRANCH  46  47
ATOM     47  C   UNN dAMED       5.193  -5.676  -4.250  0.00  0.00     0.000 C 
ATOM     48  C   UNN dAMED       4.635  -7.061  -4.581  0.00  0.00     0.000 C 
ATOM     49  C   UNN dAMED       4.244  -6.620  -3.423  0.00  0.00     0.000 C 
ENDBRANCH  46  47
ENDBRANCH  45  46
ENDBRANCH  42  45
ENDBRANCH  36  38
ENDBRANCH   8  35
TORSDOF 11
