REMARK  3 active torsions:
REMARK  status: ('A' for Active; 'I' for Inactive)
REMARK    1  A    between atoms: C_10  and  C_18 
REMARK    2  A    between atoms: C_18  and  O_20 
REMARK    3  A    between atoms: O_20  and  C_21 
ROOT
ATOM      1  N   UNN dAMED      -0.659  -1.413   0.283  0.00  0.00    -0.246 NA
ATOM      2  C   UNN dAMED      -3.397  -0.771  -0.071  0.00  0.00     0.002 A 
ATOM      3  C   UNN dAMED      -4.752  -0.441  -0.043  0.00  0.00     0.000 A 
ATOM      4  C   UNN dAMED      -2.402   0.214  -0.024  0.00  0.00     0.018 A 
ATOM      5  C   UNN dAMED      -5.138   0.893   0.032  0.00  0.00     0.000 A 
ATOM      6  C   UNN dAMED      -2.819   1.549   0.053  0.00  0.00     0.002 A 
ATOM      7  C   UNN dAMED      -0.979  -0.138  -0.053  0.00  0.00     0.082 A 
ATOM      8  C   UNN dAMED      -0.006   0.783  -0.405  0.00  0.00     0.025 A 
ATOM      9  C   UNN dAMED      -4.172   1.891   0.080  0.00  0.00     0.000 A 
ATOM     10  C   UNN dAMED       1.333   0.396  -0.413  0.00  0.00     0.066 A 
ATOM     11  C   UNN dAMED       1.679  -0.927  -0.069  0.00  0.00     0.022 A 
ATOM     12  C   UNN dAMED       0.935  -3.109   0.619  0.00  0.00     0.019 A 
ATOM     13  C   UNN dAMED       0.628  -1.799   0.274  0.00  0.00     0.082 A 
ATOM     14  C   UNN dAMED       2.243  -3.585   0.638  0.00  0.00    -0.003 A 
ATOM     15  C   UNN dAMED       3.281  -2.732   0.302  0.00  0.00    -0.022 A 
ATOM     16  C   UNN dAMED       2.999  -1.417  -0.048  0.00  0.00    -0.003 A 
ATOM     17  C   UNN dAMED       4.701  -3.223   0.309  0.00  0.00     0.031 C 
ENDROOT
BRANCH  10  18
ATOM     18  C   UNN dAMED       2.351   1.406  -0.798  0.00  0.00     0.296 C 
ATOM     19  O   UNN dAMED       3.531   1.177  -0.996  0.00  0.00    -0.259 OA
BRANCH  18  20
ATOM     20  O   UNN dAMED       1.803   2.638  -0.901  0.00  0.00    -0.298 OA
BRANCH  20  21
ATOM     21  C   UNN dAMED       0.440   2.415  -1.103  0.00  0.00     0.152 C 
ATOM     22  C   UNN dAMED      -0.580   3.465  -0.652  0.00  0.00     0.035 C 
ENDBRANCH  20  21
ENDBRANCH  18  20
ENDBRANCH  10  18
TORSDOF 3
