REMARK  2 active torsions:
REMARK  status: ('A' for Active; 'I' for Inactive)
REMARK    1  A    between atoms: C_12  and  N_25 
REMARK    2  A    between atoms: C_20  and  C_26 
REMARK       I    between atoms: N_25  and  C_26 
ROOT
ATOM      1  N   UNN dAMED      -0.260  -0.636  -0.517  0.00  0.00    -0.199 NA
ATOM      2  C   UNN dAMED       0.518   0.470  -0.578  0.00  0.00     0.279 C 
ATOM      3  O   UNN dAMED       0.258   1.612  -0.195  0.00  0.00    -0.265 OA
ENDROOT
BRANCH   1   4
ATOM      4  C   UNN dAMED      -1.632  -0.449  -0.411  0.00  0.00     0.187 C 
ATOM      5  C   UNN dAMED      -2.595  -0.314  -1.386  0.00  0.00     0.220 C 
ATOM      6  C   UNN dAMED      -4.023  -0.124  -0.918  0.00  0.00     0.063 A 
ATOM      7  O   UNN dAMED      -2.376  -0.332  -2.639  0.00  0.00    -0.285 OA
ATOM      8  C   UNN dAMED      -4.316   0.069   0.416  0.00  0.00     0.105 A 
ATOM      9  C   UNN dAMED      -5.116  -0.017  -1.784  0.00  0.00     0.009 A 
ATOM     10  O   UNN dAMED      -3.315  -0.078   1.374  0.00  0.00    -0.272 OA
ATOM     11  C   UNN dAMED      -5.616   0.373   0.882  0.00  0.00     0.040 A 
ATOM     12  C   UNN dAMED      -2.134  -0.695   0.993  0.00  0.00     0.321 C 
ATOM     13  O   UNN dAMED      -1.513  -1.386   1.804  0.00  0.00    -0.257 OA
ATOM     14  C   UNN dAMED      -6.725   0.489   0.027  0.00  0.00     0.194 A 
ATOM     15  C   UNN dAMED      -5.833   0.596   2.354  0.00  0.00     0.036 C 
ATOM     16  C   UNN dAMED      -6.416   0.272  -1.323  0.00  0.00     0.042 A 
ATOM     17  O   UNN dAMED      -7.899   0.764   0.440  0.00  0.00    -0.287 OA
ENDBRANCH   1   4
BRANCH   2  18
ATOM     18  C   UNN dAMED       1.876   0.279  -1.207  0.00  0.00     0.058 A 
ATOM     19  C   UNN dAMED       1.932  -0.018  -2.567  0.00  0.00     0.007 A 
ATOM     20  C   UNN dAMED       3.153  -0.062  -3.248  0.00  0.00     0.024 A 
ATOM     21  C   UNN dAMED       4.363   0.199  -2.601  0.00  0.00     0.090 A 
ATOM     22  O   UNN dAMED       5.447   0.125  -3.438  0.00  0.00    -0.336 OA
ATOM     23  C   UNN dAMED       4.325   0.464  -1.221  0.00  0.00     0.000 A 
ATOM     24  C   UNN dAMED       6.716   0.416  -2.852  0.00  0.00     0.099 C 
ATOM     25  C   UNN dAMED       6.714  -0.273  -1.215  0.00  0.00     0.033 C 
ATOM     26  C   UNN dAMED       6.714  -0.301  -1.151  0.00  0.00     0.030 C 
ATOM     27  C   UNN dAMED       6.717  -0.303  -1.152  0.00  0.00     0.030 C 
ATOM     28  C   UNN dAMED       5.587   0.332  -0.418  0.00  0.00     0.031 C 
ATOM     29  C   UNN dAMED       3.086   0.545  -0.539  0.00  0.00     0.003 A 
ENDBRANCH   2  18
TORSDOF 2
