REMARK  2 active torsions:
REMARK  status: ('A' for Active; 'I' for Inactive)
REMARK    1  A    between atoms: C_8  and  C_19 
REMARK    2  A    between atoms: C_13  and  S_15 
ROOT
ATOM      1 CL   UNN dAMED      -3.143   1.542   1.907  0.00  0.00    -0.082 Cl
ATOM      2 CL   UNN dAMED       0.451  -1.727  -2.016  0.00  0.00    -0.081 Cl
ATOM      3  N   UNN dAMED       1.433   0.182   0.340  0.00  0.00    -0.197 N 
ATOM      4  N   UNN dAMED       2.364  -0.837   0.185  0.00  0.00    -0.161 NA
ATOM      5  O   UNN dAMED       1.528   2.429   1.114  0.00  0.00    -0.270 OA
ATOM      6  C   UNN dAMED       2.011   1.354   0.806  0.00  0.00     0.263 A 
ATOM      7  C   UNN dAMED       3.455   1.087   0.956  0.00  0.00     0.144 A 
ATOM      8  C   UNN dAMED       3.516  -0.335   0.530  0.00  0.00     0.152 A 
ATOM      9  C   UNN dAMED      -0.834   0.654   0.966  0.00  0.00     0.032 A 
ATOM     10  C   UNN dAMED      -2.217   0.631   0.780  0.00  0.00     0.072 A 
ATOM     11  C   UNN dAMED       0.056  -0.034   0.129  0.00  0.00     0.097 A 
ATOM     12  C   UNN dAMED      -0.489  -0.803  -0.905  0.00  0.00     0.076 A 
ATOM     13  C   UNN dAMED      -2.737  -0.110  -0.275  0.00  0.00     0.116 A 
ATOM     14  C   UNN dAMED      -1.876  -0.846  -1.092  0.00  0.00     0.028 A 
ENDROOT
BRANCH   8  15
ATOM     15  C   UNN dAMED       4.764  -1.104   0.354  0.00  0.00     0.227 C 
ATOM     16  O   UNN dAMED       5.779  -0.384   0.137  0.00  0.00    -0.643 OA
ATOM     17  O   UNN dAMED       4.675  -2.358   0.470  0.00  0.00    -0.643 OA
ENDBRANCH   8  15
BRANCH  13  18
ATOM     18  S   UNN dAMED      -4.496  -0.277  -0.614  0.00  0.00     0.140 S 
ATOM     19  O   UNN dAMED      -4.863  -1.372   0.278  0.00  0.00    -0.591 OA
ATOM     20  O   UNN dAMED      -5.054   1.029  -0.278  0.00  0.00    -0.591 OA
ATOM     21  O   UNN dAMED      -4.525  -0.594  -2.040  0.00  0.00    -0.591 OA
ENDBRANCH  13  18
TORSDOF 2
