REMARK  0 active torsions:
REMARK  status: ('A' for Active; 'I' for Inactive)
ROOT
ATOM      1  N   UNN dAMED      -4.179  -1.077  -0.004  0.00  0.00    -0.241 NA
ATOM      2  N   UNN dAMED      -0.711   1.058  -0.142  0.00  0.00    -0.337 N 
ATOM      3  H   UNN dAMED      -0.463   2.033  -0.246  0.00  0.00     0.167 HD
ATOM      4  N   UNN dAMED      -0.481  -1.130   0.127  0.00  0.00    -0.226 NA
ATOM      5  C   UNN dAMED       2.239   1.110   0.856  0.00  0.00     0.004 A 
ATOM      6  C   UNN dAMED       1.618   0.180   0.021  0.00  0.00     0.047 A 
ATOM      7  C   UNN dAMED       3.628   1.246   0.851  0.00  0.00     0.000 A 
ATOM      8  C   UNN dAMED       4.406   0.443   0.020  0.00  0.00     0.001 A 
ATOM      9  C   UNN dAMED       2.406  -0.622  -0.807  0.00  0.00     0.073 A 
ATOM     10  C   UNN dAMED       0.173   0.013   0.017  0.00  0.00     0.142 A 
ATOM     11  C   UNN dAMED       3.795  -0.495  -0.808  0.00  0.00     0.014 A 
ATOM     12  C   UNN dAMED      -3.230   1.169  -0.232  0.00  0.00     0.039 A 
ATOM     13  C   UNN dAMED      -1.987   0.555  -0.122  0.00  0.00     0.079 A 
ATOM     14  C   UNN dAMED      -4.283   0.264  -0.161  0.00  0.00     0.101 A 
ATOM     15  C   UNN dAMED      -1.816  -0.812   0.043  0.00  0.00     0.118 A 
ATOM     16  C   UNN dAMED      -2.945  -1.635   0.100  0.00  0.00     0.119 A 
ATOM     17  N   UNN dAMED       1.784  -1.585  -1.649  0.00  0.00    -0.100 NA
ENDROOT
TORSDOF 0
