REMARK  0 active torsions:
REMARK  status: ('A' for Active; 'I' for Inactive)
REMARK       I    between atoms: C_3  and  N_8 
ROOT
ATOM      1  C   UNN dAMED       1.337  -0.949   0.242  0.00  0.00     0.297 A 
ATOM      2  C   UNN dAMED       0.038  -1.692  -0.109  0.00  0.00     0.076 A 
ATOM      3  C   UNN dAMED       0.109   0.956   0.092  0.00  0.00     0.723 A 
ATOM      4  C   UNN dAMED      -1.112  -1.046  -0.330  0.00  0.00     0.056 A 
ATOM      5  N   UNN dAMED      -1.045   0.311  -0.221  0.00  0.00    -0.190 N 
ATOM      6  H   UNN dAMED      -1.860   0.881  -0.368  0.00  0.00     0.184 HD
ATOM      7  N   UNN dAMED       1.307   0.351   0.326  0.00  0.00    -0.021 NA
ATOM      8  N   UNN dAMED       0.152   2.245   0.193  0.00  0.00    -0.116 NA
ATOM      9  H   UNN dAMED       1.147   2.372   0.432  0.00  0.00     0.206 HD
ATOM     10  C   UNN dAMED      -2.395  -1.738  -0.673  0.00  0.00     0.051 C 
ATOM     11  O   UNN dAMED       2.320  -1.692   0.417  0.00  0.00    -0.265 OA
ENDROOT
TORSDOF 0
