REMARK  2 active torsions:
REMARK  status: ('A' for Active; 'I' for Inactive)
REMARK    1  A    between atoms: C_4  and  C_16 
REMARK    2  A    between atoms: C_16  and  C_17 
ROOT
ATOM      1  H   UNN dAMED      -1.127  -2.389   0.061  0.00  0.00     0.166 HD
ATOM      2  N   UNN dAMED      -1.145  -1.379   0.027  0.00  0.00    -0.354 N 
ATOM      3  C   UNN dAMED       1.326  -0.915   0.054  0.00  0.00    -0.010 A 
ATOM      4  C   UNN dAMED       2.256   0.125   0.035  0.00  0.00    -0.023 A 
ATOM      5  C   UNN dAMED      -0.030  -0.577   0.019  0.00  0.00     0.052 A 
ATOM      6  C   UNN dAMED       1.842   1.451  -0.020  0.00  0.00    -0.004 A 
ATOM      7  C   UNN dAMED      -0.472   0.745  -0.034  0.00  0.00     0.017 A 
ATOM      8  C   UNN dAMED       0.484   1.778  -0.054  0.00  0.00     0.001 A 
ATOM      9  C   UNN dAMED      -1.900   0.716  -0.058  0.00  0.00     0.017 A 
ATOM     10  C   UNN dAMED      -3.631  -1.023  -0.029  0.00  0.00     0.017 A 
ATOM     11  C   UNN dAMED      -4.595  -0.015  -0.081  0.00  0.00     0.002 A 
ATOM     12  C   UNN dAMED      -2.291  -0.621  -0.019  0.00  0.00     0.057 A 
ATOM     13  C   UNN dAMED      -4.238   1.328  -0.121  0.00  0.00     0.000 A 
ATOM     14  C   UNN dAMED      -2.895   1.711  -0.110  0.00  0.00     0.002 A 
ATOM     15  C   UNN dAMED       1.771  -2.349   0.105  0.00  0.00     0.032 C 
ENDROOT
BRANCH   4  16
ATOM     16  C   UNN dAMED       3.725  -0.189   0.055  0.00  0.00     0.067 C 
BRANCH  16  17
ATOM     17  C   UNN dAMED       4.200  -1.607   0.387  0.00  0.00     0.343 C 
ATOM     18  N   UNN dAMED       3.622  -2.748  -0.303  0.00  0.00     0.618 N 
ENDBRANCH  16  17
ENDBRANCH   4  16
TORSDOF 2
