REMARK  2 active torsions:
REMARK  status: ('A' for Active; 'I' for Inactive)
REMARK    1  A    between atoms: C_18  and  C_26 
REMARK    2  A    between atoms: C_21  and  N_23 
ROOT
ATOM      1  O   UNN dAMED       1.591  -1.250  -1.702  0.00  0.00    -0.259 OA
ATOM      2  O   UNN dAMED      -0.681  -0.939  -1.401  0.00  0.00    -0.273 OA
ATOM      3  C   UNN dAMED      -0.679   0.024   0.705  0.00  0.00     0.030 A 
ATOM      4  C   UNN dAMED      -1.392  -0.410  -0.320  0.00  0.00     0.103 A 
ATOM      5  C   UNN dAMED       0.709  -0.213   0.292  0.00  0.00     0.066 A 
ATOM      6  C   UNN dAMED      -2.838  -0.351  -0.370  0.00  0.00     0.023 A 
ATOM      7  C   UNN dAMED      -5.597   1.117   1.783  0.00  0.00     0.026 C 
ATOM      8  C   UNN dAMED      -7.107   0.942   1.916  0.00  0.00     0.005 C 
ATOM      9  C   UNN dAMED      -4.899   0.370   0.674  0.00  0.00    -0.026 A 
ATOM     10  C   UNN dAMED      -3.508   0.287   0.674  0.00  0.00    -0.003 A 
ATOM     11  C   UNN dAMED      -7.825   0.816   0.582  0.00  0.00     0.005 C 
ATOM     12  C   UNN dAMED      -5.626  -0.162  -0.398  0.00  0.00    -0.026 A 
ATOM     13  C   UNN dAMED      -3.570  -0.909  -1.418  0.00  0.00     0.002 A 
ATOM     14  C   UNN dAMED       0.649  -0.851  -1.042  0.00  0.00     0.300 A 
ATOM     15  C   UNN dAMED      -7.134  -0.127  -0.398  0.00  0.00     0.026 C 
ATOM     16  C   UNN dAMED      -4.960  -0.816  -1.432  0.00  0.00    -0.004 A 
ATOM     17  C   UNN dAMED       1.818   0.056   0.988  0.00  0.00     0.005 C 
ENDROOT
BRANCH  17  18
ATOM     18  C   UNN dAMED       3.241   0.056   0.472  0.00  0.00     0.000 A 
ATOM     19  C   UNN dAMED       4.178  -0.790   1.062  0.00  0.00     0.002 A 
ATOM     20  C   UNN dAMED       5.538  -0.613   0.813  0.00  0.00     0.017 A 
ATOM     21  C   UNN dAMED       5.972   0.419  -0.020  0.00  0.00     0.056 A 
ATOM     22  C   UNN dAMED       5.035   1.270  -0.604  0.00  0.00     0.017 A 
ATOM     23  C   UNN dAMED       3.677   1.097  -0.350  0.00  0.00     0.002 A 
BRANCH  21  24
ATOM     24  N   UNN dAMED       7.346   0.605  -0.259  0.00  0.00    -0.344 N 
ATOM     25  C   UNN dAMED       7.793   1.147  -1.528  0.00  0.00     0.126 C 
ATOM     26  C   UNN dAMED       8.309   0.289   0.778  0.00  0.00     0.126 C 
ENDBRANCH  21  24
ENDBRANCH  17  18
TORSDOF 2
