REMARK  4 active torsions:
REMARK  status: ('A' for Active; 'I' for Inactive)
REMARK    1  A    between atoms: C_3  and  N_7 
REMARK    2  A    between atoms: N_7  and  C_8 
REMARK    3  A    between atoms: C_8  and  C_9 
REMARK    4  A    between atoms: C_9  and  C_10 
ROOT
ATOM      1  C   UNN dAMED      -2.480  -0.602  -1.400  0.00  0.00     0.041 C 
ATOM      2  C   UNN dAMED      -3.958  -0.866  -1.088  0.00  0.00     0.006 C 
ATOM      3  C   UNN dAMED      -1.594  -0.166  -0.224  0.00  0.00     0.032 C 
ATOM      4  C   UNN dAMED      -1.928  -0.797   1.134  0.00  0.00     0.041 C 
ATOM      5  C   UNN dAMED      -4.225  -1.587   0.234  0.00  0.00     0.001 C 
ATOM      6  C   UNN dAMED      -3.409  -1.064   1.419  0.00  0.00     0.006 C 
ENDROOT
BRANCH   3   7
ATOM      7  N   UNN dAMED      -0.236   0.226  -0.489  0.00  0.00    -0.279 NA
BRANCH   7   8
ATOM      8  C   UNN dAMED       0.451   0.541  -1.714  0.00  0.00     0.136 C 
BRANCH   8   9
ATOM      9  C   UNN dAMED       0.316   1.934  -2.335  0.00  0.00     0.124 C 
BRANCH   9  10
ATOM     10  C   UNN dAMED      -0.438   2.116  -3.624  0.00  0.00     0.187 C 
ATOM     11  O   UNN dAMED       0.090   2.882  -4.485  0.00  0.00    -0.647 OA
ATOM     12  O   UNN dAMED      -1.552   1.519  -3.713  0.00  0.00    -0.647 OA
ENDBRANCH   9  10
ENDBRANCH   8   9
ENDBRANCH   7   8
ENDBRANCH   3   7
TORSDOF 4
