REMARK  2 active torsions:
REMARK  status: ('A' for Active; 'I' for Inactive)
REMARK    1  A    between atoms: C_2  and  C_9 
REMARK    2  A    between atoms: C_2  and  C_17 
ROOT
ATOM      1  C   UNN dAMED       0.049   0.107   0.064  0.00  0.00     0.010 C 
ATOM      2  N   UNN dAMED       2.356  -1.498  -3.453  0.00  0.00     0.140 N 
ATOM      3  C   UNN dAMED       2.202  -0.221  -1.193  0.00  0.00     0.057 C 
ATOM      4  C   UNN dAMED       2.920  -1.198  -2.134  0.00  0.00     0.255 C 
ATOM      5  C   UNN dAMED       0.741  -0.460  -0.924  0.00  0.00    -0.039 C 
ATOM      6  C   UNN dAMED       0.136  -1.042  -2.172  0.00  0.00     0.057 C 
ATOM      7  C   UNN dAMED       1.026  -1.952  -3.032  0.00  0.00     0.255 C 
ATOM      8  C   UNN dAMED       2.259  -0.300  -4.268  0.00  0.00     0.285 C 
ENDROOT
BRANCH   1   9
ATOM      9  C   UNN dAMED       0.815   0.806   1.098  0.00  0.00     0.081 A 
ATOM     10  N   UNN dAMED       1.326   0.049   2.098  0.00  0.00    -0.244 NA
ATOM     11  C   UNN dAMED       2.020   0.699   3.059  0.00  0.00     0.099 A 
ATOM     12  C   UNN dAMED       2.224   2.069   3.077  0.00  0.00     0.021 A 
ATOM     13  C   UNN dAMED       1.679   2.816   2.041  0.00  0.00     0.003 A 
ATOM     14  C   UNN dAMED       0.961   2.186   1.031  0.00  0.00     0.019 A 
ENDBRANCH   1   9
BRANCH   1  15
ATOM     15  C   UNN dAMED      -1.404  -0.070   0.058  0.00  0.00     0.001 A 
ATOM     16  C   UNN dAMED      -2.229   0.925  -0.473  0.00  0.00     0.001 A 
ATOM     17  C   UNN dAMED      -3.613   0.772  -0.459  0.00  0.00     0.011 A 
ATOM     18  C   UNN dAMED      -4.168  -0.381   0.089  0.00  0.00     0.058 A 
ATOM     19 CL   UNN dAMED      -5.873  -0.576   0.103  0.00  0.00    -0.082 Cl
ATOM     20  C   UNN dAMED      -3.359  -1.378   0.626  0.00  0.00     0.011 A 
ATOM     21  C   UNN dAMED      -1.976  -1.218   0.614  0.00  0.00     0.001 A 
ENDBRANCH   1  15
TORSDOF 2
