REMARK  1 active torsions:
REMARK  status: ('A' for Active; 'I' for Inactive)
REMARK    1  A    between atoms: C_4  and  AS_8 
ROOT
ATOM      1  N   UNN dAMED      -2.193   1.101   0.261  0.00  0.00    -0.242 NA
ATOM      2  C   UNN dAMED      -0.849   1.075   0.125  0.00  0.00     0.099 A 
ATOM      3  C   UNN dAMED      -0.097  -0.089   0.027  0.00  0.00     0.021 A 
ATOM      4  C   UNN dAMED      -0.774  -1.295   0.073  0.00  0.00     0.003 A 
ATOM      5  C   UNN dAMED      -2.157  -1.315   0.212  0.00  0.00     0.021 A 
ATOM      6  C   UNN dAMED      -2.813  -0.098   0.301  0.00  0.00     0.099 A 
ENDROOT
BRANCH   3   7
ATOM      7 AS   UNN dAMED       1.799   0.122  -0.166  0.00  0.00     0.000 As
ATOM      8  O   UNN dAMED       2.399   0.782   1.150  0.00  0.00     0.000 OA
ATOM      9  O   UNN dAMED       2.550  -1.449  -0.421  0.00  0.00     0.000 OA
ATOM     10  O   UNN dAMED       2.141   1.158  -1.547  0.00  0.00     0.000 OA
ENDBRANCH   3   7
TORSDOF 1
