REMARK  0 active torsions:
REMARK  status: ('A' for Active; 'I' for Inactive)
ROOT
ATOM      1  C   UNN dAMED      -2.881   1.482   0.164  0.00  0.00     0.000 A 
ATOM      2  C   UNN dAMED      -3.520   0.247   0.194  0.00  0.00     0.000 A 
ATOM      3  C   UNN dAMED      -1.490   1.544   0.088  0.00  0.00     0.000 A 
ATOM      4  C   UNN dAMED      -2.769  -0.924   0.147  0.00  0.00     0.002 A 
ATOM      5  C   UNN dAMED      -0.709   0.376   0.040  0.00  0.00     0.003 A 
ATOM      6  C   UNN dAMED      -1.376  -0.860   0.072  0.00  0.00     0.019 A 
ATOM      7  C   UNN dAMED       0.703   0.386  -0.037  0.00  0.00     0.018 A 
ATOM      8  C   UNN dAMED       1.446   1.579  -0.072  0.00  0.00     0.002 A 
ATOM      9  C   UNN dAMED      -0.614  -2.013   0.025  0.00  0.00     0.099 A 
ATOM     10  N   UNN dAMED       0.735  -2.029  -0.049  0.00  0.00    -0.244 NA
ATOM     11  C   UNN dAMED       1.380  -0.851  -0.079  0.00  0.00     0.081 A 
ATOM     12  C   UNN dAMED       2.834   1.562  -0.148  0.00  0.00     0.000 A 
ATOM     13  C   UNN dAMED       3.496   0.344  -0.190  0.00  0.00     0.002 A 
ATOM     14  C   UNN dAMED       2.765  -0.842  -0.155  0.00  0.00     0.019 A 
ENDROOT
TORSDOF 0
