REMARK  7 active torsions:
REMARK  status: ('A' for Active; 'I' for Inactive)
REMARK    1  A    between atoms: C_1  and  O_22 
REMARK    2  A    between atoms: C_4  and  O_25 
REMARK    3  A    between atoms: C_5  and  C_20 
REMARK    4  A    between atoms: C_8  and  C_18 
REMARK    5  A    between atoms: C_9  and  O_13 
REMARK    6  A    between atoms: C_12  and  O_16 
REMARK    7  A    between atoms: C_18  and  C_20 
ROOT
ATOM      1  C   UNN dAMED      -0.290   1.227  -0.383  0.00  0.00     0.234 C 
ATOM      2  O   UNN dAMED      -0.388   2.082  -1.250  0.00  0.00    -0.283 OA
ENDROOT
BRANCH   1   3
ATOM      3  C   UNN dAMED      -1.013   1.317   0.894  0.00  0.00     0.046 A 
ATOM      4  C   UNN dAMED      -1.502   0.176   1.511  0.00  0.00     0.031 A 
ATOM      5  C   UNN dAMED      -2.226   0.297   2.703  0.00  0.00     0.135 A 
ATOM      6  C   UNN dAMED      -2.526   1.527   3.335  0.00  0.00     0.240 A 
ATOM      7  C   UNN dAMED      -2.004   2.644   2.640  0.00  0.00     0.135 A 
ATOM      8  O   UNN dAMED      -3.194   1.619   4.422  0.00  0.00    -0.282 OA
ATOM      9  C   UNN dAMED      -1.266   2.562   1.452  0.00  0.00     0.031 A 
BRANCH   5  10
ATOM     10  O   UNN dAMED      -2.647  -0.884   3.269  0.00  0.00    -0.325 OA
ATOM     11  C   UNN dAMED      -3.119  -0.533   4.536  0.00  0.00     0.181 C 
ENDBRANCH   5  10
BRANCH   7  12
ATOM     12  O   UNN dAMED      -2.204   3.909   3.145  0.00  0.00    -0.325 OA
ATOM     13  C   UNN dAMED      -2.046   4.769   2.056  0.00  0.00     0.181 C 
ENDBRANCH   7  12
ENDBRANCH   1   3
BRANCH   1  14
ATOM     14  C   UNN dAMED       0.552   0.022  -0.688  0.00  0.00     0.234 C 
ATOM     15  O   UNN dAMED       0.002  -1.005  -1.049  0.00  0.00    -0.283 OA
BRANCH  14  16
ATOM     16  C   UNN dAMED       2.006   0.126  -0.605  0.00  0.00     0.046 A 
ATOM     17  C   UNN dAMED       2.624   0.036   0.629  0.00  0.00     0.031 A 
ATOM     18  C   UNN dAMED       4.022   0.056   0.682  0.00  0.00     0.135 A 
ATOM     19  C   UNN dAMED       4.869   0.141  -0.450  0.00  0.00     0.240 A 
ATOM     20  C   UNN dAMED       4.155   0.207  -1.670  0.00  0.00     0.135 A 
ATOM     21  O   UNN dAMED       6.146   0.154  -0.375  0.00  0.00    -0.282 OA
ATOM     22  C   UNN dAMED       2.758   0.200  -1.768  0.00  0.00     0.031 A 
BRANCH  18  23
ATOM     23  O   UNN dAMED       4.571  -0.011   1.941  0.00  0.00    -0.325 OA
ATOM     24  C   UNN dAMED       4.762   1.319   2.320  0.00  0.00     0.181 C 
ENDBRANCH  18  23
BRANCH  20  25
ATOM     25  O   UNN dAMED       4.838   0.278  -2.863  0.00  0.00    -0.325 OA
ATOM     26  C   UNN dAMED       6.190   0.255  -2.514  0.00  0.00     0.181 C 
ENDBRANCH  20  25
ENDBRANCH  14  16
ENDBRANCH   1  14
TORSDOF 7
