REMARK  4 active torsions:
REMARK  status: ('A' for Active; 'I' for Inactive)
REMARK    1  A    between atoms: C_2  and  C_9 
REMARK    2  A    between atoms: C_5  and  C_7 
REMARK    3  A    between atoms: C_10  and  C_11 
REMARK    4  A    between atoms: C_11  and  C_12 
ROOT
ATOM      1  N   UNN dAMED      -1.075  -1.149   0.448  0.00  0.00    -0.244 NA
ATOM      2  C   UNN dAMED      -0.239  -0.241  -0.111  0.00  0.00     0.081 A 
ATOM      3  C   UNN dAMED      -0.678   0.980  -0.607  0.00  0.00     0.019 A 
ATOM      4  C   UNN dAMED      -2.039   1.262  -0.566  0.00  0.00    -0.001 A 
ATOM      5  C   UNN dAMED      -2.919   0.332  -0.033  0.00  0.00    -0.003 A 
ATOM      6  C   UNN dAMED      -2.390  -0.838   0.480  0.00  0.00     0.095 A 
ENDROOT
BRANCH   2   7
ATOM      7  C   UNN dAMED       1.198  -0.647  -0.348  0.00  0.00     0.011 C 
ATOM      8  C   UNN dAMED       1.568  -1.314  -1.462  0.00  0.00    -0.042 C 
ATOM      9  C   UNN dAMED       0.178  -0.995  -1.912  0.00  0.00     0.026 C 
BRANCH   8  10
ATOM     10  C   UNN dAMED       3.009  -1.642  -1.422  0.00  0.00     0.022 C 
BRANCH  10  11
ATOM     11  C   UNN dAMED       3.588  -2.614  -2.453  0.00  0.00     0.004 C 
ATOM     12  C   UNN dAMED       2.812  -2.926  -3.739  0.00  0.00     0.000 C 
ENDBRANCH  10  11
ENDBRANCH   8  10
ENDBRANCH   2   7
BRANCH   5  13
ATOM     13  C   UNN dAMED      -4.367   0.675   0.165  0.00  0.00     0.028 C 
ATOM     14  C   UNN dAMED      -5.429  -0.428   0.122  0.00  0.00     0.005 C 
ENDBRANCH   5  13
TORSDOF 4
