REMARK  2 active torsions:
REMARK  status: ('A' for Active; 'I' for Inactive)
REMARK    1  A    between atoms: C_3  and  C_6 
REMARK    2  A    between atoms: C_11  and  C_12 
REMARK       I    between atoms: C_11  and  N_20 
ROOT
ATOM      1  N   UNN dAMED       2.647  -0.028  -2.250  0.00  0.00    -0.135 NA
ATOM      2  C   UNN dAMED       3.346  -0.215  -1.152  0.00  0.00     0.207 A 
ATOM      3  S   UNN dAMED       2.392  -0.577   0.228  0.00  0.00    -0.022 SA
ATOM      4  C   UNN dAMED       0.998  -0.406  -0.771  0.00  0.00     0.219 A 
ATOM      5  N   UNN dAMED       1.288  -0.160  -2.033  0.00  0.00    -0.121 NA
ATOM      6  O   UNN dAMED      -1.171   1.107  -1.483  0.00  0.00    -0.265 OA
ATOM      7  C   UNN dAMED      -1.205   0.164  -0.694  0.00  0.00     0.285 C 
ATOM      8  N   UNN dAMED      -0.224  -0.615  -0.227  0.00  0.00    -0.181 NA
ENDROOT
BRANCH   7   9
ATOM      9  C   UNN dAMED      -2.531  -0.208  -0.177  0.00  0.00     0.113 A 
ATOM     10  C   UNN dAMED      -3.047   0.417   0.956  0.00  0.00     0.147 A 
ATOM     11  F   UNN dAMED      -2.330   1.343   1.609  0.00  0.00    -0.204 F 
ATOM     12  C   UNN dAMED      -4.322   0.096   1.414  0.00  0.00     0.030 A 
ATOM     13  C   UNN dAMED      -5.080  -0.856   0.733  0.00  0.00     0.005 A 
ATOM     14  C   UNN dAMED      -4.570  -1.481  -0.405  0.00  0.00     0.030 A 
ATOM     15  C   UNN dAMED      -3.298  -1.151  -0.858  0.00  0.00     0.147 A 
ATOM     16  F   UNN dAMED      -2.822  -1.740  -1.964  0.00  0.00    -0.204 F 
ENDBRANCH   7   9
BRANCH   2  17
ATOM     17  C   UNN dAMED       4.823  -0.153  -1.069  0.00  0.00     0.443 C 
ATOM     18  F   UNN dAMED       5.380  -1.390  -1.055  0.00  0.00    -0.164 F 
ATOM     19  F   UNN dAMED       5.356   0.504  -2.132  0.00  0.00    -0.164 F 
ATOM     20  F   UNN dAMED       5.260   0.493   0.042  0.00  0.00    -0.164 F 
ENDBRANCH   2  17
TORSDOF 2
