REMARK  0 active torsions:
REMARK  status: ('A' for Active; 'I' for Inactive)
ROOT
ATOM      1  N   UNN dAMED       3.034   0.355  -0.008  0.00  0.00    -0.332 N 
ATOM      2  O   UNN dAMED      -5.204  -0.185   0.317  0.00  0.00    -0.287 OA
ATOM      3  C   UNN dAMED      -1.822  -1.204   0.843  0.00  0.00     0.003 C 
ATOM      4  C   UNN dAMED      -3.156  -1.235   0.881  0.00  0.00     0.042 C 
ATOM      5  C   UNN dAMED      -1.113  -0.262  -0.094  0.00  0.00     0.000 C 
ATOM      6  C   UNN dAMED      -3.983  -0.138   0.245  0.00  0.00     0.196 C 
ATOM      7  C   UNN dAMED      -2.000   0.264  -1.192  0.00  0.00     0.003 C 
ATOM      8  C   UNN dAMED       0.190  -0.014  -0.027  0.00  0.00     0.002 C 
ATOM      9  C   UNN dAMED       1.109  -0.579   1.030  0.00  0.00     0.013 C 
ATOM     10  C   UNN dAMED       2.435  -0.407   0.966  0.00  0.00     0.037 C 
ATOM     11  C   UNN dAMED       0.931   0.892  -0.980  0.00  0.00     0.013 C 
ATOM     12  C   UNN dAMED      -3.326   0.174  -1.083  0.00  0.00     0.042 C 
ATOM     13  C   UNN dAMED       2.263   1.007  -0.939  0.00  0.00     0.037 C 
ATOM     14  C   UNN dAMED       3.256  -1.077   2.034  0.00  0.00     0.050 C 
ATOM     15  C   UNN dAMED       4.485   0.501  -0.030  0.00  0.00     0.130 C 
ATOM     16  C   UNN dAMED       2.901   1.908  -1.962  0.00  0.00     0.050 C 
ENDROOT
TORSDOF 0
