REMARK  2 active torsions:
REMARK  status: ('A' for Active; 'I' for Inactive)
REMARK    1  A    between atoms: C_10  and  N_17 
REMARK    2  A    between atoms: C_11  and  N_20 
REMARK       I    between atoms: N_17  and  C_18 
REMARK       I    between atoms: C_18  and  N_20 
ROOT
ATOM      1  N   UNN dAMED      -1.360  -1.441   0.666  0.00  0.00    -0.189 NA
ATOM      2  C   UNN dAMED      -0.156  -1.102   0.138  0.00  0.00     0.369 C 
ATOM      3  O   UNN dAMED       0.147  -1.162  -1.054  0.00  0.00    -0.242 OA
ATOM      4  N   UNN dAMED       0.628  -0.630   1.143  0.00  0.00    -0.191 NA
ENDROOT
BRANCH   1   5
ATOM      5  C   UNN dAMED      -2.040  -2.363  -0.042  0.00  0.00     0.106 A 
ATOM      6  C   UNN dAMED      -1.682  -3.744  -0.026  0.00  0.00     0.127 A 
ATOM      7  N   UNN dAMED      -0.645  -4.303   0.623  0.00  0.00    -0.189 NA
ATOM      8  C   UNN dAMED      -2.496  -4.764  -0.797  0.00  0.00     0.110 A 
ATOM      9  S   UNN dAMED      -0.672  -5.924   0.276  0.00  0.00     0.117 SA
ATOM     10  N   UNN dAMED      -2.012  -6.011  -0.698  0.00  0.00    -0.190 NA
ATOM     11  C   UNN dAMED      -3.645  -4.389  -1.534  0.00  0.00     0.021 A 
ATOM     12  C   UNN dAMED      -3.960  -3.024  -1.486  0.00  0.00     0.003 A 
ATOM     13  C   UNN dAMED      -3.203  -2.068  -0.779  0.00  0.00     0.021 A 
ENDBRANCH   1   5
BRANCH   4  14
ATOM     14  C   UNN dAMED       1.902  -0.375   0.779  0.00  0.00     0.086 A 
ATOM     15  C   UNN dAMED       2.895  -1.358   0.879  0.00  0.00     0.020 A 
ATOM     16  C   UNN dAMED       4.211  -1.104   0.496  0.00  0.00     0.013 A 
ATOM     17  C   UNN dAMED       4.553   0.157   0.023  0.00  0.00     0.058 A 
ATOM     18 CL   UNN dAMED       6.153   0.453  -0.520  0.00  0.00    -0.082 Cl
ATOM     19  C   UNN dAMED       3.602   1.168  -0.048  0.00  0.00     0.013 A 
ATOM     20  C   UNN dAMED       2.289   0.900   0.339  0.00  0.00     0.020 A 
ENDBRANCH   4  14
TORSDOF 2
