REMARK  1 active torsions:
REMARK  status: ('A' for Active; 'I' for Inactive)
REMARK    1  A    between atoms: C_15  and  O_22 
ROOT
ATOM      1  O   UNN dAMED      -2.517   0.026   2.829  0.00  0.00    -0.332 OA
ATOM      2  N   UNN dAMED       0.644  -3.471   0.596  0.00  0.00    -0.255 NA
ATOM      3  O   UNN dAMED      -3.576   1.577   1.306  0.00  0.00    -0.332 OA
ATOM      4  C   UNN dAMED      -3.887   1.930   2.613  0.00  0.00     0.177 C 
ATOM      5  C   UNN dAMED      -3.231   0.970   3.557  0.00  0.00     0.177 C 
ATOM      6  C   UNN dAMED      -2.652   0.484   1.469  0.00  0.00     0.188 C 
ATOM      7  C   UNN dAMED      -1.266   0.896   0.921  0.00  0.00     0.064 C 
ATOM      8  C   UNN dAMED      -3.083  -0.689   0.575  0.00  0.00     0.061 C 
ATOM      9  C   UNN dAMED      -2.073  -1.812   0.355  0.00  0.00     0.028 C 
ATOM     10  C   UNN dAMED      -0.142  -0.126   0.799  0.00  0.00     0.040 C 
ATOM     11  C   UNN dAMED      -0.657  -1.354   0.024  0.00  0.00    -0.034 C 
ATOM     12  C   UNN dAMED       0.342  -1.171   1.819  0.00  0.00     0.026 C 
ATOM     13  C   UNN dAMED       1.041   0.477   0.117  0.00  0.00    -0.021 A 
ATOM     14  C   UNN dAMED       1.311   1.829   0.332  0.00  0.00     0.020 A 
ATOM     15  C   UNN dAMED       2.428   2.408  -0.257  0.00  0.00     0.094 A 
ATOM     16  C   UNN dAMED       0.410  -2.369  -0.340  0.00  0.00     0.010 C 
ATOM     17  C   UNN dAMED       1.906  -0.278  -0.687  0.00  0.00    -0.020 A 
ATOM     18  C   UNN dAMED       3.289   1.669  -1.057  0.00  0.00     0.024 A 
ATOM     19  C   UNN dAMED       1.212  -2.362   1.386  0.00  0.00     0.077 C 
ATOM     20  C   UNN dAMED       1.623  -1.725  -0.995  0.00  0.00     0.063 C 
ATOM     21  C   UNN dAMED       3.022   0.321  -1.273  0.00  0.00    -0.002 A 
ATOM     22  C   UNN dAMED       1.605  -4.487   0.228  0.00  0.00     0.094 C 
ENDROOT
BRANCH  15  23
ATOM     23  O   UNN dAMED       2.691   3.727  -0.038  0.00  0.00    -0.328 OA
ATOM     24  C   UNN dAMED       4.029   3.897  -0.401  0.00  0.00     0.181 C 
ENDBRANCH  15  23
TORSDOF 1
