REMARK  3 active torsions:
REMARK  status: ('A' for Active; 'I' for Inactive)
REMARK    1  A    between atoms: C_4  and  N_17 
REMARK    2  A    between atoms: C_5  and  N_16 
REMARK    3  A    between atoms: C_12  and  N_16 
ROOT
ATOM      1  C   UNN dAMED       1.267   1.260   2.145  0.00  0.00     0.224 C 
ATOM      2  S   UNN dAMED       0.802   2.823   1.650  0.00  0.00    -0.037 SA
ATOM      3  N   UNN dAMED       1.066   0.166   1.376  0.00  0.00    -0.199 NA
ENDROOT
BRANCH   1   4
ATOM      4  N   UNN dAMED       1.863   0.908   3.309  0.00  0.00    -0.199 NA
BRANCH   4   5
ATOM      5  C   UNN dAMED       1.506   1.583   4.421  0.00  0.00     0.161 A 
ATOM      6  N   UNN dAMED       2.488   2.355   4.952  0.00  0.00    -0.226 NA
ATOM      7  C   UNN dAMED       2.209   3.031   6.089  0.00  0.00     0.101 A 
ATOM      8  C   UNN dAMED       0.992   2.983   6.742  0.00  0.00     0.021 A 
ATOM      9  C   UNN dAMED       0.003   2.180   6.194  0.00  0.00     0.000 A 
ATOM     10  C   UNN dAMED       0.261   1.459   5.033  0.00  0.00     0.014 A 
ATOM     11  C   UNN dAMED      -0.818   0.620   4.411  0.00  0.00     0.034 C 
ENDBRANCH   4   5
ENDBRANCH   1   4
BRANCH   3  12
ATOM     12  C   UNN dAMED       1.902   0.028   0.315  0.00  0.00     0.161 A 
ATOM     13  N   UNN dAMED       1.317  -0.492  -0.793  0.00  0.00    -0.226 NA
ATOM     14  C   UNN dAMED       2.089  -0.674  -1.892  0.00  0.00     0.101 A 
ATOM     15  C   UNN dAMED       3.435  -0.366  -1.959  0.00  0.00     0.021 A 
ATOM     16  C   UNN dAMED       4.025   0.152  -0.817  0.00  0.00     0.000 A 
ATOM     17  C   UNN dAMED       3.263   0.341   0.331  0.00  0.00     0.014 A 
ATOM     18  C   UNN dAMED       3.884   0.970   1.546  0.00  0.00     0.034 C 
ENDBRANCH   3  12
TORSDOF 3
