REMARK  5 active torsions:
REMARK  status: ('A' for Active; 'I' for Inactive)
REMARK    1  A    between atoms: C_4  and  O_19 
REMARK    2  A    between atoms: C_7  and  C_20 
REMARK    3  A    between atoms: C_11  and  N_15 
REMARK       I    between atoms: N_15  and  C_16 
REMARK    4  A    between atoms: C_16  and  C_18 
REMARK    5  A    between atoms: C_18  and  O_19 
ROOT
ATOM      1  N   UNN dAMED      -0.870   0.640   0.197  0.00  0.00    -0.206 NA
ATOM      2  C   UNN dAMED      -0.087   0.134  -0.763  0.00  0.00     0.304 C 
ATOM      3  O   UNN dAMED      -0.390  -0.618  -1.684  0.00  0.00    -0.263 OA
ENDROOT
BRANCH   2   4
ATOM      4  C   UNN dAMED       1.378   0.527  -0.705  0.00  0.00     0.185 C 
BRANCH   4   5
ATOM      5  O   UNN dAMED       1.835   1.611   0.059  0.00  0.00    -0.300 OA
BRANCH   5   6
ATOM      6  C   UNN dAMED       2.019   2.630  -0.829  0.00  0.00     0.104 A 
ATOM      7  C   UNN dAMED       1.804   3.933  -0.394  0.00  0.00     0.025 A 
ATOM      8  C   UNN dAMED       1.989   4.990  -1.282  0.00  0.00     0.002 A 
ATOM      9  C   UNN dAMED       2.378   4.739  -2.599  0.00  0.00     0.000 A 
ATOM     10  C   UNN dAMED       2.591   3.431  -3.032  0.00  0.00     0.006 A 
ATOM     11  C   UNN dAMED       2.407   2.379  -2.141  0.00  0.00     0.076 A 
BRANCH  11  12
ATOM     12  C   UNN dAMED       2.664   1.000  -2.570  0.00  0.00     0.268 C 
ATOM     13  O   UNN dAMED       2.722   0.688  -3.750  0.00  0.00    -0.271 OA
ATOM     14  N   UNN dAMED       2.678  -0.027  -1.584  0.00  0.00    -0.057 NA
ENDBRANCH  11  12
ENDBRANCH   5   6
ENDBRANCH   4   5
ENDBRANCH   2   4
BRANCH   1  15
ATOM     15  C   UNN dAMED      -2.172   0.324   0.084  0.00  0.00     0.086 A 
ATOM     16  C   UNN dAMED      -2.747  -0.637   0.926  0.00  0.00     0.032 A 
ATOM     17  C   UNN dAMED      -4.112  -0.923   0.884  0.00  0.00     0.070 A 
ATOM     18 CL   UNN dAMED      -4.710  -2.107   1.984  0.00  0.00    -0.081 Cl
ATOM     19  C   UNN dAMED      -4.931  -0.239  -0.012  0.00  0.00     0.068 A 
ATOM     20 CL   UNN dAMED      -6.624  -0.527  -0.143  0.00  0.00    -0.082 Cl
ATOM     21  C   UNN dAMED      -4.381   0.724  -0.854  0.00  0.00     0.014 A 
ATOM     22  C   UNN dAMED      -3.020   1.009  -0.793  0.00  0.00     0.020 A 
ENDBRANCH   1  15
TORSDOF 5
