REMARK  8 active torsions:
REMARK  status: ('A' for Active; 'I' for Inactive)
REMARK    1  A    between atoms: O_1  and  C_20 
REMARK    2  A    between atoms: O_1  and  C_22 
REMARK    3  A    between atoms: N_2  and  C_24 
REMARK    4  A    between atoms: C_7  and  C_20 
REMARK    5  A    between atoms: C_8  and  O_14 
REMARK    6  A    between atoms: C_10  and  O_16 
REMARK    7  A    between atoms: C_11  and  O_18 
REMARK    8  A    between atoms: C_22  and  C_24 
ROOT
ATOM      1  C   UNN dAMED      -2.415  -3.635   2.638  0.00  0.00     0.032 A 
ATOM      2  C   UNN dAMED      -1.928  -2.573   1.878  0.00  0.00     0.067 A 
ATOM      3  C   UNN dAMED      -3.770  -3.660   2.945  0.00  0.00     0.118 A 
ATOM      4  C   UNN dAMED      -2.754  -1.541   1.437  0.00  0.00     0.032 A 
ATOM      5  C   UNN dAMED      -4.615  -2.644   2.512  0.00  0.00     0.138 A 
ATOM      6  C   UNN dAMED      -4.103  -1.590   1.762  0.00  0.00     0.118 A 
ENDROOT
BRANCH   2   7
ATOM      7  C   UNN dAMED      -0.508  -2.518   1.565  0.00  0.00     0.296 C 
ATOM      8  O   UNN dAMED       0.324  -1.918   2.219  0.00  0.00    -0.259 OA
BRANCH   7   9
ATOM      9  O   UNN dAMED      -0.301  -3.224   0.435  0.00  0.00    -0.299 OA
BRANCH   9  10
ATOM     10  C   UNN dAMED      -1.547  -3.774   0.118  0.00  0.00     0.158 C 
ATOM     11  C   UNN dAMED      -2.750  -3.520   1.033  0.00  0.00     0.035 C 
BRANCH  10  12
ATOM     12  C   UNN dAMED      -1.658  -4.810  -1.005  0.00  0.00     0.280 C 
BRANCH  12  13
ATOM     13  N   UNN dAMED      -2.026  -4.396  -2.339  0.00  0.00     0.145 N 
ATOM     14  C   UNN dAMED      -1.540  -5.110  -3.515  0.00  0.00     0.282 C 
ATOM     15  C   UNN dAMED      -1.833  -4.570  -4.919  0.00  0.00     0.178 C 
ATOM     16  O   UNN dAMED      -1.267  -3.353  -5.337  0.00  0.00    -0.350 OA
ATOM     17  C   UNN dAMED      -1.692  -2.628  -4.211  0.00  0.00     0.178 C 
ATOM     18  C   UNN dAMED      -1.403  -3.156  -2.801  0.00  0.00     0.282 C 
ENDBRANCH  12  13
ENDBRANCH  10  12
ENDBRANCH   9  10
ENDBRANCH   7   9
ENDBRANCH   2   7
BRANCH   3  19
ATOM     19  O   UNN dAMED      -4.250  -4.702   3.680  0.00  0.00    -0.326 OA
ATOM     20  C   UNN dAMED      -5.587  -4.387   3.936  0.00  0.00     0.181 C 
ENDBRANCH   3  19
BRANCH   6  21
ATOM     21  O   UNN dAMED      -4.914  -0.579   1.342  0.00  0.00    -0.326 OA
ATOM     22  C   UNN dAMED      -5.706  -0.265   2.450  0.00  0.00     0.181 C 
ENDBRANCH   6  21
BRANCH   5  23
ATOM     23  O   UNN dAMED      -5.940  -2.678   2.824  0.00  0.00    -0.324 OA
ATOM     24  C   UNN dAMED      -6.054  -3.648   3.822  0.00  0.00     0.182 C 
ENDBRANCH   5  23
TORSDOF 8
