REMARK  8 active torsions:
REMARK  status: ('A' for Active; 'I' for Inactive)
REMARK    1  A    between atoms: C_12  and  O_23 
REMARK    2  A    between atoms: C_20  and  O_31 
REMARK    3  A    between atoms: C_21  and  C_25 
REMARK    4  A    between atoms: C_22  and  O_29 
REMARK    5  A    between atoms: C_25  and  O_27 
REMARK    6  A    between atoms: O_31  and  C_32 
REMARK    7  A    between atoms: C_32  and  C_34 
REMARK    8  A    between atoms: C_34  and  C_35 
ROOT
ATOM      1  N   UNN dAMED      -3.624  -0.807   0.380  0.00  0.00    -0.356 N 
ATOM      2  H   UNN dAMED      -3.212  -1.694   0.622  0.00  0.00     0.166 HD
ATOM      3  N   UNN dAMED      -1.067   1.886   0.368  0.00  0.00    -0.373 N 
ATOM      4  C   UNN dAMED      -3.410   2.725  -0.255  0.00  0.00     0.051 C 
ATOM      5  C   UNN dAMED      -3.886   1.334  -0.004  0.00  0.00    -0.006 A 
ATOM      6  C   UNN dAMED      -2.000   3.001   0.287  0.00  0.00     0.102 C 
ATOM      7  C   UNN dAMED      -2.980   0.399   0.407  0.00  0.00     0.041 A 
ATOM      8  C   UNN dAMED      -5.118   0.736  -0.289  0.00  0.00     0.013 A 
ATOM      9  C   UNN dAMED      -6.373   1.194  -0.730  0.00  0.00     0.003 A 
ATOM     10  C   UNN dAMED      -7.406   0.269  -0.886  0.00  0.00     0.024 A 
ATOM     11  C   UNN dAMED      -4.935  -0.626  -0.031  0.00  0.00     0.058 A 
ATOM     12  C   UNN dAMED      -7.186  -1.077  -0.623  0.00  0.00     0.096 A 
ATOM     13  C   UNN dAMED      -1.579   0.592   0.845  0.00  0.00     0.143 C 
ATOM     14  C   UNN dAMED      -5.956  -1.570  -0.193  0.00  0.00     0.041 A 
ATOM     15  C   UNN dAMED      -0.661  -0.508   0.278  0.00  0.00     0.017 C 
ATOM     16  C   UNN dAMED       0.869  -0.384   0.429  0.00  0.00     0.048 C 
ATOM     17  C   UNN dAMED       0.365   2.071   0.460  0.00  0.00     0.091 C 
ATOM     18  C   UNN dAMED       1.277   0.981  -0.127  0.00  0.00     0.046 C 
ATOM     19  C   UNN dAMED       2.760   1.233   0.166  0.00  0.00     0.050 C 
ATOM     20  C   UNN dAMED       3.762   0.163  -0.296  0.00  0.00     0.102 C 
ATOM     21  C   UNN dAMED       1.737  -1.442  -0.257  0.00  0.00     0.059 C 
ATOM     22  C   UNN dAMED       3.256  -1.272  -0.131  0.00  0.00     0.113 C 
ENDROOT
BRANCH  20  23
ATOM     23  O   UNN dAMED       5.139   0.418  -0.232  0.00  0.00    -0.278 OA
BRANCH  23  24
ATOM     24  C   UNN dAMED       5.292   1.689  -0.697  0.00  0.00     0.283 C 
ATOM     25  O   UNN dAMED       4.467   2.561  -0.465  0.00  0.00    -0.263 OA
BRANCH  24  26
ATOM     26  C   UNN dAMED       6.454   2.034  -1.603  0.00  0.00     0.160 C 
BRANCH  26  27
ATOM     27  C   UNN dAMED       7.918   2.068  -1.049  0.00  0.00     0.161 C 
ATOM     28  O   UNN dAMED       8.258   2.964  -0.292  0.00  0.00    -0.295 OA
ATOM     29  C   UNN dAMED       7.383   2.443  -2.478  0.00  0.00     0.073 C 
ENDBRANCH  26  27
ENDBRANCH  24  26
ENDBRANCH  23  24
ENDBRANCH  20  23
BRANCH  22  30
ATOM     30  O   UNN dAMED       3.954  -2.149   0.727  0.00  0.00    -0.327 OA
ATOM     31  C   UNN dAMED       3.419  -1.550   1.882  0.00  0.00     0.181 C 
ENDBRANCH  22  30
BRANCH  21  32
ATOM     32  C   UNN dAMED       1.165  -2.800  -0.583  0.00  0.00     0.293 C 
ATOM     33  O   UNN dAMED       0.628  -3.450   0.310  0.00  0.00    -0.259 OA
BRANCH  32  34
ATOM     34  O   UNN dAMED       1.239  -3.243  -1.866  0.00  0.00    -0.296 OA
ATOM     35  C   UNN dAMED       1.726  -2.154  -2.600  0.00  0.00     0.185 C 
ENDBRANCH  32  34
ENDBRANCH  21  32
BRANCH  12  36
ATOM     36  O   UNN dAMED      -8.221  -1.957  -0.784  0.00  0.00    -0.328 OA
ATOM     37  C   UNN dAMED      -9.289  -1.183  -1.239  0.00  0.00     0.181 C 
ENDBRANCH  12  36
TORSDOF 8
