REMARK  7 active torsions:
REMARK  status: ('A' for Active; 'I' for Inactive)
REMARK    1  A    between atoms: O_1  and  C_13 
REMARK    2  A    between atoms: O_1  and  C_20 
REMARK    3  A    between atoms: C_3  and  N_25 
REMARK    4  A    between atoms: C_6  and  O_26 
REMARK    5  A    between atoms: C_10  and  O_22 
REMARK    6  A    between atoms: C_14  and  C_20 
REMARK    7  A    between atoms: O_22  and  C_23 
REMARK       I    between atoms: C_23  and  N_25 
ROOT
ATOM      1  C   UNN dAMED       0.135  -2.295   0.470  0.00  0.00     0.025 A 
ATOM      2  C   UNN dAMED      -0.276  -2.957   1.629  0.00  0.00     0.004 A 
ATOM      3  C   UNN dAMED      -0.763  -1.465  -0.200  0.00  0.00     0.107 A 
ATOM      4  C   UNN dAMED      -2.036  -1.226   0.305  0.00  0.00     0.050 A 
ATOM      5  C   UNN dAMED      -1.563  -2.761   2.127  0.00  0.00     0.025 A 
ATOM      6  C   UNN dAMED      -2.437  -1.916   1.446  0.00  0.00     0.105 A 
ENDROOT
BRANCH   3   7
ATOM      7  O   UNN dAMED      -0.336  -0.692  -1.285  0.00  0.00    -0.258 OA
BRANCH   7   8
ATOM      8  C   UNN dAMED      -0.545  -1.278  -2.539  0.00  0.00     0.392 C 
ATOM      9  O   UNN dAMED      -1.604  -1.809  -2.869  0.00  0.00    -0.236 OA
ATOM     10  N   UNN dAMED       0.507  -1.003  -3.313  0.00  0.00    -0.184 NA
BRANCH  10  11
ATOM     11  C   UNN dAMED       0.982  -2.051  -4.023  0.00  0.00     0.109 A 
ATOM     12  C   UNN dAMED       1.240  -3.304  -3.450  0.00  0.00     0.021 A 
ATOM     13  C   UNN dAMED       1.726  -4.373  -4.209  0.00  0.00     0.002 A 
ATOM     14  C   UNN dAMED       1.997  -4.208  -5.564  0.00  0.00     0.002 A 
ATOM     15  C   UNN dAMED       1.805  -2.965  -6.151  0.00  0.00     0.026 A 
ATOM     16  C   UNN dAMED       1.307  -1.915  -5.380  0.00  0.00     0.112 A 
BRANCH  16  17
ATOM     17  O   UNN dAMED       1.122  -0.704  -5.992  0.00  0.00    -0.327 OA
ATOM     18  C   UNN dAMED       0.351   0.027  -5.082  0.00  0.00     0.181 C 
ENDBRANCH  16  17
ENDBRANCH  10  11
ENDBRANCH   7   8
ENDBRANCH   3   7
BRANCH   6  19
ATOM     19  O   UNN dAMED      -3.667  -1.630   2.042  0.00  0.00    -0.273 OA
BRANCH  19  20
ATOM     20  C   UNN dAMED      -4.738  -2.080   1.299  0.00  0.00     0.300 C 
ATOM     21  O   UNN dAMED      -4.930  -1.938   0.102  0.00  0.00    -0.259 OA
BRANCH  20  22
ATOM     22  C   UNN dAMED      -5.795  -2.497   2.221  0.00  0.00     0.064 A 
ATOM     23  C   UNN dAMED      -6.369  -3.757   2.083  0.00  0.00     0.005 A 
ATOM     24  C   UNN dAMED      -7.498  -4.068   2.834  0.00  0.00     0.000 A 
ATOM     25  C   UNN dAMED      -8.046  -3.119   3.697  0.00  0.00     0.000 A 
ATOM     26  C   UNN dAMED      -7.468  -1.856   3.817  0.00  0.00     0.000 A 
ATOM     27  C   UNN dAMED      -6.347  -1.534   3.064  0.00  0.00     0.005 A 
ENDBRANCH  20  22
ENDBRANCH  19  20
ENDBRANCH   6  19
TORSDOF 7
