REMARK  6 active torsions:
REMARK  status: ('A' for Active; 'I' for Inactive)
REMARK    1  A    between atoms: C_2  and  N_25 
REMARK    2  A    between atoms: C_8  and  O_21 
REMARK    3  A    between atoms: C_9  and  O_22 
REMARK    4  A    between atoms: C_14  and  C_19 
REMARK    5  A    between atoms: C_19  and  O_21 
REMARK    6  A    between atoms: O_22  and  C_23 
REMARK       I    between atoms: C_23  and  N_25 
ROOT
ATOM      1  C   UNN dAMED       5.674   1.956   2.902  0.00  0.00     0.050 A 
ATOM      2  C   UNN dAMED       6.338   2.506   3.994  0.00  0.00     0.105 A 
ATOM      3  C   UNN dAMED       4.474   1.292   3.130  0.00  0.00     0.107 A 
ATOM      4  C   UNN dAMED       3.960   1.126   4.415  0.00  0.00     0.025 A 
ATOM      5  C   UNN dAMED       5.845   2.355   5.291  0.00  0.00     0.025 A 
ATOM      6  C   UNN dAMED       4.636   1.692   5.494  0.00  0.00     0.004 A 
ENDROOT
BRANCH   3   7
ATOM      7  O   UNN dAMED       3.935   0.527   2.087  0.00  0.00    -0.258 OA
BRANCH   7   8
ATOM      8  C   UNN dAMED       2.833   1.081   1.412  0.00  0.00     0.392 C 
ATOM      9  O   UNN dAMED       2.327   2.149   1.749  0.00  0.00    -0.236 OA
ATOM     10  N   UNN dAMED       2.407   0.343   0.374  0.00  0.00    -0.186 NA
BRANCH  10  11
ATOM     11  C   UNN dAMED       2.981  -0.865   0.201  0.00  0.00     0.083 A 
ATOM     12  C   UNN dAMED       2.468  -2.013   0.819  0.00  0.00     0.019 A 
ATOM     13  C   UNN dAMED       3.064  -3.261   0.645  0.00  0.00     0.002 A 
ATOM     14  C   UNN dAMED       4.184  -3.385  -0.171  0.00  0.00    -0.000 A 
ATOM     15  C   UNN dAMED       4.698  -2.266  -0.818  0.00  0.00    -0.003 A 
ATOM     16  C   UNN dAMED       4.094  -1.022  -0.639  0.00  0.00    -0.004 A 
ATOM     17  C   UNN dAMED       4.663   0.183  -1.334  0.00  0.00     0.033 C 
ENDBRANCH  10  11
ENDBRANCH   7   8
ENDBRANCH   3   7
BRANCH   2  18
ATOM     18  O   UNN dAMED       7.649   2.958   3.768  0.00  0.00    -0.273 OA
BRANCH  18  19
ATOM     19  C   UNN dAMED       7.999   4.132   4.405  0.00  0.00     0.300 C 
ATOM     20  O   UNN dAMED       7.251   4.979   4.867  0.00  0.00    -0.259 OA
BRANCH  19  21
ATOM     21  C   UNN dAMED       9.468   4.267   4.393  0.00  0.00     0.064 A 
ATOM     22  C   UNN dAMED      10.011   5.527   4.640  0.00  0.00     0.005 A 
ATOM     23  C   UNN dAMED      11.393   5.695   4.669  0.00  0.00     0.000 A 
ATOM     24  C   UNN dAMED      12.230   4.604   4.444  0.00  0.00     0.000 A 
ATOM     25  C   UNN dAMED      11.687   3.344   4.200  0.00  0.00     0.000 A 
ATOM     26  C   UNN dAMED      10.305   3.171   4.184  0.00  0.00     0.005 A 
ENDBRANCH  19  21
ENDBRANCH  18  19
ENDBRANCH   2  18
TORSDOF 6
