REMARK  2 active torsions:
REMARK  status: ('A' for Active; 'I' for Inactive)
REMARK    1  A    between atoms: C_9  and  C_11 
REMARK    2  A    between atoms: C_12  and  N_13 
ROOT
ATOM      1  H   UNN dAMED       0.055   0.358  -1.645  0.00  0.00     0.166 HD
ATOM      2  N   UNN dAMED      -0.332   0.207  -0.724  0.00  0.00    -0.353 N 
ATOM      3  C   UNN dAMED      -2.786   0.244  -1.276  0.00  0.00     0.017 A 
ATOM      4  C   UNN dAMED      -1.677   0.150  -0.430  0.00  0.00     0.057 A 
ATOM      5  C   UNN dAMED      -4.046   0.168  -0.678  0.00  0.00     0.002 A 
ATOM      6  C   UNN dAMED      -1.791  -0.007   0.955  0.00  0.00     0.017 A 
ATOM      7  C   UNN dAMED      -4.190   0.015   0.697  0.00  0.00     0.000 A 
ATOM      8  C   UNN dAMED      -0.475  -0.055   1.486  0.00  0.00     0.018 A 
ATOM      9  C   UNN dAMED       0.381   0.036   0.422  0.00  0.00     0.058 A 
ATOM     10  C   UNN dAMED      -3.072  -0.071   1.529  0.00  0.00     0.002 A 
ENDROOT
BRANCH   9  11
ATOM     11  C   UNN dAMED       1.820   0.423   0.568  0.00  0.00     0.042 C 
ATOM     12  C   UNN dAMED       2.535   0.773  -0.499  0.00  0.00     0.150 C 
BRANCH  12  13
ATOM     13  N   UNN dAMED       3.905   1.127  -0.337  0.00  0.00    -0.112 N 
ATOM     14  O   UNN dAMED       4.602   0.379   0.356  0.00  0.00    -0.532 OA
ATOM     15  O   UNN dAMED       4.296   2.149  -0.911  0.00  0.00    -0.532 OA
ENDBRANCH  12  13
ENDBRANCH   9  11
TORSDOF 2
