REMARK  3 active torsions:
REMARK  status: ('A' for Active; 'I' for Inactive)
REMARK    1  A    between atoms: P_4  and  O_7 
REMARK    2  A    between atoms: O_7  and  C_9 
REMARK    3  A    between atoms: C_18  and  O_20 
ROOT
ATOM      1  N   UNN dAMED       0.041  -0.066   0.872  0.00  0.00    -0.319 N 
ATOM      2  H   UNN dAMED      -0.144  -0.085   1.871  0.00  0.00     0.169 HD
ATOM      3  N   UNN dAMED       0.688  -1.032  -1.292  0.00  0.00    -0.318 N 
ATOM      4  P   UNN dAMED      -0.605  -1.175  -0.221  0.00  0.00     0.256 P 
ATOM      5  H   UNN dAMED       0.970  -1.765  -1.937  0.00  0.00     0.169 HD
ATOM      6  S   UNN dAMED      -2.355  -0.770  -0.979  0.00  0.00    -0.021 SA
ATOM      7  C   UNN dAMED       2.263   0.997   1.275  0.00  0.00     0.021 A 
ATOM      8  C   UNN dAMED       3.540   1.205   0.756  0.00  0.00     0.026 A 
ATOM      9  C   UNN dAMED       1.397   0.183   0.566  0.00  0.00     0.075 A 
ATOM     10  C   UNN dAMED       1.767  -0.374  -0.668  0.00  0.00     0.077 A 
ATOM     11  C   UNN dAMED       3.898   0.638  -0.471  0.00  0.00     0.096 A 
ATOM     12  C   UNN dAMED       3.014  -0.137  -1.216  0.00  0.00     0.043 A 
ENDROOT
BRANCH   4  13
ATOM     13  O   UNN dAMED      -0.466  -2.664   0.427  0.00  0.00    -0.279 OA
BRANCH  13  14
ATOM     14  C   UNN dAMED      -0.889  -2.932   1.699  0.00  0.00     0.102 A 
ATOM     15  C   UNN dAMED      -2.215  -2.711   2.059  0.00  0.00     0.025 A 
ATOM     16  C   UNN dAMED      -2.664  -3.104   3.316  0.00  0.00     0.002 A 
ATOM     17  C   UNN dAMED      -1.792  -3.744   4.194  0.00  0.00     0.000 A 
ATOM     18  C   UNN dAMED      -0.469  -3.977   3.821  0.00  0.00     0.002 A 
ATOM     19  C   UNN dAMED      -0.014  -3.573   2.568  0.00  0.00     0.025 A 
ENDBRANCH  13  14
ENDBRANCH   4  13
BRANCH  11  20
ATOM     20  O   UNN dAMED       5.155   0.860  -0.954  0.00  0.00    -0.328 OA
ATOM     21  C   UNN dAMED       5.946   1.075   0.177  0.00  0.00     0.181 C 
ENDBRANCH  11  20
TORSDOF 3
