REMARK  4 active torsions:
REMARK  status: ('A' for Active; 'I' for Inactive)
REMARK    1  A    between atoms: C_7  and  O_18 
REMARK    2  A    between atoms: CA_10  and  C_19 
REMARK    3  A    between atoms: C_12  and  C_17 
REMARK    4  A    between atoms: C_17  and  O_18 
ROOT
ATOM      1  N   UNN dAMED       3.216  -0.246  -0.971  0.00  0.00    -0.349 N 
ATOM      2  H   UNN dAMED       3.727  -0.547  -1.789  0.00  0.00     0.166 HD
ATOM      3  C   UNN dAMED       1.522  -2.093  -0.870  0.00  0.00     0.019 A 
ATOM      4  C   UNN dAMED       2.140  -0.915  -0.436  0.00  0.00     0.057 A 
ATOM      5  C   UNN dAMED       0.434  -2.550  -0.129  0.00  0.00     0.026 A 
ATOM      6  C   UNN dAMED       1.725  -0.200   0.688  0.00  0.00     0.019 A 
ATOM      7  C   UNN dAMED       0.004  -1.850   0.990  0.00  0.00     0.095 A 
ATOM      8  C   UNN dAMED       0.625  -0.677   1.425  0.00  0.00     0.026 A 
ATOM      9  C   UNN dAMED       2.595   0.919   0.812  0.00  0.00     0.025 A 
ATOM     10  CA  UNN dAMED       3.499   0.866  -0.226  0.00  0.00     0.122 A 
ENDROOT
BRANCH   7  11
ATOM     11  O   UNN dAMED      -1.079  -2.321   1.675  0.00  0.00    -0.326 OA
BRANCH  11  12
ATOM     12  C   UNN dAMED      -1.851  -1.190   1.956  0.00  0.00     0.175 C 
BRANCH  12  13
ATOM     13  C   UNN dAMED      -3.339  -1.302   2.147  0.00  0.00     0.008 A 
ATOM     14  C   UNN dAMED      -4.196  -0.948   1.107  0.00  0.00    -0.002 A 
ATOM     15  C   UNN dAMED      -5.571  -0.900   1.324  0.00  0.00    -0.000 A 
ATOM     16  C   UNN dAMED      -6.088  -1.199   2.582  0.00  0.00    -0.000 A 
ATOM     17  C   UNN dAMED      -5.232  -1.554   3.621  0.00  0.00    -0.000 A 
ATOM     18  C   UNN dAMED      -3.857  -1.601   3.406  0.00  0.00    -0.002 A 
ENDBRANCH  12  13
ENDBRANCH  11  12
ENDBRANCH   7  11
BRANCH  10  19
ATOM     19  C   UNN dAMED       4.585   1.815  -0.504  0.00  0.00     0.227 C 
ATOM     20  O   UNN dAMED       4.432   3.002  -0.086  0.00  0.00    -0.643 OA
ATOM     21  OXT UNN dAMED       5.579   1.359  -1.147  0.00  0.00    -0.643 OA
ENDBRANCH  10  19
TORSDOF 4
