REMARK  1 active torsions:
REMARK  status: ('A' for Active; 'I' for Inactive)
REMARK    1  A    between atoms: C_3  and  C_31 
ROOT
ATOM      1  N   UNN dAMED      -4.492  -2.250   1.665  0.00  0.00    -0.164 NA
ATOM      2  N   UNN dAMED      -4.454  -1.133   0.898  0.00  0.00    -0.230 N 
ATOM      3  C   UNN dAMED       4.862   1.086   0.222  0.00  0.00     0.177 C 
ATOM      4  C   UNN dAMED       3.448   0.742   0.689  0.00  0.00     0.030 C 
ATOM      5  C   UNN dAMED       4.694   1.749  -1.136  0.00  0.00     0.034 C 
ATOM      6  C   UNN dAMED       3.305  -0.773   0.806  0.00  0.00     0.035 C 
ATOM      7  C   UNN dAMED       1.893  -1.329   0.867  0.00  0.00     0.147 C 
ATOM      8  C   UNN dAMED       3.233   2.068  -1.345  0.00  0.00    -0.003 C 
ATOM      9  C   UNN dAMED       2.409   1.305  -0.301  0.00  0.00     0.019 C 
ATOM     10  C   UNN dAMED       0.904  -0.807  -0.185  0.00  0.00     0.051 C 
ATOM     11  C   UNN dAMED       1.581   0.260  -1.044  0.00  0.00     0.034 C 
ATOM     12  C   UNN dAMED      -0.331  -0.265   0.514  0.00  0.00     0.020 C 
ATOM     13  C   UNN dAMED      -0.992  -1.442   1.272  0.00  0.00     0.033 C 
ATOM     14  C   UNN dAMED      -2.421  -1.307   1.703  0.00  0.00     0.017 A 
ATOM     15  C   UNN dAMED      -3.236  -2.372   2.114  0.00  0.00     0.118 A 
ATOM     16  C   UNN dAMED       0.506   1.017  -1.872  0.00  0.00    -0.038 C 
ATOM     17  C   UNN dAMED      -1.315   0.365  -0.426  0.00  0.00    -0.026 C 
ATOM     18  C   UNN dAMED      -3.227  -0.532   0.915  0.00  0.00     0.080 A 
ATOM     19  C   UNN dAMED      -0.795   1.073  -1.557  0.00  0.00    -0.030 C 
ATOM     20  C   UNN dAMED      -2.639   0.203  -0.271  0.00  0.00     0.014 C 
ATOM     21  C   UNN dAMED      -5.551  -0.730   0.136  0.00  0.00     0.083 A 
ATOM     22  C   UNN dAMED      -6.748  -0.427   0.779  0.00  0.00     0.019 A 
ATOM     23  C   UNN dAMED      -7.833  -0.009   0.013  0.00  0.00     0.002 A 
ATOM     24  C   UNN dAMED      -7.706   0.118  -1.371  0.00  0.00     0.000 A 
ATOM     25  C   UNN dAMED      -6.496  -0.181  -1.998  0.00  0.00     0.002 A 
ATOM     26  C   UNN dAMED      -5.409  -0.615  -1.245  0.00  0.00     0.019 A 
ATOM     27  O   UNN dAMED       1.622  -2.441   1.625  0.00  0.00    -0.224 OA
ATOM     28  C   UNN dAMED       0.080   0.760   1.577  0.00  0.00     0.004 C 
ATOM     29  C   UNN dAMED      -1.730   1.771  -2.504  0.00  0.00     0.030 C 
ATOM     30  C   UNN dAMED       3.202   1.346   2.075  0.00  0.00     0.003 C 
ATOM     31  O   UNN dAMED       5.421   1.901   1.070  0.00  0.00    -0.218 OA
ATOM     32  C   UNN dAMED       5.812   2.572  -1.786  0.00  0.00     0.003 C 
ENDROOT
BRANCH   3  33
ATOM     33  C   UNN dAMED       5.694  -0.156   0.127  0.00  0.00     0.178 C 
ATOM     34  O   UNN dAMED       5.328  -1.164  -0.465  0.00  0.00    -0.293 OA
ATOM     35  C   UNN dAMED       7.062  -0.148   0.751  0.00  0.00     0.075 C 
ENDBRANCH   3  33
TORSDOF 1
