REMARK  2 active torsions:
REMARK  status: ('A' for Active; 'I' for Inactive)
REMARK    1  A    between atoms: C_8  and  C_18 
REMARK    2  A    between atoms: C_12  and  N_15 
ROOT
ATOM      1  N   UNN dAMED       0.328  -1.829   0.350  0.00  0.00    -0.353 N 
ATOM      2  H   UNN dAMED       0.096  -2.791   0.554  0.00  0.00     0.166 HD
ATOM      3  C   UNN dAMED       2.833  -2.027   0.294  0.00  0.00     0.017 A 
ATOM      4  C   UNN dAMED       1.610  -1.352   0.207  0.00  0.00     0.056 A 
ATOM      5  C   UNN dAMED       3.991  -1.274   0.088  0.00  0.00     0.001 A 
ATOM      6  C   UNN dAMED       3.932   0.088  -0.187  0.00  0.00    -0.004 A 
ATOM      7  C   UNN dAMED       1.514   0.012  -0.066  0.00  0.00     0.013 A 
ATOM      8  C   UNN dAMED       2.701   0.742  -0.262  0.00  0.00    -0.021 A 
ATOM      9  C   UNN dAMED       0.124   0.347  -0.091  0.00  0.00     0.017 A 
ATOM     10  C   UNN dAMED      -1.994  -0.868   0.220  0.00  0.00     0.041 A 
ATOM     11  C   UNN dAMED      -0.593  -0.822   0.171  0.00  0.00     0.058 A 
ATOM     12  C   UNN dAMED      -2.651   0.346  -0.001  0.00  0.00     0.128 A 
ATOM     13  C   UNN dAMED      -1.983   1.537  -0.261  0.00  0.00     0.024 A 
ATOM     14  C   UNN dAMED      -0.587   1.545  -0.314  0.00  0.00     0.003 A 
ENDROOT
BRANCH  12  15
ATOM     15  N   UNN dAMED      -4.096   0.362   0.041  0.00  0.00    -0.114 N 
ATOM     16  O   UNN dAMED      -4.639  -0.146   1.031  0.00  0.00    -0.532 OA
ATOM     17  O   UNN dAMED      -4.686   0.883  -0.915  0.00  0.00    -0.532 OA
ENDBRANCH  12  15
BRANCH   8  18
ATOM     18  C   UNN dAMED       2.637   2.188  -0.659  0.00  0.00     0.026 C 
ATOM     19  C   UNN dAMED       2.839   2.577  -2.127  0.00  0.00     0.005 C 
ENDBRANCH   8  18
TORSDOF 2
