REMARK  2 active torsions:
REMARK  status: ('A' for Active; 'I' for Inactive)
REMARK    1  A    between atoms: N_3  and  C_7 
REMARK    2  A    between atoms: C_7  and  C_8 
ROOT
ATOM      1  S   UNN dAMED      -2.644   0.460   0.029  0.00  0.00    -0.084 SA
ATOM      2  S   UNN dAMED      -1.579  -2.275  -0.667  0.00  0.00    -0.052 SA
ATOM      3  N   UNN dAMED      -0.052  -0.190   0.020  0.00  0.00    -0.314 N 
ATOM      4  C   UNN dAMED      -1.325  -0.692  -0.197  0.00  0.00     0.143 A 
ATOM      5  C   UNN dAMED      -0.117   1.171   0.401  0.00  0.00     0.119 A 
ATOM      6  C   UNN dAMED      -1.515   1.723   0.506  0.00  0.00     0.089 A 
ENDROOT
BRANCH   3   7
ATOM      7  C   UNN dAMED       0.849  -1.167  -0.451  0.00  0.00     0.086 C 
BRANCH   7   8
ATOM      8  C   UNN dAMED       0.991  -1.368  -1.964  0.00  0.00     0.227 C 
ATOM      9  O   UNN dAMED       2.122  -1.933  -2.484  0.00  0.00    -0.214 OA
ENDBRANCH   7   8
ENDBRANCH   3   7
TORSDOF 2
