REMARK  1 active torsions:
REMARK  status: ('A' for Active; 'I' for Inactive)
REMARK    1  A    between atoms: C_7  and  C_8 
ROOT
ATOM      1 CL   UNN dAMED      -3.515  -0.043  -0.346  0.00  0.00    -0.059 Cl
ATOM      2  C   UNN dAMED      -1.861   0.306  -0.103  0.00  0.00     0.160 A 
ATOM      3  N   UNN dAMED      -1.560   1.570   0.210  0.00  0.00    -0.133 NA
ATOM      4  C   UNN dAMED      -0.910  -0.672  -0.223  0.00  0.00     0.044 A 
ATOM      5  N   UNN dAMED      -0.239   1.908   0.408  0.00  0.00    -0.105 NA
ATOM      6  C   UNN dAMED       0.770   1.005   0.297  0.00  0.00     0.303 A 
ATOM      7  C   UNN dAMED       0.426  -0.322  -0.022  0.00  0.00     0.126 A 
ATOM      8  O   UNN dAMED       1.950   1.446   0.497  0.00  0.00    -0.263 OA
ENDROOT
BRANCH   7   9
ATOM      9  C   UNN dAMED       1.438  -1.419  -0.170  0.00  0.00     0.216 C 
ATOM     10  O   UNN dAMED       2.276  -1.565   0.772  0.00  0.00    -0.644 OA
ATOM     11  O   UNN dAMED       1.346  -2.133  -1.216  0.00  0.00    -0.644 OA
ENDBRANCH   7   9
TORSDOF 1
