REMARK  1 active torsions:
REMARK  status: ('A' for Active; 'I' for Inactive)
REMARK    1  A    between atoms: C_8  and  S_10 
ROOT
ATOM      1  H   UNN dAMED       1.486  -1.549   0.030  0.00  0.00     0.168 HD
ATOM      2  N   UNN dAMED       0.666  -0.953   0.014  0.00  0.00    -0.337 N 
ATOM      3  S   UNN dAMED      -2.864   1.658  -0.052  0.00  0.00    -0.057 SA
ATOM      4  N   UNN dAMED      -0.185   1.287  -0.010  0.00  0.00    -0.212 NA
ATOM      5  C   UNN dAMED      -0.550  -1.570  -0.002  0.00  0.00     0.038 A 
ATOM      6  C   UNN dAMED      -1.615  -0.766  -0.022  0.00  0.00     0.043 A 
ATOM      7  C   UNN dAMED      -1.455   0.747  -0.027  0.00  0.00     0.139 A 
ATOM      8  C   UNN dAMED       0.778   0.415   0.009  0.00  0.00     0.169 A 
ATOM      9  C   UNN dAMED      -0.634  -3.067   0.005  0.00  0.00     0.050 C 
ENDROOT
BRANCH   8  10
ATOM     10  S   UNN dAMED       2.426   1.034   0.031  0.00  0.00    -0.076 SA
ATOM     11  C   UNN dAMED       3.197  -0.581  -0.021  0.00  0.00     0.077 C 
ENDBRANCH   8  10
TORSDOF 1
