REMARK  3 active torsions:
REMARK  status: ('A' for Active; 'I' for Inactive)
REMARK    1  A    between atoms: C_10  and  C_15 
REMARK    2  A    between atoms: C_15  and  C_16 
REMARK    3  A    between atoms: C_16  and  C_17 
ROOT
ATOM      1  O   UNN dAMED       0.174  -3.870  -0.927  0.00  0.00    -0.245 OA
ATOM      2  H   UNN dAMED       0.880  -1.392  -1.446  0.00  0.00     0.166 HD
ATOM      3  N   UNN dAMED       0.280  -1.585  -0.650  0.00  0.00    -0.318 N 
ATOM      4  O   UNN dAMED      -1.524  -1.092   2.200  0.00  0.00    -0.268 OA
ATOM      5  C   UNN dAMED      -0.551   1.809  -0.053  0.00  0.00    -0.002 A 
ATOM      6  C   UNN dAMED      -0.959   0.497  -0.296  0.00  0.00     0.004 A 
ATOM      7  C   UNN dAMED      -1.272   2.879  -0.576  0.00  0.00    -0.000 A 
ATOM      8  C   UNN dAMED      -2.410   2.644  -1.344  0.00  0.00    -0.000 A 
ATOM      9  C   UNN dAMED      -2.106   0.268  -1.062  0.00  0.00    -0.002 A 
ATOM     10  C   UNN dAMED      -0.152  -0.615   0.295  0.00  0.00     0.158 A 
ATOM     11  C   UNN dAMED      -0.938  -1.522   1.212  0.00  0.00     0.281 A 
ATOM     12  C   UNN dAMED      -2.829   1.338  -1.584  0.00  0.00    -0.000 A 
ATOM     13  C   UNN dAMED      -0.118  -2.862  -0.292  0.00  0.00     0.346 A 
ATOM     14  N   UNN dAMED      -0.852  -2.801   0.829  0.00  0.00    -0.156 NA
ENDROOT
BRANCH  10  15
ATOM     15  C   UNN dAMED       1.044  -0.044   1.065  0.00  0.00     0.045 C 
BRANCH  15  16
ATOM     16  C   UNN dAMED       1.833  -0.939   2.029  0.00  0.00     0.100 C 
BRANCH  16  17
ATOM     17  C   UNN dAMED       3.242  -1.348   1.693  0.00  0.00     0.185 C 
ATOM     18  O   UNN dAMED       3.492  -1.555   0.468  0.00  0.00    -0.647 OA
ATOM     19  O   UNN dAMED       4.044  -1.473   2.666  0.00  0.00    -0.647 OA
ENDBRANCH  16  17
ENDBRANCH  15  16
ENDBRANCH  10  15
TORSDOF 3
