REMARK  1 active torsions:
REMARK  status: ('A' for Active; 'I' for Inactive)
REMARK    1  A    between atoms: C_9  and  N_14 
ROOT
ATOM      1  O   UNN dAMED      -2.976   0.704   0.283  0.00  0.00    -0.265 OA
ATOM      2  H   UNN dAMED      -2.453  -1.760   0.639  0.00  0.00     0.173 HD
ATOM      3  N   UNN dAMED      -1.641  -1.186   0.429  0.00  0.00    -0.273 N 
ATOM      4  O   UNN dAMED      -0.280  -3.058   0.565  0.00  0.00    -0.246 OA
ATOM      5  N   UNN dAMED       0.667  -0.993   0.081  0.00  0.00    -0.230 N 
ATOM      6  H   UNN dAMED       2.046   1.774  -0.589  0.00  0.00     0.191 HD
ATOM      7  N   UNN dAMED       1.819   0.812  -0.382  0.00  0.00    -0.258 N 
ATOM      8  N   UNN dAMED       2.746  -0.202  -0.341  0.00  0.00    -0.158 NA
ATOM      9  C   UNN dAMED      -0.642   0.946  -0.075  0.00  0.00     0.216 A 
ATOM     10  C   UNN dAMED       0.554   0.359  -0.134  0.00  0.00     0.173 A 
ATOM     11  C   UNN dAMED      -1.871   0.176   0.224  0.00  0.00     0.286 A 
ATOM     12  C   UNN dAMED       2.034  -1.264  -0.062  0.00  0.00     0.149 A 
ATOM     13  C   UNN dAMED      -0.400  -1.848   0.373  0.00  0.00     0.336 A 
ATOM     14  C   UNN dAMED       2.620  -2.636   0.089  0.00  0.00     0.074 C 
ENDROOT
BRANCH   9  15
ATOM     15  N   UNN dAMED      -0.716   2.359  -0.304  0.00  0.00    -0.106 N 
ATOM     16  O   UNN dAMED      -0.795   2.733  -1.480  0.00  0.00    -0.531 OA
ATOM     17  O   UNN dAMED      -0.723   3.087   0.696  0.00  0.00    -0.531 OA
ENDBRANCH   9  15
TORSDOF 1
