REMARK  4 active torsions:
REMARK  status: ('A' for Active; 'I' for Inactive)
REMARK    1  A    between atoms: N_1  and  C_18 
REMARK    2  A    between atoms: C_15  and  C_16 
REMARK    3  A    between atoms: C_16  and  N_17 
REMARK    4  A    between atoms: N_17  and  C_18 
ROOT
ATOM      1  N   UNN dAMED       1.721  -0.353  -0.101  0.00  0.00    -0.226 NA
ATOM      2  N   UNN dAMED      -1.564  -0.349  -0.212  0.00  0.00    -0.249 NA
ATOM      3 CL   UNN dAMED      -2.891  -0.928  -2.921  0.00  0.00    -0.081 Cl
ATOM      4  C   UNN dAMED      -3.442  -1.196   1.047  0.00  0.00     0.012 A 
ATOM      5  C   UNN dAMED      -2.846  -0.929  -0.188  0.00  0.00     0.047 A 
ATOM      6  C   UNN dAMED      -4.718  -1.750   1.117  0.00  0.00     0.001 A 
ATOM      7  C   UNN dAMED      -5.412  -2.043  -0.053  0.00  0.00     0.001 A 
ATOM      8  C   UNN dAMED      -3.551  -1.230  -1.358  0.00  0.00     0.068 A 
ATOM      9  C   UNN dAMED      -4.829  -1.784  -1.290  0.00  0.00     0.012 A 
ATOM     10  C   UNN dAMED      -0.566  -0.799  -1.191  0.00  0.00     0.094 C 
ATOM     11  C   UNN dAMED       0.824  -0.153  -1.206  0.00  0.00     0.097 C 
ATOM     12  C   UNN dAMED      -0.636  -0.570   0.904  0.00  0.00     0.094 C 
ATOM     13  C   UNN dAMED       0.753   0.075   0.871  0.00  0.00     0.097 C 
ENDROOT
BRANCH   1  14
ATOM     14  C   UNN dAMED       2.673   0.635  -0.173  0.00  0.00     0.173 C 
ATOM     15  S   UNN dAMED       4.195   0.346  -0.799  0.00  0.00    -0.045 SA
BRANCH  14  16
ATOM     16  N   UNN dAMED       2.256   1.807   0.289  0.00  0.00    -0.245 NA
BRANCH  16  17
ATOM     17  C   UNN dAMED       0.896   1.945   0.786  0.00  0.00     0.154 C 
BRANCH  17  18
ATOM     18  C   UNN dAMED       0.515   1.354   2.147  0.00  0.00     0.000 C 
ATOM     19  C   UNN dAMED      -0.178   0.218   2.210  0.00  0.00    -0.003 C 
ENDBRANCH  17  18
ENDBRANCH  16  17
ENDBRANCH  14  16
ENDBRANCH   1  14
TORSDOF 4
