REMARK  5 active torsions:
REMARK  status: ('A' for Active; 'I' for Inactive)
REMARK    1  A    between atoms: C_12  and  N_17 
REMARK    2  A    between atoms: C_16  and  S_20 
REMARK    3  A    between atoms: S_20  and  C_21 
REMARK    4  A    between atoms: C_21  and  C_22 
REMARK    5  A    between atoms: C_22  and  C_23 
ROOT
ATOM      1  S   UNN dAMED      -0.948   0.710   3.996  0.00  0.00    -0.080 SA
ENDROOT
BRANCH   1   2
ATOM      2  C   UNN dAMED      -1.817   0.297   5.454  0.00  0.00     0.137 A 
ATOM      3  N   UNN dAMED      -1.323  -0.546   6.331  0.00  0.00    -0.232 NA
ATOM      4  C   UNN dAMED      -2.215  -0.703   7.381  0.00  0.00     0.089 A 
ATOM      5  C   UNN dAMED      -3.389   0.049   7.274  0.00  0.00     0.051 A 
ATOM      6  C   UNN dAMED      -2.033  -1.533   8.509  0.00  0.00     0.021 A 
ATOM      7  C   UNN dAMED      -4.393   0.022   8.249  0.00  0.00     0.032 A 
ATOM      8  S   UNN dAMED      -3.354   0.951   5.811  0.00  0.00    -0.060 SA
ATOM      9  C   UNN dAMED      -4.152  -0.807   9.343  0.00  0.00     0.127 A 
ATOM     10  C   UNN dAMED      -3.012  -1.579   9.501  0.00  0.00     0.025 A 
BRANCH   9  11
ATOM     11  N   UNN dAMED      -5.131  -0.818  10.390  0.00  0.00    -0.114 N 
ATOM     12  O   UNN dAMED      -5.926  -1.765  10.404  0.00  0.00    -0.532 OA
ATOM     13  O   UNN dAMED      -5.108   0.129  11.186  0.00  0.00    -0.532 OA
ENDBRANCH   9  11
ENDBRANCH   1   2
BRANCH   1  14
ATOM     14  C   UNN dAMED      -2.192   0.035   2.889  0.00  0.00     0.133 C 
BRANCH  14  15
ATOM     15  C   UNN dAMED      -1.933  -0.107   1.411  0.00  0.00     0.184 C 
ATOM     16  O   UNN dAMED      -0.824  -0.456   1.026  0.00  0.00    -0.290 OA
BRANCH  15  17
ATOM     17  C   UNN dAMED      -3.072  -0.106   0.493  0.00  0.00     0.036 A 
ATOM     18  C   UNN dAMED      -4.353  -0.189   1.030  0.00  0.00     0.003 A 
ATOM     19  C   UNN dAMED      -5.453  -0.175   0.171  0.00  0.00     0.000 A 
ATOM     20  C   UNN dAMED      -6.751  -0.253   0.675  0.00  0.00     0.000 A 
ATOM     21  C   UNN dAMED      -5.253  -0.078  -1.226  0.00  0.00     0.000 A 
ATOM     22  C   UNN dAMED      -7.843  -0.234  -0.192  0.00  0.00     0.000 A 
ATOM     23  C   UNN dAMED      -7.644  -0.137  -1.567  0.00  0.00     0.000 A 
ATOM     24  C   UNN dAMED      -6.353  -0.060  -2.083  0.00  0.00     0.000 A 
ATOM     25  C   UNN dAMED      -3.958   0.005  -1.739  0.00  0.00     0.000 A 
ATOM     26  C   UNN dAMED      -2.863  -0.004  -0.880  0.00  0.00     0.003 A 
ENDBRANCH  15  17
ENDBRANCH  14  15
ENDBRANCH   1  14
TORSDOF 5
