REMARK  4 active torsions:
REMARK  status: ('A' for Active; 'I' for Inactive)
REMARK    1  A    between atoms: C_1  and  C_18 
REMARK    2  A    between atoms: C_6  and  C_7 
REMARK       I    between atoms: C_7  and  N_22 
REMARK    3  A    between atoms: C_9  and  N_22 
REMARK    4  A    between atoms: C_14  and  S_17 
ROOT
ATOM      1  C   UNN dAMED      -0.347   0.675   0.092  0.00  0.00     0.279 C 
ATOM      2  O   UNN dAMED       0.055   1.558   0.848  0.00  0.00    -0.265 OA
ATOM      3  N   UNN dAMED       0.366  -0.117  -0.724  0.00  0.00    -0.208 NA
ENDROOT
BRANCH   1   4
ATOM      4  C   UNN dAMED      -1.822   0.481  -0.001  0.00  0.00     0.058 A 
ATOM      5  C   UNN dAMED      -2.669   1.479   0.487  0.00  0.00     0.004 A 
ATOM      6  C   UNN dAMED      -4.053   1.317   0.423  0.00  0.00    -0.004 A 
ATOM      7  C   UNN dAMED      -4.597   0.162  -0.136  0.00  0.00    -0.023 A 
ATOM      8  C   UNN dAMED      -3.755  -0.835  -0.624  0.00  0.00    -0.004 A 
ATOM      9  C   UNN dAMED      -2.372  -0.681  -0.549  0.00  0.00     0.004 A 
BRANCH   7  10
ATOM     10  C   UNN dAMED      -6.074  -0.013  -0.207  0.00  0.00     0.019 C 
ATOM     11  C   UNN dAMED      -6.757   1.064   0.642  0.00  0.00     0.004 C 
ATOM     12  C   UNN dAMED      -6.405  -1.486  -0.363  0.00  0.00     0.004 C 
ATOM     13  C   UNN dAMED      -6.619   0.718  -1.461  0.00  0.00     0.004 C 
ENDBRANCH   7  10
ENDBRANCH   1   4
BRANCH   3  14
ATOM     14  C   UNN dAMED       1.707  -0.055  -0.577  0.00  0.00     0.085 A 
ATOM     15  C   UNN dAMED       2.434  -1.164  -0.115  0.00  0.00     0.020 A 
ATOM     16  C   UNN dAMED       3.828  -1.149  -0.036  0.00  0.00     0.015 A 
ATOM     17  C   UNN dAMED       4.505  -0.006  -0.438  0.00  0.00     0.107 A 
ATOM     18  C   UNN dAMED       3.832   1.107  -0.919  0.00  0.00     0.015 A 
ATOM     19  C   UNN dAMED       2.443   1.060  -1.012  0.00  0.00     0.020 A 
BRANCH  17  20
ATOM     20  S   UNN dAMED       6.239   0.086  -0.148  0.00  0.00     0.302 S 
ATOM     21  O   UNN dAMED       6.364   0.321   1.279  0.00  0.00    -0.197 OA
ATOM     22  O   UNN dAMED       6.756   1.065  -1.088  0.00  0.00    -0.197 OA
ATOM     23  N   UNN dAMED       6.944  -1.427  -0.510  0.00  0.00    -0.043 N 
ENDBRANCH  17  20
ENDBRANCH   3  14
TORSDOF 4
