REMARK  4 active torsions:
REMARK  status: ('A' for Active; 'I' for Inactive)
REMARK    1  A    between atoms: N_1  and  C_20 
REMARK    2  A    between atoms: C_20  and  C_21 
REMARK    3  A    between atoms: C_21  and  O_22 
REMARK    4  A    between atoms: O_22  and  C_23 
ROOT
ATOM      1  N   UNN dAMED      -0.162   0.695   0.063  0.00  0.00    -0.308 N 
ATOM      2  N   UNN dAMED      -1.514  -1.800  -0.090  0.00  0.00    -0.236 NA
ATOM      3  N   UNN dAMED      -2.300   1.706   0.131  0.00  0.00    -0.173 NA
ATOM      4  O   UNN dAMED      -4.210  -1.928  -0.159  0.00  0.00    -0.265 OA
ATOM      5  N   UNN dAMED      -4.307   0.392   0.029  0.00  0.00    -0.272 N 
ATOM      6  H   UNN dAMED      -5.322   0.396  -0.006  0.00  0.00     0.174 HD
ATOM      7  O   UNN dAMED      -4.370   2.658   0.157  0.00  0.00    -0.244 OA
ATOM      8  C   UNN dAMED       1.963  -0.483  -0.004  0.00  0.00     0.014 A 
ATOM      9  C   UNN dAMED       0.566  -0.510  -0.011  0.00  0.00     0.079 A 
ATOM     10  C   UNN dAMED       2.685  -1.671  -0.071  0.00  0.00    -0.024 A 
ATOM     11  C   UNN dAMED      -0.112  -1.733  -0.083  0.00  0.00     0.097 A 
ATOM     12  C   UNN dAMED       2.014  -2.887  -0.152  0.00  0.00    -0.024 A 
ATOM     13  C   UNN dAMED       0.621  -2.919  -0.157  0.00  0.00     0.016 A 
ATOM     14  C   UNN dAMED      -3.679   1.638   0.112  0.00  0.00     0.350 A 
ATOM     15  C   UNN dAMED      -1.543   0.651   0.066  0.00  0.00     0.171 A 
ATOM     16  C   UNN dAMED      -2.200  -0.702  -0.021  0.00  0.00     0.171 A 
ATOM     17  C   UNN dAMED      -3.686  -0.833  -0.050  0.00  0.00     0.282 A 
ATOM     18  C   UNN dAMED       4.186  -1.642  -0.024  0.00  0.00     0.031 C 
ATOM     19  C   UNN dAMED       2.795  -4.167  -0.233  0.00  0.00     0.031 C 
ENDROOT
BRANCH   1  20
ATOM     20  C   UNN dAMED       0.541   1.963   0.149  0.00  0.00     0.140 C 
BRANCH  20  21
ATOM     21  C   UNN dAMED       1.780   2.062   1.047  0.00  0.00     0.176 C 
BRANCH  21  22
ATOM     22  O   UNN dAMED       2.443   3.280   1.219  0.00  0.00    -0.300 OA
BRANCH  22  23
ATOM     23  C   UNN dAMED       1.519   4.231   0.920  0.00  0.00     0.273 C 
ATOM     24  O   UNN dAMED       0.594   4.037   0.142  0.00  0.00    -0.264 OA
ATOM     25  C   UNN dAMED       1.585   5.549   1.643  0.00  0.00     0.106 C 
ENDBRANCH  22  23
ENDBRANCH  21  22
ENDBRANCH  20  21
ENDBRANCH   1  20
TORSDOF 4
