REMARK  2 active torsions:
REMARK  status: ('A' for Active; 'I' for Inactive)
REMARK    1  A    between atoms: C_13  and  N_25 
REMARK    2  A    between atoms: C_15  and  N_25 
ROOT
ATOM      1  C   UNN dAMED       0.006  -3.213   4.162  0.00  0.00     0.003 A 
ATOM      2  C   UNN dAMED      -1.108  -3.219   3.338  0.00  0.00     0.000 A 
ATOM      3  C   UNN dAMED       0.954  -2.195   4.037  0.00  0.00     0.042 A 
ATOM      4  C   UNN dAMED      -1.249  -2.220   2.387  0.00  0.00     0.005 A 
ATOM      5  C   UNN dAMED       0.859  -1.152   3.097  0.00  0.00     0.198 A 
ATOM      6  C   UNN dAMED      -0.278  -1.215   2.264  0.00  0.00     0.061 A 
ATOM      7  H   UNN dAMED      -2.177   0.723   1.883  0.00  0.00     0.170 HD
ATOM      8  C   UNN dAMED      -0.463  -0.161   1.191  0.00  0.00     0.094 C 
ATOM      9  N   UNN dAMED      -1.301   0.954   1.434  0.00  0.00    -0.316 N 
ATOM     10  S   UNN dAMED       0.007  -0.507  -0.491  0.00  0.00    -0.050 SA
ATOM     11  C   UNN dAMED      -0.971   2.090   0.756  0.00  0.00     0.270 C 
ATOM     12  O   UNN dAMED      -1.686   3.093   0.771  0.00  0.00    -0.266 OA
ATOM     13  C   UNN dAMED       0.882   1.024  -0.639  0.00  0.00     0.126 C 
ATOM     14  C   UNN dAMED       0.334   2.096  -0.001  0.00  0.00     0.148 C 
ATOM     15  O   UNN dAMED       1.731  -0.228   3.013  0.00  0.00    -0.286 OA
ATOM     16  C   UNN dAMED       0.926   3.392  -0.184  0.00  0.00     0.108 C 
ATOM     17  N   UNN dAMED       1.385   4.447  -0.334  0.00  0.00    -0.191 NA
ENDROOT
BRANCH  13  18
ATOM     18  N   UNN dAMED       1.966   1.030  -1.479  0.00  0.00    -0.237 NA
BRANCH  18  19
ATOM     19  C   UNN dAMED       2.701  -0.097  -1.636  0.00  0.00     0.092 A 
ATOM     20  C   UNN dAMED       2.587  -0.923  -2.776  0.00  0.00     0.075 A 
ATOM     21 CL   UNN dAMED       1.469  -0.574  -4.052  0.00  0.00    -0.081 Cl
ATOM     22  C   UNN dAMED       3.381  -2.060  -2.941  0.00  0.00     0.013 A 
ATOM     23  C   UNN dAMED       4.339  -2.383  -1.989  0.00  0.00     0.001 A 
ATOM     24  C   UNN dAMED       4.502  -1.569  -0.874  0.00  0.00     0.002 A 
ATOM     25  C   UNN dAMED       3.693  -0.443  -0.705  0.00  0.00     0.020 A 
ENDBRANCH  18  19
ENDBRANCH  13  18
TORSDOF 2
