REMARK  4 active torsions:
REMARK  status: ('A' for Active; 'I' for Inactive)
REMARK    1  A    between atoms: C_2  and  S_11 
REMARK    2  A    between atoms: C_5  and  N_7 
REMARK       I    between atoms: N_7  and  C_8 
REMARK    3  A    between atoms: S_11  and  N_14 
REMARK    4  A    between atoms: N_14  and  S_15 
ROOT
ATOM      1  C   UNN dAMED      -0.583  -1.046  -0.641  0.00  0.00     0.015 A 
ATOM      2  C   UNN dAMED       0.393  -0.428   0.129  0.00  0.00     0.106 A 
ATOM      3  C   UNN dAMED      -1.910  -0.647  -0.486  0.00  0.00     0.020 A 
ATOM      4  C   UNN dAMED       0.067   0.555   1.054  0.00  0.00     0.015 A 
ATOM      5  C   UNN dAMED      -2.292   0.341   0.442  0.00  0.00     0.084 A 
ATOM      6  C   UNN dAMED      -1.267   0.934   1.194  0.00  0.00     0.020 A 
ENDROOT
BRANCH   2   7
ATOM      7  S   UNN dAMED       2.077  -0.923  -0.033  0.00  0.00     0.290 S 
ATOM      8  O   UNN dAMED       2.895   0.242   0.242  0.00  0.00    -0.198 OA
ATOM      9  O   UNN dAMED       2.189  -1.631  -1.294  0.00  0.00    -0.198 OA
BRANCH   7  10
ATOM     10  N   UNN dAMED       2.186  -2.018   1.286  0.00  0.00    -0.135 NA
BRANCH  10  11
ATOM     11  S   UNN dAMED       3.557  -2.848   1.322  0.00  0.00    -0.060 SA
ATOM     12  C   UNN dAMED       3.771  -4.131   2.512  0.00  0.00     0.084 C 
ATOM     13  C   UNN dAMED       4.588  -2.825  -0.104  0.00  0.00     0.084 C 
ENDBRANCH  10  11
ENDBRANCH   7  10
ENDBRANCH   2   7
BRANCH   5  14
ATOM     14  N   UNN dAMED      -3.559   0.771   0.631  0.00  0.00    -0.212 NA
ATOM     15  C   UNN dAMED      -4.477  -0.090   0.203  0.00  0.00     0.256 C 
ATOM     16  O   UNN dAMED      -5.615  -0.222   0.636  0.00  0.00    -0.270 OA
ATOM     17  C   UNN dAMED      -4.075  -0.967  -0.952  0.00  0.00     0.100 C 
ENDBRANCH   5  14
TORSDOF 4
