REMARK  0 active torsions:
REMARK  status: ('A' for Active; 'I' for Inactive)
ROOT
ATOM      1 CL   UNN dAMED      -2.917   0.775   0.198  0.00  0.00    -0.081 Cl
ATOM      2 CL   UNN dAMED      -2.000  -2.430  -0.012  0.00  0.00    -0.081 Cl
ATOM      3 CL   UNN dAMED      -0.110   2.733   0.143  0.00  0.00    -0.080 Cl
ATOM      4 CL   UNN dAMED       1.407  -2.597  -0.207  0.00  0.00    -0.080 Cl
ATOM      5  C   UNN dAMED      -0.229   1.051   0.065  0.00  0.00     0.089 A 
ATOM      6  C   UNN dAMED      -1.298   0.255   0.083  0.00  0.00     0.081 A 
ATOM      7  C   UNN dAMED       0.939   0.154  -0.044  0.00  0.00     0.127 A 
ATOM      8  C   UNN dAMED       0.425  -1.230  -0.085  0.00  0.00     0.089 A 
ATOM      9  C   UNN dAMED      -0.901  -1.126  -0.007  0.00  0.00     0.081 A 
ATOM     10  N   UNN dAMED       2.172   0.517  -0.092  0.00  0.00    -0.126 NA
ATOM     11  N   UNN dAMED       2.512   1.900  -0.041  0.00  0.00    -0.022 N 
ENDROOT
TORSDOF 0
