REMARK  0 active torsions:
REMARK  status: ('A' for Active; 'I' for Inactive)
ROOT
ATOM      1  C   UNN dAMED      -3.864  -0.391  -0.050  0.00  0.00     0.002 A 
ATOM      2  C   UNN dAMED      -3.414  -1.551  -0.674  0.00  0.00     0.000 A 
ATOM      3  C   UNN dAMED      -2.974   0.581   0.416  0.00  0.00     0.017 A 
ATOM      4  C   UNN dAMED      -2.050  -1.785  -0.858  0.00  0.00     0.001 A 
ATOM      5  C   UNN dAMED      -1.610   0.334   0.227  0.00  0.00     0.057 A 
ATOM      6  C   UNN dAMED      -1.136  -0.823  -0.399  0.00  0.00     0.013 A 
ATOM      7  H   UNN dAMED      -0.564   1.994   1.049  0.00  0.00     0.166 HD
ATOM      8  N   UNN dAMED      -0.513   1.099   0.582  0.00  0.00    -0.350 N 
ATOM      9  C   UNN dAMED       0.254  -0.697  -0.385  0.00  0.00     0.001 A 
ATOM     10  C   UNN dAMED       0.652   0.477   0.197  0.00  0.00     0.109 A 
ATOM     11  C   UNN dAMED       1.999   0.966   0.383  0.00  0.00     0.269 C 
ATOM     12  C   UNN dAMED       1.314  -1.600  -0.875  0.00  0.00     0.052 C 
ATOM     13  O   UNN dAMED       2.257   1.994   1.008  0.00  0.00    -0.266 OA
ATOM     14  N   UNN dAMED       2.994   0.221  -0.237  0.00  0.00    -0.340 N 
ATOM     15  C   UNN dAMED       2.672  -1.171  -0.322  0.00  0.00     0.105 C 
ATOM     16  H   UNN dAMED       3.983   0.353  -0.062  0.00  0.00     0.163 HD
ENDROOT
TORSDOF 0
