REMARK  2 active torsions:
REMARK  status: ('A' for Active; 'I' for Inactive)
REMARK    1  A    between atoms: C_6  and  S_7 
REMARK    2  A    between atoms: S_7  and  C_8 
ROOT
ATOM      1  S   UNN dAMED       0.064  -0.721  -1.586  0.00  0.00    -0.029 SA
ENDROOT
BRANCH   1   2
ATOM      2  C   UNN dAMED      -1.371  -0.322  -0.603  0.00  0.00     0.114 A 
ATOM      3  N   UNN dAMED      -2.366   0.402  -1.168  0.00  0.00    -0.237 NA
ATOM      4  C   UNN dAMED      -3.441   0.673  -0.394  0.00  0.00     0.100 A 
ATOM      5  C   UNN dAMED      -3.584   0.243   0.913  0.00  0.00     0.021 A 
ATOM      6  C   UNN dAMED      -2.552  -0.508   1.460  0.00  0.00     0.004 A 
ATOM      7  C   UNN dAMED      -1.425  -0.798   0.700  0.00  0.00     0.026 A 
ENDBRANCH   1   2
BRANCH   1   8
ATOM      8  C   UNN dAMED       0.372   0.835  -2.401  0.00  0.00     0.196 A 
ATOM      9  N   UNN dAMED       0.521   1.932  -1.628  0.00  0.00    -0.220 NA
ATOM     10  C   UNN dAMED       0.739   3.088  -2.288  0.00  0.00     0.103 A 
ATOM     11  C   UNN dAMED       0.826   3.190  -3.660  0.00  0.00     0.041 A 
ATOM     12  C   UNN dAMED       0.673   2.002  -4.344  0.00  0.00     0.103 A 
ATOM     13  N   UNN dAMED       0.443   0.812  -3.749  0.00  0.00    -0.220 NA
ENDBRANCH   1   8
TORSDOF 2
