REMARK  4 active torsions:
REMARK  status: ('A' for Active; 'I' for Inactive)
REMARK    1  A    between atoms: C_4  and  N_16 
REMARK    2  A    between atoms: C_5  and  O_17 
REMARK    3  A    between atoms: C_9  and  C_14 
REMARK       I    between atoms: C_14  and  N_16 
REMARK    4  A    between atoms: O_17  and  C_18 
ROOT
ATOM      1  C   UNN dAMED      -1.106   0.173  -0.210  0.00  0.00     0.273 C 
ATOM      2  O   UNN dAMED      -0.853   1.210   0.389  0.00  0.00    -0.266 OA
ATOM      3  N   UNN dAMED      -0.248  -0.761  -0.614  0.00  0.00    -0.208 NA
ENDROOT
BRANCH   3   4
ATOM      4  C   UNN dAMED      -0.921  -1.698  -1.320  0.00  0.00     0.085 A 
ATOM      5  C   UNN dAMED      -2.093  -2.322  -0.840  0.00  0.00     0.021 A 
ATOM      6  C   UNN dAMED      -2.804  -3.253  -1.597  0.00  0.00     0.026 A 
ATOM      7  C   UNN dAMED      -2.318  -3.600  -2.846  0.00  0.00     0.094 A 
ATOM      8  C   UNN dAMED      -1.145  -3.041  -3.340  0.00  0.00     0.026 A 
ATOM      9  C   UNN dAMED      -0.460  -2.096  -2.578  0.00  0.00     0.021 A 
BRANCH   7  10
ATOM     10  O   UNN dAMED      -2.975  -4.510  -3.618  0.00  0.00    -0.331 OA
BRANCH  10  11
ATOM     11  C   UNN dAMED      -4.134  -4.853  -2.920  0.00  0.00     0.149 C 
ATOM     12  C   UNN dAMED      -5.274  -5.564  -3.660  0.00  0.00     0.035 C 
ENDBRANCH  10  11
ENDBRANCH   7  10
ENDBRANCH   3   4
BRANCH   1  13
ATOM     13  C   UNN dAMED      -2.539  -0.276  -0.298  0.00  0.00     0.047 C 
ATOM     14  C   UNN dAMED      -3.708   0.709  -0.359  0.00  0.00     0.277 C 
ATOM     15  N   UNN dAMED      -5.070   0.253  -0.999  0.00  0.00     0.143 N 
ATOM     16  C   UNN dAMED      -5.330  -0.932  -0.157  0.00  0.00     0.251 C 
ATOM     17  C   UNN dAMED      -3.726   0.703  -0.367  0.00  0.00     0.286 C 
ATOM     18  C   UNN dAMED      -4.328  -2.088  -0.161  0.00  0.00     0.040 C 
ATOM     19  C   UNN dAMED      -2.889  -1.693   0.133  0.00  0.00     0.031 C 
ENDBRANCH   1  13
TORSDOF 4
