REMARK  1 active torsions:
REMARK  status: ('A' for Active; 'I' for Inactive)
REMARK    1  A    between atoms: C_4  and  C_22 
ROOT
ATOM      1  C   UNN dAMED       0.425  -2.000   0.567  0.00  0.00     0.000 A 
ATOM      2  C   UNN dAMED       0.001   0.449   0.230  0.00  0.00     0.000 A 
ATOM      3  C   UNN dAMED      -0.508   2.854  -0.028  0.00  0.00     0.000 A 
ATOM      4  C   UNN dAMED      -0.045  -3.306   0.700  0.00  0.00     0.000 A 
ATOM      5  C   UNN dAMED      -0.459  -0.942   0.371  0.00  0.00     0.003 A 
ATOM      6  C   UNN dAMED      -0.964   1.543   0.090  0.00  0.00     0.003 A 
ATOM      7  C   UNN dAMED      -1.423   3.894  -0.182  0.00  0.00     0.000 A 
ATOM      8  C   UNN dAMED      -1.411  -3.566   0.647  0.00  0.00     0.000 A 
ATOM      9  C   UNN dAMED      -1.836  -1.213   0.333  0.00  0.00     0.039 A 
ATOM     10  C   UNN dAMED      -2.335   1.276   0.050  0.00  0.00     0.039 A 
ATOM     11  C   UNN dAMED      -2.791   3.625  -0.218  0.00  0.00     0.000 A 
ATOM     12  C   UNN dAMED      -2.310  -2.519   0.468  0.00  0.00     0.003 A 
ATOM     13  C   UNN dAMED      -2.822  -0.117   0.166  0.00  0.00     0.196 A 
ATOM     14  C   UNN dAMED      -3.250   2.315  -0.102  0.00  0.00     0.003 A 
ATOM     15  O   UNN dAMED      -4.022  -0.358   0.132  0.00  0.00    -0.287 OA
ATOM     16  C   UNN dAMED       1.290   0.827   0.256  0.00  0.00     0.002 C 
ENDROOT
BRANCH  16  17
ATOM     17  C   UNN dAMED       2.515   0.056  -0.189  0.00  0.00     0.019 A 
ATOM     18  C   UNN dAMED       2.740  -0.205  -1.536  0.00  0.00     0.003 A 
ATOM     19  C   UNN dAMED       3.957  -0.734  -1.946  0.00  0.00     0.021 A 
ATOM     20  C   UNN dAMED       4.919  -0.960  -0.976  0.00  0.00     0.099 A 
ATOM     21  N   UNN dAMED       4.749  -0.697   0.339  0.00  0.00    -0.242 NA
ATOM     22  C   UNN dAMED       3.551  -0.188   0.699  0.00  0.00     0.099 A 
ENDBRANCH  16  17
TORSDOF 1
