REMARK  3 active torsions:
REMARK  status: ('A' for Active; 'I' for Inactive)
REMARK    1  A    between atoms: N_1  and  C_21 
REMARK    2  A    between atoms: C_15  and  C_21 
REMARK    3  A    between atoms: C_17  and  O_19 
ROOT
ATOM      1  N   UNN dAMED      -1.132   1.589   0.338  0.00  0.00    -0.241 NA
ATOM      2  N   UNN dAMED       0.414  -0.245   2.521  0.00  0.00    -0.250 NA
ATOM      3  C   UNN dAMED       1.881  -1.861   3.590  0.00  0.00     0.011 A 
ATOM      4  C   UNN dAMED       0.664  -1.182   3.538  0.00  0.00     0.033 A 
ATOM      5  C   UNN dAMED       2.133  -2.768   4.617  0.00  0.00     0.001 A 
ATOM      6  C   UNN dAMED       1.170  -2.997   5.597  0.00  0.00    -0.000 A 
ATOM      7  C   UNN dAMED      -0.299  -1.420   4.519  0.00  0.00    -0.011 A 
ATOM      8  C   UNN dAMED      -0.048  -2.325   5.547  0.00  0.00    -0.003 A 
ATOM      9  C   UNN dAMED      -0.584   0.810   2.735  0.00  0.00     0.094 C 
ATOM     10  C   UNN dAMED      -0.775   1.918   1.692  0.00  0.00     0.095 C 
ATOM     11  C   UNN dAMED      -0.271  -0.663   1.288  0.00  0.00     0.094 C 
ATOM     12  C   UNN dAMED      -1.371   0.209   0.667  0.00  0.00     0.095 C 
ATOM     13  C   UNN dAMED      -1.611  -0.691   4.466  0.00  0.00     0.032 C 
ENDROOT
BRANCH   1  14
ATOM     14  C   UNN dAMED       0.012   1.640  -0.418  0.00  0.00     0.093 C 
ATOM     15  S   UNN dAMED       0.227   0.722  -1.796  0.00  0.00    -0.066 SA
BRANCH  14  16
ATOM     16  C   UNN dAMED       0.996   2.609   0.063  0.00  0.00     0.021 A 
ATOM     17  C   UNN dAMED       2.085   2.165   0.814  0.00  0.00     0.004 A 
ATOM     18  C   UNN dAMED       3.006   3.091   1.293  0.00  0.00     0.024 A 
ATOM     19  C   UNN dAMED       2.814   4.441   1.018  0.00  0.00     0.094 A 
ATOM     20  C   UNN dAMED       1.728   4.889   0.273  0.00  0.00     0.024 A 
ATOM     21  C   UNN dAMED       0.808   3.965  -0.211  0.00  0.00     0.004 A 
BRANCH  19  22
ATOM     22  O   UNN dAMED       3.717   5.350   1.482  0.00  0.00    -0.328 OA
ATOM     23  C   UNN dAMED       4.550   4.632   2.344  0.00  0.00     0.181 C 
ENDBRANCH  19  22
ENDBRANCH  14  16
ENDBRANCH   1  14
TORSDOF 3
