REMARK  4 active torsions:
REMARK  status: ('A' for Active; 'I' for Inactive)
REMARK    1  A    between atoms: C_2  and  C_11 
REMARK       I    between atoms: C_3  and  N_14 
REMARK       I    between atoms: C_5  and  N_15 
REMARK       I    between atoms: C_6  and  N_14 
REMARK    2  A    between atoms: C_6  and  C_16 
REMARK       I    between atoms: C_9  and  N_15 
REMARK    3  A    between atoms: C_9  and  C_22 
REMARK    4  A    between atoms: C_11  and  C_12 
ROOT
ATOM      1  N   UNN dAMED      -1.756  -0.912  -1.169  0.00  0.00    -0.043 NA
ATOM      2  C   UNN dAMED      -1.050  -2.044  -0.984  0.00  0.00     0.176 A 
ATOM      3  C   UNN dAMED      -1.023   0.218  -1.201  0.00  0.00     0.769 A 
ATOM      4  N   UNN dAMED       0.292  -2.107  -0.877  0.00  0.00    -0.043 NA
ATOM      5  C   UNN dAMED       0.927  -0.921  -0.961  0.00  0.00     0.769 A 
ATOM      6  C   UNN dAMED      -2.328   1.733  -0.208  0.00  0.00     0.295 C 
ATOM      7  N   UNN dAMED       0.321   0.272  -1.108  0.00  0.00     0.134 NA
ATOM      8  O   UNN dAMED      -3.534   1.630  -0.002  0.00  0.00    -0.265 OA
ATOM      9  C   UNN dAMED       2.941  -0.987  -1.911  0.00  0.00     0.295 C 
ATOM     10  O   UNN dAMED       3.211  -0.070  -2.681  0.00  0.00    -0.265 OA
ATOM     11  N   UNN dAMED      -1.669   1.395  -1.322  0.00  0.00    -0.018 NA
ATOM     12  N   UNN dAMED       2.259  -0.919  -0.765  0.00  0.00    -0.018 NA
ENDROOT
BRANCH   2  13
ATOM     13  C   UNN dAMED      -1.834  -3.280  -0.630  0.00  0.00     0.067 C 
BRANCH  13  14
ATOM     14  C   UNN dAMED      -1.367  -4.665  -1.084  0.00  0.00     0.008 C 
ATOM     15  C   UNN dAMED      -1.585  -5.105  -2.534  0.00  0.00     0.001 C 
ENDBRANCH  13  14
ENDBRANCH   2  13
BRANCH   6  16
ATOM     16  C   UNN dAMED      -1.517   2.377   0.839  0.00  0.00     0.059 A 
ATOM     17  C   UNN dAMED      -1.287   3.750   0.785  0.00  0.00     0.005 A 
ATOM     18  C   UNN dAMED      -0.504   4.340   1.773  0.00  0.00     0.000 A 
ATOM     19  C   UNN dAMED       0.034   3.563   2.799  0.00  0.00     0.000 A 
ATOM     20  C   UNN dAMED      -0.218   2.193   2.851  0.00  0.00     0.000 A 
ATOM     21  C   UNN dAMED      -1.004   1.594   1.872  0.00  0.00     0.005 A 
ENDBRANCH   6  16
BRANCH   9  22
ATOM     22  C   UNN dAMED       3.519  -2.309  -2.199  0.00  0.00     0.059 A 
ATOM     23  C   UNN dAMED       4.628  -2.749  -1.478  0.00  0.00     0.005 A 
ATOM     24  C   UNN dAMED       5.186  -3.987  -1.781  0.00  0.00     0.000 A 
ATOM     25  C   UNN dAMED       4.649  -4.762  -2.809  0.00  0.00     0.000 A 
ATOM     26  C   UNN dAMED       3.550  -4.303  -3.535  0.00  0.00     0.000 A 
ATOM     27  C   UNN dAMED       2.979  -3.070  -3.234  0.00  0.00     0.005 A 
ENDBRANCH   9  22
TORSDOF 4
