REMARK  0 active torsions:
REMARK  status: ('A' for Active; 'I' for Inactive)
ROOT
ATOM      1  N   UNN dAMED       0.512  -2.421  -0.038  0.00  0.00    -0.352 N 
ATOM      2  H   UNN dAMED       0.078  -3.334  -0.017  0.00  0.00     0.166 HD
ATOM      3  N   UNN dAMED      -2.252  -2.381  -0.279  0.00  0.00    -0.243 NA
ATOM      4  C   UNN dAMED      -4.606   1.077  -0.087  0.00  0.00     0.000 A 
ATOM      5  C   UNN dAMED      -4.028   2.337   0.038  0.00  0.00     0.000 A 
ATOM      6  C   UNN dAMED      -3.807  -0.066  -0.146  0.00  0.00     0.003 A 
ATOM      7  C   UNN dAMED      -4.416  -1.306  -0.275  0.00  0.00     0.021 A 
ATOM      8  C   UNN dAMED      -3.601  -2.421  -0.335  0.00  0.00     0.099 A 
ATOM      9  C   UNN dAMED      -2.646   2.460   0.108  0.00  0.00     0.000 A 
ATOM     10  C   UNN dAMED      -2.400   0.034  -0.079  0.00  0.00     0.019 A 
ATOM     11  C   UNN dAMED      -1.846   1.321   0.051  0.00  0.00     0.002 A 
ATOM     12  C   UNN dAMED      -1.659  -1.165  -0.152  0.00  0.00     0.097 A 
ATOM     13  C   UNN dAMED      -0.190  -1.230  -0.102  0.00  0.00     0.075 A 
ATOM     14  C   UNN dAMED       0.769  -0.235  -0.119  0.00  0.00     0.020 A 
ATOM     15  C   UNN dAMED       2.044  -0.831  -0.039  0.00  0.00     0.018 A 
ATOM     16  C   UNN dAMED       1.873  -2.199   0.006  0.00  0.00     0.057 A 
ATOM     17  C   UNN dAMED       2.866  -3.263   0.077  0.00  0.00     0.016 A 
ATOM     18  C   UNN dAMED       2.662  -4.386   0.882  0.00  0.00     0.001 A 
ATOM     19  C   UNN dAMED       4.062  -3.154  -0.640  0.00  0.00     0.001 A 
ATOM     20  C   UNN dAMED       5.034  -4.150  -0.559  0.00  0.00     0.000 A 
ATOM     21  C   UNN dAMED       3.628  -5.390   0.955  0.00  0.00     0.000 A 
ATOM     22  C   UNN dAMED       4.814  -5.271   0.237  0.00  0.00     0.000 A 
ENDROOT
TORSDOF 0
