REMARK  0 active torsions:
REMARK  status: ('A' for Active; 'I' for Inactive)
ROOT
ATOM      1  N   UNN dAMED      -1.545   1.523   0.679  0.00  0.00    -0.318 N 
ATOM      2  H   UNN dAMED      -1.878   2.146  -0.048  0.00  0.00     0.169 HD
ATOM      3  O   UNN dAMED      -0.257  -0.947   3.458  0.00  0.00    -0.265 OA
ATOM      4  N   UNN dAMED       0.024  -0.169   1.313  0.00  0.00    -0.180 NA
ATOM      5  N   UNN dAMED       0.060   0.832  -0.813  0.00  0.00    -0.219 NA
ATOM      6  N   UNN dAMED       1.678  -0.234  -3.502  0.00  0.00     0.142 N 
ATOM      7  C   UNN dAMED       1.484   0.550  -1.042  0.00  0.00     0.115 C 
ATOM      8  C   UNN dAMED       2.081   0.680  -2.448  0.00  0.00     0.268 C 
ATOM      9  C   UNN dAMED      -0.470   0.687   0.456  0.00  0.00     0.188 A 
ATOM     10  C   UNN dAMED      -2.236   1.525   1.854  0.00  0.00     0.135 A 
ATOM     11  C   UNN dAMED      -1.804   0.682   2.792  0.00  0.00     0.094 A 
ATOM     12  C   UNN dAMED      -0.604  -0.216   2.539  0.00  0.00     0.284 A 
ATOM     13  C   UNN dAMED      -0.332  -0.112  -1.867  0.00  0.00     0.115 C 
ATOM     14  C   UNN dAMED       0.255   0.011  -3.277  0.00  0.00     0.268 C 
ATOM     15  N   UNN dAMED      -3.356   2.384   2.020  0.00  0.00    -0.082 NA
ATOM     16  C   UNN dAMED       2.070  -0.279  -4.886  0.00  0.00     0.285 C 
ENDROOT
TORSDOF 0
