REMARK  1 active torsions:
REMARK  status: ('A' for Active; 'I' for Inactive)
REMARK    1  A    between atoms: C_6  and  N_16 
REMARK       I    between atoms: C_10  and  N_16 
ROOT
ATOM      1  N   UNN dAMED      -1.092  -0.824   0.353  0.00  0.00    -0.057 NA
ATOM      2  N   UNN dAMED      -2.038   1.264  -0.313  0.00  0.00    -0.044 NA
ATOM      3  C   UNN dAMED      -0.980   0.457  -0.057  0.00  0.00     0.751 A 
ATOM      4  C   UNN dAMED      -2.349  -1.294   0.517  0.00  0.00     0.135 A 
ATOM      5  C   UNN dAMED      -3.480  -0.545   0.286  0.00  0.00     0.121 A 
ATOM      6  C   UNN dAMED      -3.273   0.747  -0.134  0.00  0.00     0.184 A 
ATOM      7  N   UNN dAMED      -4.782  -1.079   0.472  0.00  0.00    -0.096 NA
ATOM      8  N   UNN dAMED      -4.399   1.576  -0.393  0.00  0.00    -0.078 NA
ATOM      9  N   UNN dAMED       0.213   1.046  -0.285  0.00  0.00    -0.059 NA
ENDROOT
BRANCH   9  10
ATOM     10  C   UNN dAMED       1.397   0.464   0.005  0.00  0.00     0.100 A 
ATOM     11  C   UNN dAMED       1.697  -0.905  -0.084  0.00  0.00     0.020 A 
ATOM     12  C   UNN dAMED       2.969  -1.411   0.203  0.00  0.00     0.008 A 
ATOM     13  C   UNN dAMED       3.985  -0.534   0.559  0.00  0.00     0.035 A 
ATOM     14 BR   UNN dAMED       5.704  -1.199   0.938  0.00  0.00    -0.049 Br
ATOM     15  C   UNN dAMED       3.743   0.829   0.636  0.00  0.00     0.008 A 
ATOM     16  C   UNN dAMED       2.464   1.309   0.352  0.00  0.00     0.020 A 
ENDBRANCH   9  10
TORSDOF 1
