REMARK  5 active torsions:
REMARK  status: ('A' for Active; 'I' for Inactive)
REMARK    1  A    between atoms: N_2  and  C_16 
REMARK    2  A    between atoms: N_3  and  C_18 
REMARK    3  A    between atoms: N_4  and  C_19 
REMARK    4  A    between atoms: N_5  and  C_22 
REMARK    5  A    between atoms: C_18  and  C_19 
ROOT
ATOM      1  C   UNN dAMED      -2.980  -0.072  -1.534  0.00  0.00     0.285 C 
ENDROOT
BRANCH   1   2
ATOM      2  N   UNN dAMED      -3.086   0.703  -0.322  0.00  0.00     0.140 N 
ATOM      3  C   UNN dAMED      -1.905   1.316   0.270  0.00  0.00     0.267 C 
ATOM      4  C   UNN dAMED      -1.913   1.625   1.766  0.00  0.00     0.098 C 
ATOM      5  N   UNN dAMED      -1.488   0.537   2.670  0.00  0.00    -0.213 NA
ATOM      6  C   UNN dAMED      -2.969   2.613   2.270  0.00  0.00     0.020 C 
ATOM      7  C   UNN dAMED      -2.907   0.676   2.263  0.00  0.00     0.113 C 
ATOM      8  C   UNN dAMED      -3.413   0.058   0.949  0.00  0.00     0.236 C 
ATOM      9  C   UNN dAMED      -4.651  -0.842   1.004  0.00  0.00     0.037 C 
BRANCH   5  10
ATOM     10  C   UNN dAMED      -1.897   1.322   3.829  0.00  0.00     0.287 C 
ATOM     11  O   UNN dAMED      -3.056   1.426   4.108  0.00  0.00    -0.269 OA
ENDBRANCH   5  10
ENDBRANCH   1   2
BRANCH   1  12
ATOM     12  C   UNN dAMED      -2.227  -1.410  -1.539  0.00  0.00     0.285 C 
BRANCH  12  13
ATOM     13  N   UNN dAMED      -1.057  -1.605  -0.715  0.00  0.00     0.140 N 
ATOM     14  C   UNN dAMED       0.228  -1.797  -1.380  0.00  0.00     0.267 C 
ATOM     15  C   UNN dAMED       1.098  -2.998  -1.006  0.00  0.00     0.098 C 
ATOM     16  N   UNN dAMED       0.669  -4.319  -1.450  0.00  0.00    -0.213 NA
ATOM     17  C   UNN dAMED       2.054  -2.875   0.186  0.00  0.00     0.020 C 
ATOM     18  C   UNN dAMED      -0.556  -4.144  -0.677  0.00  0.00     0.113 C 
ATOM     19  C   UNN dAMED      -0.839  -2.826   0.055  0.00  0.00     0.236 C 
ATOM     20  C   UNN dAMED      -1.242  -2.866   1.533  0.00  0.00     0.037 C 
BRANCH  16  21
ATOM     21  C   UNN dAMED       1.175  -4.907  -0.218  0.00  0.00     0.287 C 
ATOM     22  O   UNN dAMED       0.806  -5.993   0.124  0.00  0.00    -0.269 OA
ENDBRANCH  16  21
ENDBRANCH  12  13
ENDBRANCH   1  12
TORSDOF 5
