REMARK  12 active torsions:
REMARK  status: ('A' for Active; 'I' for Inactive)
REMARK    1  A    between atoms: C_1  and  C_2 
REMARK    2  A    between atoms: C_3  and  C_5 
REMARK    3  A    between atoms: C_4  and  C_13 
REMARK    4  A    between atoms: C_5  and  C_15 
REMARK    5  A    between atoms: C_6  and  C_16 
REMARK    6  A    between atoms: C_9  and  C_13 
REMARK    7  A    between atoms: C_15  and  C_17 
REMARK    8  A    between atoms: C_16  and  C_18 
REMARK    9  A    between atoms: C_17  and  C_19 
REMARK   10  A    between atoms: C_18  and  C_20 
REMARK   11  A    between atoms: C_19  and  C_21 
REMARK   12  A    between atoms: C_20  and  C_22 
ROOT
ATOM      1  C   UNN dAMED       1.058   2.993   0.048  0.00  0.00     0.007 A 
ATOM      2  C   UNN dAMED      -0.535   4.254   1.470  0.00  0.00     0.111 A 
ATOM      3  C   UNN dAMED       0.662   5.167   1.187  0.00  0.00     0.108 A 
ATOM      4  C   UNN dAMED      -0.324   2.940   0.710  0.00  0.00     0.004 A 
ATOM      5  C   UNN dAMED       1.693   4.348   0.403  0.00  0.00     0.114 A 
ATOM      6  O   UNN dAMED       2.561   4.976  -0.449  0.00  0.00    -0.195 OA
ATOM      7  O   UNN dAMED      -1.786   4.774   1.651  0.00  0.00    -0.195 OA
ENDROOT
BRANCH   1   8
ATOM      8  C   UNN dAMED       1.885   1.756  -0.211  0.00  0.00     0.013 C 
ATOM      9  C   UNN dAMED       2.659   1.279   0.771  0.00  0.00     0.010 C 
BRANCH   9  10
ATOM     10  C   UNN dAMED       3.553   0.078   0.616  0.00  0.00     0.194 C 
ATOM     11  O   UNN dAMED       3.468  -0.647   1.711  0.00  0.00    -0.230 OA
BRANCH  10  12
ATOM     12  C   UNN dAMED       3.011  -0.777  -0.541  0.00  0.00     0.027 C 
BRANCH  12  13
ATOM     13  C   UNN dAMED       1.873  -1.773  -0.290  0.00  0.00     0.002 C 
BRANCH  13  14
ATOM     14  C   UNN dAMED       1.789  -3.084  -1.082  0.00  0.00     0.000 C 
BRANCH  14  15
ATOM     15  C   UNN dAMED       1.730  -3.068  -2.614  0.00  0.00     0.000 C 
ATOM     16  C   UNN dAMED       3.028  -3.022  -3.425  0.00  0.00     0.000 C 
ENDBRANCH  14  15
ENDBRANCH  13  14
ENDBRANCH  12  13
ENDBRANCH  10  12
ENDBRANCH   9  10
ENDBRANCH   1   8
BRANCH   4  17
ATOM     17  C   UNN dAMED      -0.955   1.627   1.185  0.00  0.00     0.041 C 
BRANCH  17  18
ATOM     18  C   UNN dAMED      -2.068   1.008   0.391  0.00  0.00    -0.012 C 
ATOM     19  C   UNN dAMED      -2.560  -0.180   0.745  0.00  0.00    -0.017 C 
BRANCH  19  20
ATOM     20  C   UNN dAMED      -2.001  -0.905   1.937  0.00  0.00     0.014 C 
BRANCH  20  21
ATOM     21  C   UNN dAMED      -1.234  -2.220   1.750  0.00  0.00     0.015 C 
BRANCH  21  22
ATOM     22  C   UNN dAMED      -1.919  -3.439   1.122  0.00  0.00     0.098 C 
BRANCH  22  23
ATOM     23  C   UNN dAMED      -2.359  -3.408  -0.319  0.00  0.00     0.185 C 
ATOM     24  O   UNN dAMED      -1.444  -3.292  -1.188  0.00  0.00    -0.647 OA
ATOM     25  O   UNN dAMED      -3.607  -3.463  -0.528  0.00  0.00    -0.647 OA
ENDBRANCH  22  23
ENDBRANCH  21  22
ENDBRANCH  20  21
ENDBRANCH  19  20
ENDBRANCH  17  18
ENDBRANCH   4  17
TORSDOF 12
