REMARK  7 active torsions:
REMARK  status: ('A' for Active; 'I' for Inactive)
REMARK    1  A    between atoms: O_2  and  C_17 
REMARK    2  A    between atoms: O_2  and  C_19 
REMARK    3  A    between atoms: O_3  and  C_11 
REMARK    4  A    between atoms: O_3  and  C_20 
REMARK    5  A    between atoms: C_6  and  N_16 
REMARK    6  A    between atoms: C_14  and  N_21 
REMARK       I    between atoms: N_16  and  C_17 
REMARK    7  A    between atoms: C_19  and  C_20 
ROOT
ATOM      1  C   UNN dAMED      -2.368  -1.459   1.937  0.00  0.00     0.186 C 
ENDROOT
BRANCH   1   2
ATOM      2  O   UNN dAMED      -1.390  -0.481   2.116  0.00  0.00    -0.281 OA
BRANCH   2   3
ATOM      3  C   UNN dAMED      -1.556   0.392   1.080  0.00  0.00     0.388 C 
ATOM      4  N   UNN dAMED      -2.231  -0.163   0.074  0.00  0.00    -0.186 NA
ATOM      5  O   UNN dAMED      -1.046   1.508   1.104  0.00  0.00    -0.236 OA
BRANCH   4   6
ATOM      6  C   UNN dAMED      -3.563   0.076   0.072  0.00  0.00     0.087 A 
ATOM      7  C   UNN dAMED      -4.164   1.224   0.616  0.00  0.00     0.022 A 
ATOM      8  C   UNN dAMED      -5.542   1.428   0.582  0.00  0.00     0.031 A 
ATOM      9  C   UNN dAMED      -6.348   0.480  -0.031  0.00  0.00     0.140 A 
ATOM     10  F   UNN dAMED      -7.675   0.662  -0.062  0.00  0.00    -0.204 F 
ATOM     11  C   UNN dAMED      -5.796  -0.653  -0.613  0.00  0.00     0.031 A 
ATOM     12  C   UNN dAMED      -4.414  -0.840  -0.561  0.00  0.00     0.022 A 
ENDBRANCH   4   6
ENDBRANCH   2   3
ENDBRANCH   1   2
BRANCH   1  13
ATOM     13  C   UNN dAMED      -3.642  -1.436   2.785  0.00  0.00     0.182 C 
BRANCH  13  14
ATOM     14  O   UNN dAMED      -4.760  -2.144   2.346  0.00  0.00    -0.328 OA
BRANCH  14  15
ATOM     15  C   UNN dAMED      -5.743  -1.878   3.248  0.00  0.00     0.094 A 
ATOM     16  C   UNN dAMED      -5.471  -1.054   4.338  0.00  0.00     0.026 A 
ATOM     17  C   UNN dAMED      -6.445  -0.882   5.316  0.00  0.00     0.025 A 
ATOM     18  C   UNN dAMED      -7.658  -1.550   5.161  0.00  0.00     0.127 A 
ATOM     19  C   UNN dAMED      -7.948  -2.360   4.067  0.00  0.00     0.025 A 
ATOM     20  C   UNN dAMED      -6.971  -2.516   3.092  0.00  0.00     0.026 A 
BRANCH  18  21
ATOM     21  N   UNN dAMED      -8.617  -1.485   6.223  0.00  0.00    -0.114 N 
ATOM     22  O   UNN dAMED      -9.631  -0.805   6.020  0.00  0.00    -0.532 OA
ATOM     23  O   UNN dAMED      -8.358  -2.124   7.250  0.00  0.00    -0.532 OA
ENDBRANCH  18  21
ENDBRANCH  14  15
ENDBRANCH  13  14
ENDBRANCH   1  13
TORSDOF 7
