REMARK  0 active torsions:
REMARK  status: ('A' for Active; 'I' for Inactive)
ROOT
ATOM      1  C   UNN dAMED      -1.093   1.049   0.012  0.00  0.00     0.082 A 
ATOM      2  C   UNN dAMED       2.468   0.964   0.608  0.00  0.00     0.175 C 
ATOM      3  C   UNN dAMED       0.213   0.571   0.151  0.00  0.00     0.093 A 
ATOM      4  C   UNN dAMED      -2.130   0.156  -0.264  0.00  0.00    -0.015 A 
ATOM      5  C   UNN dAMED       0.464  -0.794   0.006  0.00  0.00     0.029 A 
ATOM      6  C   UNN dAMED      -1.869  -1.207  -0.399  0.00  0.00    -0.025 A 
ATOM      7  C   UNN dAMED       1.871  -1.280   0.190  0.00  0.00     0.037 C 
ATOM      8  C   UNN dAMED      -0.571  -1.687  -0.261  0.00  0.00    -0.002 A 
ATOM      9  N   UNN dAMED       1.300   1.405   0.443  0.00  0.00    -0.225 NA
ATOM     10  N   UNN dAMED       2.951  -0.308   0.049  0.00  0.00    -0.340 N 
ATOM     11  H   UNN dAMED       3.911  -0.596   0.228  0.00  0.00     0.167 HD
ATOM     12  C   UNN dAMED      -2.994  -2.159  -0.691  0.00  0.00     0.031 C 
ATOM     13  C   UNN dAMED      -3.535   0.666  -0.413  0.00  0.00     0.031 C 
ATOM     14  C   UNN dAMED      -1.406   2.437   0.152  0.00  0.00     0.102 C 
ATOM     15  N   UNN dAMED      -1.660   3.564   0.265  0.00  0.00    -0.191 NA
ATOM     16  C   UNN dAMED       2.174  -2.763  -0.050  0.00  0.00     0.050 C 
ENDROOT
TORSDOF 0
