REMARK  2 active torsions:
REMARK  status: ('A' for Active; 'I' for Inactive)
REMARK    1  A    between atoms: S_3  and  C_9 
REMARK    2  A    between atoms: S_3  and  C_12 
ROOT
ATOM      1  N   UNN dAMED       1.416   2.257   0.341  0.00  0.00    -0.217 NA
ATOM      2  N   UNN dAMED       3.165   0.813   1.229  0.00  0.00    -0.211 NA
ATOM      3  N   UNN dAMED       2.982  -1.439   0.364  0.00  0.00    -0.138 NA
ATOM      4  N   UNN dAMED       2.336  -2.127  -0.589  0.00  0.00    -0.188 NA
ATOM      5  C   UNN dAMED       2.612  -0.134   0.456  0.00  0.00     0.144 A 
ATOM      6  C   UNN dAMED       1.520   0.003  -0.387  0.00  0.00     0.074 A 
ATOM      7  C   UNN dAMED       0.917   1.259  -0.431  0.00  0.00     0.117 A 
ATOM      8  C   UNN dAMED       1.386  -1.271  -0.983  0.00  0.00     0.119 C 
ATOM      9  C   UNN dAMED       2.498   1.980   1.106  0.00  0.00     0.200 A 
ATOM     10  C   UNN dAMED       4.381  -1.510   0.115  0.00  0.00     0.123 C 
ENDROOT
BRANCH   7  11
ATOM     11  S   UNN dAMED      -0.469   1.540  -1.489  0.00  0.00    -0.068 SA
BRANCH  11  12
ATOM     12  C   UNN dAMED       0.143   2.885  -2.474  0.00  0.00     0.031 A 
ATOM     13  C   UNN dAMED       1.160   2.679  -3.409  0.00  0.00     0.007 A 
ATOM     14  C   UNN dAMED       1.643   3.745  -4.163  0.00  0.00     0.012 A 
ATOM     15  C   UNN dAMED       1.097   5.013  -3.987  0.00  0.00     0.058 A 
ATOM     16 CL   UNN dAMED       1.700   6.332  -4.903  0.00  0.00    -0.082 Cl
ATOM     17  C   UNN dAMED       0.072   5.226  -3.070  0.00  0.00     0.012 A 
ATOM     18  C   UNN dAMED      -0.404   4.158  -2.314  0.00  0.00     0.007 A 
ENDBRANCH  11  12
ENDBRANCH   7  11
TORSDOF 2
