REMARK  3 active torsions:
REMARK  status: ('A' for Active; 'I' for Inactive)
REMARK    1  A    between atoms: C_3  and  N_17 
REMARK    2  A    between atoms: C_9  and  N_14 
REMARK    3  A    between atoms: N_14  and  C_15 
ROOT
ATOM      1  C   UNN dAMED       1.029   0.385   2.288  0.00  0.00     0.221 C 
ATOM      2  S   UNN dAMED       1.467  -0.889   3.343  0.00  0.00    -0.037 SA
ATOM      3  N   UNN dAMED       1.103   0.293   0.937  0.00  0.00    -0.217 NA
ENDROOT
BRANCH   1   4
ATOM      4  N   UNN dAMED       0.546   1.608   2.633  0.00  0.00    -0.217 NA
BRANCH   4   5
ATOM      5  C   UNN dAMED      -0.151   1.697   3.787  0.00  0.00     0.084 A 
ATOM      6  C   UNN dAMED       0.428   2.313   4.905  0.00  0.00     0.020 A 
ATOM      7  C   UNN dAMED      -0.245   2.402   6.122  0.00  0.00     0.016 A 
ATOM      8  C   UNN dAMED      -1.530   1.885   6.237  0.00  0.00     0.070 A 
ATOM      9  C   UNN dAMED      -2.147   1.304   5.133  0.00  0.00     0.016 A 
ATOM     10  N   UNN dAMED      -2.202   1.934   7.490  0.00  0.00    -0.101 NA
ATOM     11  C   UNN dAMED      -1.466   1.226   3.917  0.00  0.00     0.020 A 
ENDBRANCH   4   5
ENDBRANCH   1   4
BRANCH   3  12
ATOM     12  C   UNN dAMED       2.343   0.054   0.440  0.00  0.00     0.084 A 
ATOM     13  C   UNN dAMED       2.564  -1.078  -0.355  0.00  0.00     0.019 A 
ATOM     14  C   UNN dAMED       3.825  -1.378  -0.869  0.00  0.00     0.002 A 
ATOM     15  C   UNN dAMED       4.900  -0.540  -0.595  0.00  0.00     0.000 A 
ATOM     16  C   UNN dAMED       4.705   0.606   0.168  0.00  0.00     0.002 A 
ATOM     17  C   UNN dAMED       3.436   0.904   0.664  0.00  0.00     0.019 A 
ENDBRANCH   3  12
TORSDOF 3
