REMARK  4 active torsions:
REMARK  status: ('A' for Active; 'I' for Inactive)
REMARK    1  A    between atoms: O_3  and  C_12 
REMARK    2  A    between atoms: O_3  and  C_23 
REMARK    3  A    between atoms: C_7  and  C_26 
REMARK    4  A    between atoms: C_8  and  C_23 
REMARK       I    between atoms: C_26  and  N_28 
ROOT
ATOM      1 CL   UNN dAMED      -0.171   3.124   0.060  0.00  0.00    -0.080 Cl
ATOM      2  N   UNN dAMED      -6.325   0.937   0.942  0.00  0.00    -0.184 NA
ATOM      3  N   UNN dAMED      -4.257   0.086   0.178  0.00  0.00    -0.287 N 
ATOM      4  N   UNN dAMED      -6.392  -1.058  -0.367  0.00  0.00    -0.223 NA
ATOM      5  C   UNN dAMED      -0.072   0.405  -0.205  0.00  0.00     0.105 A 
ATOM      6  C   UNN dAMED      -0.844   1.544  -0.010  0.00  0.00     0.081 A 
ATOM      7  C   UNN dAMED      -0.683  -0.841  -0.285  0.00  0.00     0.027 A 
ATOM      8  C   UNN dAMED      -2.070  -0.946  -0.155  0.00  0.00     0.019 A 
ATOM      9  C   UNN dAMED      -2.229   1.425   0.116  0.00  0.00     0.031 A 
ATOM     10  C   UNN dAMED      -2.872   0.183   0.049  0.00  0.00     0.065 A 
ATOM     11  C   UNN dAMED      -4.936  -1.008  -0.471  0.00  0.00     0.158 A 
ATOM     12  C   UNN dAMED      -5.030   0.994   0.855  0.00  0.00     0.222 A 
ATOM     13  C   UNN dAMED      -6.961  -0.113   0.308  0.00  0.00     0.237 A 
ATOM     14  N   UNN dAMED      -4.372   2.082   1.499  0.00  0.00    -0.061 NA
ATOM     15  N   UNN dAMED      -8.382  -0.156   0.411  0.00  0.00    -0.060 NA
ATOM     16  C   UNN dAMED      -4.520  -1.085  -1.950  0.00  0.00     0.048 C 
ATOM     17  C   UNN dAMED      -4.342  -2.342   0.016  0.00  0.00     0.048 C 
ENDROOT
BRANCH   5  18
ATOM     18  O   UNN dAMED       1.289   0.447  -0.332  0.00  0.00    -0.325 OA
BRANCH  18  19
ATOM     19  C   UNN dAMED       1.717   1.647   0.254  0.00  0.00     0.175 C 
BRANCH  19  20
ATOM     20  C   UNN dAMED       2.422   1.658   1.594  0.00  0.00     0.008 A 
ATOM     21  C   UNN dAMED       3.785   1.923   1.689  0.00  0.00     0.003 A 
ATOM     22  C   UNN dAMED       4.373   1.950   2.953  0.00  0.00     0.056 A 
ATOM     23  C   UNN dAMED       3.632   1.715   4.110  0.00  0.00     0.005 A 
ATOM     24  C   UNN dAMED       2.267   1.482   4.005  0.00  0.00    -0.000 A 
ATOM     25  C   UNN dAMED       1.666   1.458   2.750  0.00  0.00    -0.002 A 
BRANCH  22  26
ATOM     26  C   UNN dAMED       5.809   2.192   3.080  0.00  0.00     0.257 C 
ATOM     27  O   UNN dAMED       6.613   1.365   2.672  0.00  0.00    -0.267 OA
ATOM     28  N   UNN dAMED       6.108   3.377   3.711  0.00  0.00    -0.313 N 
ATOM     29  C   UNN dAMED       5.049   3.644   4.601  0.00  0.00     0.129 C 
ATOM     30  C   UNN dAMED       7.349   3.810   3.205  0.00  0.00     0.129 C 
ENDBRANCH  22  26
ENDBRANCH  19  20
ENDBRANCH  18  19
ENDBRANCH   5  18
TORSDOF 4
