REMARK  2 active torsions:
REMARK  status: ('A' for Active; 'I' for Inactive)
REMARK    1  A    between atoms: C_3  and  N_8 
REMARK    2  A    between atoms: C_3  and  C_10 
ROOT
ATOM      1  H   UNN dAMED      -2.463  -2.578  -1.492  0.00  0.00     0.318 HD
ATOM      2  N   UNN dAMED      -2.021  -1.779  -1.040  0.00  0.00     0.116 N 
ATOM      3  C   UNN dAMED       0.318   0.044   0.295  0.00  0.00     0.151 C 
ATOM      4  C   UNN dAMED      -0.326   0.184  -1.090  0.00  0.00     0.066 C 
ATOM      5  C   UNN dAMED      -0.945  -1.064  -1.730  0.00  0.00     0.249 C 
ATOM      6  C   UNN dAMED      -0.806  -0.730   0.996  0.00  0.00     0.066 C 
ATOM      7  C   UNN dAMED      -1.405  -1.944   0.278  0.00  0.00     0.249 C 
ENDROOT
BRANCH   3   8
ATOM      8  N   UNN dAMED       1.534  -0.716   0.245  0.00  0.00    -0.289 NA
ATOM      9  C   UNN dAMED       2.433  -0.588  -0.889  0.00  0.00     0.146 C 
ENDBRANCH   3   8
BRANCH   3  10
ATOM     10  C   UNN dAMED       0.601   1.353   0.938  0.00  0.00     0.263 C 
ATOM     11  O   UNN dAMED      -0.091   1.814   1.837  0.00  0.00    -0.274 OA
ATOM     12  N   UNN dAMED       1.709   2.116   0.467  0.00  0.00    -0.060 NA
ENDBRANCH   3  10
TORSDOF 2
