REMARK  0 active torsions:
REMARK  status: ('A' for Active; 'I' for Inactive)
ROOT
ATOM      1  C   UNN dAMED       1.485  -1.041   0.026  0.00  0.00     0.046 A 
ATOM      2  C   UNN dAMED       0.098  -1.678  -0.048  0.00  0.00     0.017 A 
ATOM      3  N   UNN dAMED      -0.878  -0.635   0.065  0.00  0.00    -0.322 N 
ATOM      4  C   UNN dAMED      -0.191   0.569   0.290  0.00  0.00     0.115 A 
ATOM      5  C   UNN dAMED       1.308   0.449   0.307  0.00  0.00     0.056 A 
ATOM      6  C   UNN dAMED      -2.269  -0.270   0.122  0.00  0.00     0.133 A 
ATOM      7  N   UNN dAMED      -0.908   1.646   0.470  0.00  0.00    -0.256 NA
ATOM      8  C   UNN dAMED      -2.279   1.244   0.378  0.00  0.00     0.151 A 
ATOM      9  C   UNN dAMED      -0.160  -2.925  -0.900  0.00  0.00     0.045 C 
ATOM     10  C   UNN dAMED       1.868   0.799  -1.126  0.00  0.00     0.008 C 
ATOM     11  C   UNN dAMED       1.927   1.842   0.417  0.00  0.00     0.008 C 
ENDROOT
TORSDOF 0
