REMARK  0 active torsions:
REMARK  status: ('A' for Active; 'I' for Inactive)
ROOT
ATOM      1  H   UNN dAMED       0.032  -2.123   0.177  0.00  0.00     0.166 HD
ATOM      2  N   UNN dAMED       0.019  -1.109   0.200  0.00  0.00    -0.352 N 
ATOM      3  S   UNN dAMED      -0.037   2.008  -0.228  0.00  0.00    -0.082 SA
ATOM      4  N   UNN dAMED      -3.813   0.651   0.071  0.00  0.00    -0.242 NA
ATOM      5  C   UNN dAMED      -2.389  -1.285   0.290  0.00  0.00     0.038 A 
ATOM      6  C   UNN dAMED      -3.632  -0.672   0.250  0.00  0.00     0.101 A 
ATOM      7  C   UNN dAMED      -1.246  -0.500   0.121  0.00  0.00     0.066 A 
ATOM      8  C   UNN dAMED      -1.397   0.882  -0.044  0.00  0.00     0.064 A 
ATOM      9  C   UNN dAMED      -2.690   1.391  -0.066  0.00  0.00     0.107 A 
ATOM     10  C   UNN dAMED       2.428  -1.242   0.067  0.00  0.00     0.018 A 
ATOM     11  C   UNN dAMED       1.258  -0.474   0.005  0.00  0.00     0.063 A 
ATOM     12  C   UNN dAMED       3.682  -0.655  -0.080  0.00  0.00     0.002 A 
ATOM     13  C   UNN dAMED       1.370   0.914  -0.171  0.00  0.00     0.045 A 
ATOM     14  C   UNN dAMED       3.784   0.717  -0.276  0.00  0.00     0.001 A 
ATOM     15  C   UNN dAMED       2.632   1.497  -0.317  0.00  0.00     0.008 A 
ENDROOT
TORSDOF 0
