REMARK  0 active torsions:
REMARK  status: ('A' for Active; 'I' for Inactive)
ROOT
ATOM      1  C   UNN dAMED       0.740  -0.000   1.199  0.00  0.00     0.067 A 
ATOM      2  C   UNN dAMED       1.438   0.000  -0.006  0.00  0.00     0.297 A 
ATOM      3  C   UNN dAMED      -0.645  -0.000   1.233  0.00  0.00     0.038 A 
ATOM      4  N   UNN dAMED       0.719   0.000  -1.159  0.00  0.00    -0.105 NA
ATOM      5  C   UNN dAMED      -1.293  -0.000   0.024  0.00  0.00     0.160 A 
ATOM      6  N   UNN dAMED      -0.659   0.000  -1.157  0.00  0.00    -0.133 NA
ATOM      7 CL   UNN dAMED      -3.006  -0.000  -0.051  0.00  0.00    -0.059 Cl
ATOM      8  O   UNN dAMED       2.706   0.000  -0.082  0.00  0.00    -0.264 OA
ENDROOT
TORSDOF 0
