REMARK  3 active torsions:
REMARK  status: ('A' for Active; 'I' for Inactive)
REMARK    1  A    between atoms: S_1  and  C_3 
REMARK       I    between atoms: C_3  and  N_15 
REMARK       I    between atoms: C_4  and  N_15 
REMARK       I    between atoms: C_4  and  N_16 
REMARK    2  A    between atoms: C_6  and  C_8 
REMARK       I    between atoms: C_6  and  N_16 
REMARK    3  A    between atoms: C_13  and  N_17 
ROOT
ATOM      1  O   UNN dAMED      -1.071   3.883  -2.753  0.00  0.00    -0.258 OA
ATOM      2  C   UNN dAMED      -2.083   3.672  -2.094  0.00  0.00     0.310 C 
ATOM      3  C   UNN dAMED      -1.820   1.520  -1.623  0.00  0.00     0.374 C 
ATOM      4  O   UNN dAMED      -2.400   0.761  -2.397  0.00  0.00    -0.242 OA
ATOM      5  C   UNN dAMED      -0.161   0.074  -1.045  0.00  0.00     0.283 C 
ATOM      6  O   UNN dAMED      -0.732  -0.983  -1.301  0.00  0.00    -0.265 OA
ATOM      7  N   UNN dAMED      -2.330   2.702  -1.211  0.00  0.00    -0.146 NA
ATOM      8  N   UNN dAMED      -0.614   1.329  -1.044  0.00  0.00    -0.152 NA
ENDROOT
BRANCH   5   9
ATOM      9  C   UNN dAMED       1.231  -0.006  -0.583  0.00  0.00     0.058 A 
ATOM     10  C   UNN dAMED       2.272   0.009  -1.514  0.00  0.00     0.006 A 
ATOM     11  C   UNN dAMED       3.588   0.015  -1.057  0.00  0.00     0.024 A 
ATOM     12  C   UNN dAMED       3.821   0.029   0.319  0.00  0.00     0.127 A 
ATOM     13  C   UNN dAMED       2.787   0.024   1.252  0.00  0.00     0.024 A 
ATOM     14  C   UNN dAMED       1.475  -0.006   0.793  0.00  0.00     0.006 A 
BRANCH  12  15
ATOM     15  N   UNN dAMED       5.184   0.058   0.798  0.00  0.00    -0.114 N 
ATOM     16  O   UNN dAMED       5.999   0.731   0.154  0.00  0.00    -0.532 OA
ATOM     17  O   UNN dAMED       5.440  -0.591   1.821  0.00  0.00    -0.532 OA
ENDBRANCH  12  15
ENDBRANCH   5   9
BRANCH   2  18
ATOM     18  S   UNN dAMED      -3.429   4.808  -2.141  0.00  0.00    -0.052 SA
ATOM     19  C   UNN dAMED      -4.603   3.693  -1.380  0.00  0.00     0.079 C 
ENDBRANCH   2  18
TORSDOF 3
