REMARK  7 active torsions:
REMARK  status: ('A' for Active; 'I' for Inactive)
REMARK    1  A    between atoms: O_2  and  C_7 
REMARK    2  A    between atoms: O_2  and  C_17 
REMARK    3  A    between atoms: C_12  and  AS_21 
REMARK    4  A    between atoms: C_14  and  O_23 
REMARK    5  A    between atoms: C_17  and  C_18 
REMARK    6  A    between atoms: C_18  and  C_20 
REMARK    7  A    between atoms: C_20  and  AS_21 
ROOT
ATOM      1  C   UNN dAMED       5.580  -1.670   1.414  0.00  0.00     0.134 C 
ATOM      2  O   UNN dAMED       6.267  -2.724   0.872  0.00  0.00    -0.193 OA
ENDROOT
BRANCH   1   3
ATOM      3  C   UNN dAMED       4.065  -1.486   1.187  0.00  0.00     0.145 C 
BRANCH   3   4
ATOM      4  O   UNN dAMED       3.289  -2.430   0.503  0.00  0.00    -0.302 OA
BRANCH   4   5
ATOM      5  C   UNN dAMED       2.574  -3.069   1.472  0.00  0.00     0.111 A 
ATOM      6  C   UNN dAMED       1.875  -2.288   2.386  0.00  0.00     0.026 A 
ATOM      7  C   UNN dAMED       1.164  -2.903   3.413  0.00  0.00     0.013 A 
ATOM      8  C   UNN dAMED       1.166  -4.291   3.515  0.00  0.00     0.059 A 
ATOM      9 CL   UNN dAMED       0.329  -5.051   4.807  0.00  0.00    -0.082 Cl
ATOM     10  C   UNN dAMED       1.858  -5.072   2.592  0.00  0.00     0.025 A 
ATOM     11  C   UNN dAMED       2.563  -4.457   1.563  0.00  0.00     0.081 A 
ATOM     12 CL   UNN dAMED       3.415  -5.448   0.445  0.00  0.00    -0.080 Cl
ENDBRANCH   4   5
ENDBRANCH   3   4
ENDBRANCH   1   3
BRANCH   1  13
ATOM     13  C   UNN dAMED       6.362  -0.543   2.096  0.00  0.00     0.063 C 
BRANCH  13  14
ATOM     14 AS   UNN dAMED       6.323   0.936   0.831  0.00  0.00     0.000 As
ATOM     15  O   UNN dAMED       7.741   1.652   0.835  0.00  0.00     0.000 OA
ATOM     16  O   UNN dAMED       5.991   0.324  -0.784  0.00  0.00     0.000 OA
BRANCH  14  17
ATOM     17  C   UNN dAMED       4.974   2.193   1.356  0.00  0.00     0.024 A 
ATOM     18  C   UNN dAMED       3.769   1.494   1.125  0.00  0.00     0.002 A 
ATOM     19  C   UNN dAMED       2.542   2.104   1.380  0.00  0.00     0.000 A 
ATOM     20  C   UNN dAMED       2.509   3.409   1.869  0.00  0.00     0.002 A 
ATOM     21  C   UNN dAMED       3.699   4.092   2.111  0.00  0.00     0.024 A 
ATOM     22  C   UNN dAMED       4.916   3.470   1.854  0.00  0.00     0.094 A 
BRANCH  22  23
ATOM     23  O   UNN dAMED       6.069   4.150   2.109  0.00  0.00    -0.328 OA
ATOM     24  C   UNN dAMED       7.093   3.338   1.615  0.00  0.00     0.181 C 
ENDBRANCH  22  23
ENDBRANCH  14  17
ENDBRANCH  13  14
ENDBRANCH   1  13
TORSDOF 7
