REMARK  3 active torsions:
REMARK  status: ('A' for Active; 'I' for Inactive)
REMARK    1  A    between atoms: C_14  and  C_15 
REMARK    2  A    between atoms: C_15  and  O_18 
REMARK    3  A    between atoms: O_18  and  C_19 
ROOT
ATOM      1  C   UNN dAMED      -5.299   0.421   0.090  0.00  0.00     0.005 C 
ATOM      2  C   UNN dAMED      -4.746  -0.795  -0.647  0.00  0.00     0.005 C 
ATOM      3  C   UNN dAMED      -4.302   1.571   0.241  0.00  0.00     0.033 C 
ATOM      4  C   UNN dAMED      -3.333  -1.197  -0.227  0.00  0.00     0.027 C 
ATOM      5  C   UNN dAMED      -2.865   1.181   0.443  0.00  0.00     0.005 A 
ATOM      6  C   UNN dAMED      -2.413  -0.074   0.160  0.00  0.00    -0.014 A 
ATOM      7  S   UNN dAMED      -1.638   2.256   0.871  0.00  0.00    -0.072 SA
ATOM      8  C   UNN dAMED      -0.459   1.007   0.756  0.00  0.00     0.117 A 
ATOM      9  C   UNN dAMED      -1.025  -0.202   0.365  0.00  0.00     0.076 A 
ATOM     10  N   UNN dAMED       0.857   1.240   1.027  0.00  0.00    -0.217 NA
ATOM     11  C   UNN dAMED      -0.171  -1.367   0.216  0.00  0.00     0.260 A 
ATOM     12  O   UNN dAMED      -0.588  -2.467  -0.128  0.00  0.00    -0.267 OA
ATOM     13  N   UNN dAMED       1.163  -1.083   0.506  0.00  0.00    -0.302 N 
ATOM     14  C   UNN dAMED       1.597   0.182   0.885  0.00  0.00     0.208 A 
ATOM     15  H   UNN dAMED       1.839  -1.838   0.430  0.00  0.00     0.171 HD
ENDROOT
BRANCH  14  16
ATOM     16  C   UNN dAMED       3.059   0.280   1.149  0.00  0.00     0.330 C 
ATOM     17  O   UNN dAMED       3.536   0.096   2.249  0.00  0.00    -0.256 OA
BRANCH  16  18
ATOM     18  O   UNN dAMED       3.688   0.603   0.011  0.00  0.00    -0.296 OA
BRANCH  18  19
ATOM     19  C   UNN dAMED       2.677   0.704  -0.948  0.00  0.00     0.152 C 
ATOM     20  C   UNN dAMED       2.995   1.250  -2.344  0.00  0.00     0.035 C 
ENDBRANCH  18  19
ENDBRANCH  16  18
ENDBRANCH  14  16
TORSDOF 3
