REMARK  1 active torsions:
REMARK  status: ('A' for Active; 'I' for Inactive)
REMARK    1  A    between atoms: N_12  and  C_16 
ROOT
ATOM      1  C   UNN dAMED       1.066  -0.698   1.054  0.00  0.00     0.290 C 
ATOM      2  C   UNN dAMED      -0.876  -0.296   0.281  0.00  0.00     0.231 C 
ATOM      3  C   UNN dAMED      -1.529  -0.876  -0.978  0.00  0.00     0.056 C 
ATOM      4  C   UNN dAMED      -1.580   1.071   0.535  0.00  0.00     0.188 A 
ATOM      5  C   UNN dAMED      -2.959  -1.158  -0.988  0.00  0.00     0.007 C 
ATOM      6  C   UNN dAMED      -3.075   1.191   0.367  0.00  0.00     0.122 A 
ATOM      7  C   UNN dAMED      -3.825   0.076  -0.442  0.00  0.00     0.030 C 
ATOM      8  O   UNN dAMED      -2.138   1.833  -0.507  0.00  0.00    -0.352 OA
ATOM      9  N   UNN dAMED       0.162  -1.362   1.857  0.00  0.00    -0.105 NA
ATOM     10  N   UNN dAMED      -0.995  -1.217   1.401  0.00  0.00    -0.144 NA
ATOM     11  O   UNN dAMED       0.485  -0.094  -0.017  0.00  0.00    -0.278 OA
ATOM     12  N   UNN dAMED       2.324  -0.717   1.316  0.00  0.00    -0.204 NA
ATOM     13  C   UNN dAMED      -4.446   1.866   0.284  0.00  0.00     0.032 C 
ATOM     14  C   UNN dAMED      -4.515  -1.466  -0.998  0.00  0.00     0.000 C 
ATOM     15  C   UNN dAMED      -4.397  -1.347  -1.643  0.00  0.00     0.000 C 
ENDROOT
BRANCH  12  16
ATOM     16  C   UNN dAMED       3.289  -0.108   0.494  0.00  0.00     0.085 A 
ATOM     17  C   UNN dAMED       3.524   1.260   0.684  0.00  0.00     0.019 A 
ATOM     18  C   UNN dAMED       4.413   1.967  -0.128  0.00  0.00     0.002 A 
ATOM     19  C   UNN dAMED       5.075   1.311  -1.162  0.00  0.00     0.000 A 
ATOM     20  C   UNN dAMED       4.835  -0.044  -1.382  0.00  0.00     0.002 A 
ATOM     21  C   UNN dAMED       3.938  -0.742  -0.569  0.00  0.00     0.019 A 
ENDBRANCH  12  16
TORSDOF 1
