REMARK  5 active torsions:
REMARK  status: ('A' for Active; 'I' for Inactive)
REMARK    1  A    between atoms: P_2  and  N_12 
REMARK    2  A    between atoms: N_12  and  C_13 
REMARK    3  A    between atoms: N_12  and  C_18 
REMARK    4  A    between atoms: C_13  and  C_14 
REMARK    5  A    between atoms: C_17  and  C_18 
ROOT
ATOM      1  N   UNN dAMED      -0.406  -2.188   1.092  0.00  0.00    -0.284 N 
ATOM      2  P   UNN dAMED       0.237  -0.998   0.121  0.00  0.00     0.376 P 
ATOM      3  O   UNN dAMED      -0.527  -0.736  -1.154  0.00  0.00    -0.247 OA
ATOM      4  O   UNN dAMED       0.274   0.353   1.037  0.00  0.00    -0.288 OA
ATOM      5  C   UNN dAMED       0.283  -3.466   1.204  0.00  0.00     0.110 C 
ATOM      6  C   UNN dAMED      -0.444  -4.625   1.889  0.00  0.00     0.025 C 
ATOM      7  C   UNN dAMED      -1.178  -4.238   3.165  0.00  0.00     0.008 C 
ATOM      8  C   UNN dAMED      -1.921  -2.911   3.057  0.00  0.00     0.040 C 
ATOM      9  C   UNN dAMED      -1.062   0.603   1.358  0.00  0.00     0.158 C 
ATOM     10  C   UNN dAMED      -1.771  -0.391   2.271  0.00  0.00     0.072 C 
ATOM     11  C   UNN dAMED      -1.223  -1.813   2.241  0.00  0.00     0.021 C 
ENDROOT
BRANCH   2  12
ATOM     12  N   UNN dAMED       1.832  -1.403  -0.092  0.00  0.00    -0.191 NA
BRANCH  12  13
ATOM     13  C   UNN dAMED       2.179  -2.611  -0.864  0.00  0.00     0.100 C 
BRANCH  13  14
ATOM     14  C   UNN dAMED       1.102  -3.664  -1.144  0.00  0.00     0.113 C 
ATOM     15 CL   UNN dAMED       1.555  -5.326  -1.477  0.00  0.00    -0.112 Cl
ENDBRANCH  13  14
ENDBRANCH  12  13
BRANCH  12  16
ATOM     16  C   UNN dAMED       2.587  -0.851  -1.232  0.00  0.00     0.100 C 
BRANCH  16  17
ATOM     17  C   UNN dAMED       2.085   0.411  -1.942  0.00  0.00     0.113 C 
ATOM     18 CL   UNN dAMED       3.195   1.722  -2.300  0.00  0.00    -0.112 Cl
ENDBRANCH  16  17
ENDBRANCH  12  16
ENDBRANCH   2  12
TORSDOF 5
