REMARK  2 active torsions:
REMARK  status: ('A' for Active; 'I' for Inactive)
REMARK    1  A    between atoms: C_16  and  C_26 
REMARK    2  A    between atoms: C_17  and  C_25 
ROOT
ATOM      1  N   UNN dAMED       0.918  -0.544   0.924  0.00  0.00    -0.228 NA
ATOM      2  O   UNN dAMED      -2.890  -1.502  -0.210  0.00  0.00    -0.267 OA
ATOM      3  N   UNN dAMED      -1.247   0.121   0.202  0.00  0.00    -0.260 N 
ATOM      4  C   UNN dAMED       1.441  -2.893   1.081  0.00  0.00     0.019 A 
ATOM      5  C   UNN dAMED       1.097  -4.234   0.914  0.00  0.00     0.002 A 
ATOM      6  C   UNN dAMED       0.518  -1.882   0.805  0.00  0.00     0.088 A 
ATOM      7  C   UNN dAMED      -0.758  -2.242   0.369  0.00  0.00     0.074 A 
ATOM      8  C   UNN dAMED      -0.176  -4.578   0.467  0.00  0.00     0.000 A 
ATOM      9  C   UNN dAMED      -1.109  -3.582   0.197  0.00  0.00     0.006 A 
ATOM     10  C   UNN dAMED      -1.744  -1.181   0.085  0.00  0.00     0.267 A 
ATOM     11  C   UNN dAMED       0.064   0.376   0.599  0.00  0.00     0.150 A 
ATOM     12  C   UNN dAMED      -3.328   1.353   0.605  0.00  0.00     0.017 A 
ATOM     13  C   UNN dAMED      -4.149   2.457   0.368  0.00  0.00     0.002 A 
ATOM     14  C   UNN dAMED      -2.089   1.244  -0.031  0.00  0.00     0.064 A 
ATOM     15  C   UNN dAMED      -3.730   3.468  -0.493  0.00  0.00    -0.000 A 
ATOM     16  C   UNN dAMED      -1.674   2.265  -0.889  0.00  0.00    -0.006 A 
ATOM     17  C   UNN dAMED      -2.489   3.374  -1.120  0.00  0.00    -0.003 A 
ATOM     18  C   UNN dAMED      -0.325   2.168  -1.540  0.00  0.00     0.033 C 
ENDROOT
BRANCH  11  19
ATOM     19  C   UNN dAMED       0.508   1.814   0.687  0.00  0.00     0.039 C 
ATOM     20  C   UNN dAMED       0.341   2.595   1.760  0.00  0.00     0.022 C 
BRANCH  20  21
ATOM     21  C   UNN dAMED      -0.277   2.166   3.074  0.00  0.00     0.082 A 
ATOM     22  N   UNN dAMED      -0.662   0.881   3.236  0.00  0.00    -0.244 NA
ATOM     23  C   UNN dAMED      -1.215   0.541   4.416  0.00  0.00     0.099 A 
ATOM     24  C   UNN dAMED      -1.397   1.426   5.462  0.00  0.00     0.021 A 
ATOM     25  C   UNN dAMED      -0.990   2.739   5.273  0.00  0.00     0.003 A 
ATOM     26  C   UNN dAMED      -0.425   3.125   4.063  0.00  0.00     0.019 A 
ENDBRANCH  20  21
ENDBRANCH  11  19
TORSDOF 2
