REMARK  3 active torsions:
REMARK  status: ('A' for Active; 'I' for Inactive)
REMARK    1  A    between atoms: C_10  and  S_12 
REMARK    2  A    between atoms: S_12  and  C_26 
REMARK    3  A    between atoms: C_15  and  C_26 
ROOT
ATOM      1  C   UNN dAMED      -5.901  -2.155   0.936  0.00  0.00     0.002 A 
ATOM      2  C   UNN dAMED      -6.159  -1.543  -0.292  0.00  0.00     0.002 A 
ATOM      3  C   UNN dAMED      -4.719  -1.885   1.630  0.00  0.00     0.021 A 
ATOM      4  C   UNN dAMED      -5.236  -0.658  -0.839  0.00  0.00     0.019 A 
ATOM      5  C   UNN dAMED      -3.778  -1.001   1.106  0.00  0.00     0.098 A 
ATOM      6  C   UNN dAMED      -4.064  -0.401  -0.136  0.00  0.00     0.082 A 
ATOM      7  N   UNN dAMED      -2.589  -0.739   1.834  0.00  0.00    -0.236 NA
ATOM      8  N   UNN dAMED      -3.100   0.477  -0.647  0.00  0.00    -0.302 N 
ATOM      9  C   UNN dAMED      -3.115   1.185  -1.817  0.00  0.00     0.080 A 
ATOM     10  C   UNN dAMED      -1.727   0.084   1.316  0.00  0.00     0.123 A 
ATOM     11  C   UNN dAMED      -1.939   0.730   0.047  0.00  0.00     0.088 A 
ATOM     12  C   UNN dAMED      -1.201   1.616  -0.712  0.00  0.00     0.021 A 
ATOM     13  C   UNN dAMED      -1.942   1.902  -1.884  0.00  0.00     0.021 A 
ENDROOT
BRANCH  10  14
ATOM     14  S   UNN dAMED      -0.253   0.482   2.157  0.00  0.00    -0.089 SA
BRANCH  14  15
ATOM     15  C   UNN dAMED      -0.327   2.225   1.735  0.00  0.00     0.092 C 
BRANCH  15  16
ATOM     16  C   UNN dAMED       0.760   3.184   2.137  0.00  0.00     0.012 A 
ATOM     17  C   UNN dAMED       0.747   3.779   3.391  0.00  0.00     0.092 A 
ATOM     18  O   UNN dAMED      -0.185   3.423   4.321  0.00  0.00    -0.302 OA
ATOM     19  C   UNN dAMED       1.678   4.745   3.746  0.00  0.00     0.030 A 
ATOM     20  C   UNN dAMED      -0.173   4.444   5.286  0.00  0.00     0.299 C 
ATOM     21  O   UNN dAMED       0.936   4.651   6.141  0.00  0.00    -0.322 OA
ATOM     22  C   UNN dAMED       1.589   5.360   5.112  0.00  0.00     0.173 C 
ATOM     23  C   UNN dAMED       2.619   5.169   2.816  0.00  0.00     0.011 A 
ATOM     24  C   UNN dAMED       2.627   4.590   1.548  0.00  0.00     0.057 A 
ATOM     25  C   UNN dAMED       1.707   3.600   1.204  0.00  0.00     0.010 A 
ATOM     26 CL   UNN dAMED       3.775   5.116   0.385  0.00  0.00    -0.082 Cl
ENDBRANCH  15  16
ENDBRANCH  14  15
ENDBRANCH  10  14
TORSDOF 3
