REMARK  2 active torsions:
REMARK  status: ('A' for Active; 'I' for Inactive)
REMARK    1  A    between atoms: C_12  and  C_21 
REMARK    2  A    between atoms: C_16  and  C_21 
ROOT
ATOM      1  O   UNN dAMED      -5.091  -0.552   1.039  0.00  0.00    -0.246 OA
ATOM      2  N   UNN dAMED      -3.483   0.976   0.344  0.00  0.00    -0.246 N 
ATOM      3  N   UNN dAMED      -2.905  -1.252   0.731  0.00  0.00    -0.263 N 
ATOM      4  O   UNN dAMED      -2.106   2.470  -0.790  0.00  0.00    -0.266 OA
ATOM      5  N   UNN dAMED      -0.185   0.098  -0.950  0.00  0.00    -0.209 NA
ATOM      6  N   UNN dAMED      -0.671  -1.891  -0.070  0.00  0.00    -0.215 NA
ATOM      7  C   UNN dAMED      -2.307   1.362  -0.303  0.00  0.00     0.278 C 
ATOM      8  C   UNN dAMED      -1.402   0.248  -0.366  0.00  0.00     0.133 A 
ATOM      9  C   UNN dAMED      -1.696  -1.009   0.122  0.00  0.00     0.164 A 
ATOM     10  C   UNN dAMED       0.246  -1.169  -0.683  0.00  0.00     0.125 A 
ATOM     11  C   UNN dAMED      -3.923  -0.299   0.747  0.00  0.00     0.335 C 
ATOM     12  C   UNN dAMED      -4.571   1.837   0.048  0.00  0.00     0.138 C 
ATOM     13  C   UNN dAMED      -3.404  -2.552   0.461  0.00  0.00     0.137 C 
ATOM     14  C   UNN dAMED       0.733   1.044  -0.416  0.00  0.00     0.101 C 
ENDROOT
BRANCH  10  15
ATOM     15  C   UNN dAMED       1.693  -1.579  -0.765  0.00  0.00     0.031 C 
BRANCH  15  16
ATOM     16  C   UNN dAMED       2.556  -1.747   0.460  0.00  0.00     0.003 A 
ATOM     17  C   UNN dAMED       3.459  -0.747   0.815  0.00  0.00     0.001 A 
ATOM     18  C   UNN dAMED       4.378  -0.968   1.837  0.00  0.00     0.014 A 
ATOM     19  C   UNN dAMED       4.403  -2.196   2.495  0.00  0.00     0.070 A 
ATOM     20  C   UNN dAMED       3.499  -3.196   2.142  0.00  0.00     0.014 A 
ATOM     21  N   UNN dAMED       5.442  -2.479   3.426  0.00  0.00    -0.101 NA
ATOM     22  C   UNN dAMED       2.577  -2.972   1.123  0.00  0.00     0.001 A 
ENDBRANCH  15  16
ENDBRANCH  10  15
TORSDOF 2
