REMARK  3 active torsions:
REMARK  status: ('A' for Active; 'I' for Inactive)
REMARK    1  A    between atoms: N_5  and  C_8 
REMARK    2  A    between atoms: N_6  and  C_12 
REMARK    3  A    between atoms: C_13  and  S_20 
ROOT
ATOM      1  N   UNN dAMED      -0.672  -0.364   0.105  0.00  0.00    -0.141 NA
ATOM      2  N   UNN dAMED      -0.198  -1.467  -0.246  0.00  0.00    -0.148 NA
ENDROOT
BRANCH   1   3
ATOM      3  C   UNN dAMED      -2.038  -0.295   0.055  0.00  0.00     0.188 C 
ATOM      4  C   UNN dAMED      -2.849  -1.003   0.864  0.00  0.00     0.160 C 
ATOM      5  N   UNN dAMED      -4.198  -0.884   0.767  0.00  0.00    -0.267 N 
ATOM      6  N   UNN dAMED      -2.285  -1.955   1.760  0.00  0.00    -0.080 NA
ATOM      7  C   UNN dAMED      -4.904  -0.111  -0.127  0.00  0.00     0.335 C 
ATOM      8  C   UNN dAMED      -4.949  -1.888   1.429  0.00  0.00     0.136 C 
ATOM      9  O   UNN dAMED      -6.120  -0.155  -0.288  0.00  0.00    -0.246 OA
ATOM     10  N   UNN dAMED      -4.039   0.706  -0.853  0.00  0.00    -0.246 N 
ATOM     11  C   UNN dAMED      -2.660   0.637  -0.952  0.00  0.00     0.286 C 
ATOM     12  C   UNN dAMED      -4.651   1.276  -2.000  0.00  0.00     0.139 C 
ATOM     13  O   UNN dAMED      -1.989   1.227  -1.793  0.00  0.00    -0.265 OA
ENDBRANCH   1   3
BRANCH   2  14
ATOM     14  C   UNN dAMED       1.202  -1.439  -0.156  0.00  0.00     0.103 A 
ATOM     15  C   UNN dAMED       1.971  -1.434  -1.325  0.00  0.00     0.022 A 
ATOM     16  C   UNN dAMED       3.361  -1.464  -1.259  0.00  0.00     0.015 A 
ATOM     17  C   UNN dAMED       3.965  -1.510  -0.009  0.00  0.00     0.107 A 
ATOM     18  C   UNN dAMED       3.233  -1.531   1.170  0.00  0.00     0.015 A 
ATOM     19  C   UNN dAMED       1.844  -1.508   1.088  0.00  0.00     0.022 A 
BRANCH  17  20
ATOM     20  S   UNN dAMED       5.716  -1.541   0.107  0.00  0.00     0.302 S 
ATOM     21  O   UNN dAMED       6.154  -0.239  -0.362  0.00  0.00    -0.197 OA
ATOM     22  O   UNN dAMED       6.128  -2.744  -0.591  0.00  0.00    -0.197 OA
ATOM     23  N   UNN dAMED       6.147  -1.696   1.752  0.00  0.00    -0.043 N 
ENDBRANCH  17  20
ENDBRANCH   2  14
TORSDOF 3
