REMARK  4 active torsions:
REMARK  status: ('A' for Active; 'I' for Inactive)
REMARK    1  A    between atoms: C_2  and  C_5 
REMARK    2  A    between atoms: C_10  and  N_16 
REMARK       I    between atoms: C_12  and  N_16 
REMARK    3  A    between atoms: C_12  and  C_17 
REMARK    4  A    between atoms: C_14  and  C_17 
ROOT
ATOM      1  C   UNN dAMED      -2.889  -1.491  -0.197  0.00  0.00     0.005 A 
ATOM      2  C   UNN dAMED      -2.162  -0.481   0.425  0.00  0.00     0.073 A 
ATOM      3  C   UNN dAMED      -2.322  -2.214  -1.241  0.00  0.00     0.013 A 
ATOM      4  C   UNN dAMED      -0.871  -0.203  -0.024  0.00  0.00     0.024 A 
ATOM      5  C   UNN dAMED      -1.011  -1.951  -1.651  0.00  0.00     0.075 A 
ATOM      6  C   UNN dAMED      -0.242  -0.947  -1.035  0.00  0.00     0.095 A 
ATOM      7 CL   UNN dAMED      -0.392  -2.924  -2.939  0.00  0.00    -0.081 Cl
ENDROOT
BRANCH   6   8
ATOM      8  N   UNN dAMED       1.036  -0.666  -1.372  0.00  0.00    -0.211 NA
ATOM      9  C   UNN dAMED       1.883  -1.252  -0.524  0.00  0.00     0.263 C 
ATOM     10  O   UNN dAMED       2.816  -1.987  -0.828  0.00  0.00    -0.270 OA
BRANCH   9  11
ATOM     11  C   UNN dAMED       1.784  -0.846   0.928  0.00  0.00     0.153 C 
BRANCH  11  12
ATOM     12  C   UNN dAMED       1.075  -1.712   1.938  0.00  0.00     0.167 C 
ATOM     13  N   UNN dAMED       0.778  -1.239   3.100  0.00  0.00    -0.086 NA
ATOM     14  O   UNN dAMED      -0.115  -2.063   3.724  0.00  0.00    -0.060 OA
ATOM     15  N   UNN dAMED       0.369  -2.836   1.422  0.00  0.00    -0.082 NA
ENDBRANCH  11  12
ENDBRANCH   9  11
ENDBRANCH   6   8
BRANCH   2  16
ATOM     16  C   UNN dAMED      -2.732   0.258   1.594  0.00  0.00     0.419 C 
ATOM     17  F   UNN dAMED      -1.810   1.003   2.265  0.00  0.00    -0.166 F 
ATOM     18  F   UNN dAMED      -3.722   1.120   1.236  0.00  0.00    -0.166 F 
ATOM     19  F   UNN dAMED      -3.275  -0.575   2.525  0.00  0.00    -0.166 F 
ENDBRANCH   2  16
TORSDOF 4
