REMARK  3 active torsions:
REMARK  status: ('A' for Active; 'I' for Inactive)
REMARK    1  A    between atoms: C_1  and  C_10 
REMARK    2  A    between atoms: C_4  and  C_8 
REMARK    3  A    between atoms: C_5  and  C_8 
ROOT
ATOM      1  C   UNN dAMED       0.868  -0.708  -0.043  0.00  0.00     0.038 C 
ATOM      2  C   UNN dAMED      -0.398  -2.098   0.146  0.00  0.00     0.005 C 
ATOM      3  C   UNN dAMED      -0.217   0.138  -0.637  0.00  0.00     0.006 C 
ATOM      4  C   UNN dAMED      -0.974  -0.420   0.539  0.00  0.00     0.011 C 
ATOM      5  C   UNN dAMED       0.488  -0.398   0.153  0.00  0.00     0.000 C 
ATOM      6  C   UNN dAMED       0.488  -0.398   0.153  0.00  0.00     0.000 C 
ENDROOT
BRANCH   1   7
ATOM      7  C   UNN dAMED       1.663  -0.248   1.148  0.00  0.00     0.066 C 
ATOM      8  C   UNN dAMED       2.487  -1.271   1.881  0.00  0.00     0.050 C 
ATOM      9  N   UNN dAMED       1.891   1.006   1.337  0.00  0.00    -0.105 NA
ATOM     10  O   UNN dAMED       2.839   1.160   2.308  0.00  0.00    -0.061 OA
ENDBRANCH   1   7
BRANCH   4  11
ATOM     11  C   UNN dAMED      -2.477  -0.130   0.677  0.00  0.00     0.098 C 
BRANCH  11  12
ATOM     12  C   UNN dAMED      -3.335  -0.864   1.677  0.00  0.00     0.185 C 
ATOM     13  O   UNN dAMED      -3.664  -2.052   1.380  0.00  0.00    -0.647 OA
ATOM     14  O   UNN dAMED      -3.695  -0.209   2.700  0.00  0.00    -0.647 OA
ENDBRANCH  11  12
ENDBRANCH   4  11
TORSDOF 3
