REMARK  4 active torsions:
REMARK  status: ('A' for Active; 'I' for Inactive)
REMARK    1  A    between atoms: C_1  and  C_13 
REMARK    2  A    between atoms: C_2  and  C_3 
REMARK    3  A    between atoms: C_3  and  C_4 
REMARK    4  A    between atoms: C_5  and  C_7 
ROOT
ATOM      1  C   UNN dAMED       0.846  -2.693  -1.996  0.00  0.00     0.196 C 
ATOM      2  O   UNN dAMED       0.684  -3.902  -1.934  0.00  0.00    -0.287 OA
ENDROOT
BRANCH   1   3
ATOM      3  C   UNN dAMED       2.014  -2.053  -1.292  0.00  0.00     0.042 C 
ATOM      4  C   UNN dAMED       2.133  -0.726  -1.290  0.00  0.00     0.005 C 
BRANCH   4   5
ATOM      5  C   UNN dAMED       3.292  -0.085  -0.587  0.00  0.00     0.019 A 
ATOM      6  C   UNN dAMED       3.258   0.099   0.784  0.00  0.00     0.099 A 
ATOM      7  N   UNN dAMED       4.341   0.413   1.528  0.00  0.00    -0.242 NA
ATOM      8  C   UNN dAMED       5.510   0.539   0.862  0.00  0.00     0.099 A 
ATOM      9  C   UNN dAMED       5.650   0.371  -0.506  0.00  0.00     0.021 A 
ATOM     10  C   UNN dAMED       4.513   0.048  -1.235  0.00  0.00     0.003 A 
ENDBRANCH   4   5
ENDBRANCH   1   3
BRANCH   1  11
ATOM     11  C   UNN dAMED       0.623  -1.972  -3.301  0.00  0.00     0.042 C 
ATOM     12  C   UNN dAMED       0.008  -0.791  -3.300  0.00  0.00     0.005 C 
BRANCH  12  13
ATOM     13  C   UNN dAMED      -0.239  -0.059  -4.586  0.00  0.00     0.019 A 
ATOM     14  C   UNN dAMED      -0.867   1.180  -4.574  0.00  0.00     0.003 A 
ATOM     15  C   UNN dAMED      -0.890   1.955  -5.726  0.00  0.00     0.021 A 
ATOM     16  C   UNN dAMED      -0.262   1.449  -6.853  0.00  0.00     0.099 A 
ATOM     17  N   UNN dAMED       0.370   0.255  -6.899  0.00  0.00    -0.242 NA
ATOM     18  C   UNN dAMED       0.368  -0.471  -5.760  0.00  0.00     0.099 A 
ENDBRANCH  12  13
ENDBRANCH   1  11
TORSDOF 4
