REMARK  3 active torsions:
REMARK  status: ('A' for Active; 'I' for Inactive)
REMARK    1  A    between atoms: C_1  and  N_14 
REMARK    2  A    between atoms: C_6  and  S_7 
REMARK    3  A    between atoms: S_7  and  C_8 
ROOT
ATOM      1  C   UNN dAMED      -3.203   0.521  -0.091  0.00  0.00     0.137 A 
ATOM      2  C   UNN dAMED      -2.656  -0.751  -0.100  0.00  0.00     0.013 A 
ATOM      3  C   UNN dAMED      -2.486   1.574   0.446  0.00  0.00     0.082 A 
ATOM      4  N   UNN dAMED      -1.253   1.410   0.977  0.00  0.00    -0.241 NA
ATOM      5  C   UNN dAMED      -1.391  -0.948   0.442  0.00  0.00     0.090 A 
ATOM      6  C   UNN dAMED      -0.723   0.156   0.983  0.00  0.00     0.121 A 
ATOM      7  C   UNN dAMED      -3.447  -1.918  -0.617  0.00  0.00     0.034 C 
ATOM      8  C   UNN dAMED      -3.100   2.946   0.441  0.00  0.00     0.054 C 
ATOM      9  C   UNN dAMED      -0.859  -2.275   0.435  0.00  0.00     0.103 C 
ATOM     10  N   UNN dAMED      -0.430  -3.353   0.434  0.00  0.00    -0.191 NA
ENDROOT
BRANCH   6  11
ATOM     11  S   UNN dAMED       0.889   0.012   1.756  0.00  0.00    -0.048 SA
BRANCH  11  12
ATOM     12  C   UNN dAMED       0.376  -0.408   3.421  0.00  0.00     0.121 A 
ATOM     13  N   UNN dAMED      -0.048  -1.687   3.591  0.00  0.00    -0.243 NA
ATOM     14  C   UNN dAMED      -0.495  -2.055   4.814  0.00  0.00     0.060 A 
ATOM     15  C   UNN dAMED      -0.527  -1.198   5.898  0.00  0.00     0.011 A 
ATOM     16  C   UNN dAMED      -1.068  -3.436   4.974  0.00  0.00     0.052 C 
ATOM     17  C   UNN dAMED      -0.073   0.101   5.712  0.00  0.00    -0.009 A 
ATOM     18  C   UNN dAMED       0.391   0.515   4.465  0.00  0.00     0.088 A 
ATOM     19  C   UNN dAMED      -0.146   1.083   6.846  0.00  0.00     0.032 C 
ATOM     20  C   UNN dAMED       0.844   1.864   4.326  0.00  0.00     0.103 C 
ATOM     21  N   UNN dAMED       1.214   2.959   4.216  0.00  0.00    -0.191 NA
ENDBRANCH  11  12
ENDBRANCH   6  11
BRANCH   1  22
ATOM     22  N   UNN dAMED      -4.529   0.743  -0.616  0.00  0.00    -0.113 N 
ATOM     23  O   UNN dAMED      -5.311  -0.217  -0.615  0.00  0.00    -0.532 OA
ATOM     24  O   UNN dAMED      -4.797   1.880  -1.029  0.00  0.00    -0.532 OA
ENDBRANCH   1  22
TORSDOF 3
