REMARK  6 active torsions:
REMARK  status: ('A' for Active; 'I' for Inactive)
REMARK    1  A    between atoms: O_1  and  C_14 
REMARK    2  A    between atoms: O_1  and  C_25 
REMARK    3  A    between atoms: O_2  and  C_8 
REMARK    4  A    between atoms: O_2  and  C_27 
REMARK    5  A    between atoms: C_15  and  C_27 
REMARK    6  A    between atoms: C_18  and  C_25 
ROOT
ATOM      1  C   UNN dAMED       1.142  -0.960  -0.007  0.00  0.00     0.064 C 
ATOM      2  C   UNN dAMED       2.411  -1.422   0.357  0.00  0.00     0.005 C 
ATOM      3  C   UNN dAMED      -0.011  -1.797   0.058  0.00  0.00     0.010 C 
ATOM      4  C   UNN dAMED      -1.380  -1.436  -0.107  0.00  0.00     0.064 C 
ATOM      5  C   UNN dAMED      -2.389  -2.403  -0.214  0.00  0.00     0.005 C 
ATOM      6  C   UNN dAMED       2.581  -2.743   0.741  0.00  0.00     0.000 C 
ATOM      7  C   UNN dAMED       0.237  -3.169   0.313  0.00  0.00     0.000 C 
ATOM      8  C   UNN dAMED      -2.078  -3.749  -0.080  0.00  0.00     0.000 C 
ATOM      9  C   UNN dAMED       1.507  -3.621   0.660  0.00  0.00     0.000 C 
ATOM     10  C   UNN dAMED      -0.778  -4.119   0.237  0.00  0.00     0.000 C 
ENDROOT
BRANCH   1  11
ATOM     11  C   UNN dAMED       1.142   0.354  -0.680  0.00  0.00     0.300 C 
ATOM     12  O   UNN dAMED       1.157   1.404  -0.055  0.00  0.00    -0.259 OA
BRANCH  11  13
ATOM     13  O   UNN dAMED       1.444   0.268  -2.042  0.00  0.00    -0.273 OA
BRANCH  13  14
ATOM     14  C   UNN dAMED       0.709  -0.588  -2.891  0.00  0.00     0.103 A 
ATOM     15  C   UNN dAMED      -0.588  -0.272  -3.284  0.00  0.00     0.025 A 
ATOM     16  C   UNN dAMED      -1.242  -1.110  -4.186  0.00  0.00     0.002 A 
ATOM     17  C   UNN dAMED      -0.584  -2.218  -4.721  0.00  0.00     0.000 A 
ATOM     18  C   UNN dAMED       0.733  -2.494  -4.355  0.00  0.00     0.002 A 
ATOM     19  C   UNN dAMED       1.387  -1.673  -3.441  0.00  0.00     0.025 A 
ENDBRANCH  13  14
ENDBRANCH  11  13
ENDBRANCH   1  11
BRANCH   4  20
ATOM     20  C   UNN dAMED      -1.841  -0.054   0.140  0.00  0.00     0.300 C 
ATOM     21  O   UNN dAMED      -1.666   0.890  -0.608  0.00  0.00    -0.259 OA
BRANCH  20  22
ATOM     22  O   UNN dAMED      -2.547  -0.074   1.336  0.00  0.00    -0.273 OA
BRANCH  22  23
ATOM     23  C   UNN dAMED      -2.721   1.186   1.922  0.00  0.00     0.103 A 
ATOM     24  C   UNN dAMED      -3.646   2.079   1.384  0.00  0.00     0.025 A 
ATOM     25  C   UNN dAMED      -3.843   3.311   2.003  0.00  0.00     0.002 A 
ATOM     26  C   UNN dAMED      -3.154   3.623   3.174  0.00  0.00     0.000 A 
ATOM     27  C   UNN dAMED      -2.277   2.695   3.737  0.00  0.00     0.002 A 
ATOM     28  C   UNN dAMED      -2.060   1.467   3.115  0.00  0.00     0.025 A 
ENDBRANCH  22  23
ENDBRANCH  20  22
ENDBRANCH   4  20
TORSDOF 6
