REMARK  3 active torsions:
REMARK  status: ('A' for Active; 'I' for Inactive)
REMARK    1  A    between atoms: N_11  and  C_28 
REMARK    2  A    between atoms: C_19  and  C_29 
REMARK    3  A    between atoms: C_28  and  C_29 
ROOT
ATOM      1  C   UNN dAMED      -1.837   5.074   0.357  0.00  0.00     0.000 A 
ATOM      2  C   UNN dAMED      -3.099   4.618  -0.017  0.00  0.00     0.002 A 
ATOM      3  C   UNN dAMED      -0.763   4.188   0.402  0.00  0.00     0.006 A 
ATOM      4  C   UNN dAMED      -3.287   3.274  -0.332  0.00  0.00     0.017 A 
ATOM      5  C   UNN dAMED      -0.948   2.840   0.086  0.00  0.00     0.072 A 
ATOM      6  C   UNN dAMED      -2.221   2.378  -0.257  0.00  0.00     0.062 A 
ATOM      7  C   UNN dAMED       0.238   1.951   0.104  0.00  0.00     0.263 C 
ATOM      8  O   UNN dAMED       1.333   2.421   0.407  0.00  0.00    -0.267 OA
ATOM      9  N   UNN dAMED      -2.363   1.033  -0.612  0.00  0.00    -0.340 N 
ATOM     10  H   UNN dAMED      -3.332   0.722  -0.605  0.00  0.00     0.167 HD
ATOM     11  N   UNN dAMED       0.082   0.633  -0.282  0.00  0.00    -0.282 N 
ATOM     12  C   UNN dAMED      -1.264   0.163  -0.236  0.00  0.00     0.127 C 
ATOM     13  C   UNN dAMED      -1.522  -1.315  -0.024  0.00  0.00     0.073 A 
ATOM     14  C   UNN dAMED      -1.349  -2.212  -1.106  0.00  0.00     0.209 A 
ATOM     15  C   UNN dAMED      -1.936  -1.724   1.251  0.00  0.00     0.018 A 
ATOM     16  C   UNN dAMED      -1.623  -3.568  -0.789  0.00  0.00     0.098 A 
ATOM     17 CL   UNN dAMED      -1.458  -4.829  -1.973  0.00  0.00    -0.079 Cl
ATOM     18  C   UNN dAMED      -2.197  -3.061   1.493  0.00  0.00     0.059 A 
ATOM     19  C   UNN dAMED      -2.040  -3.989   0.479  0.00  0.00     0.026 A 
ATOM     20 CL   UNN dAMED      -2.724  -3.566   3.043  0.00  0.00    -0.082 Cl
ATOM     21  O   UNN dAMED      -0.978  -1.796  -2.256  0.00  0.00    -0.286 OA
ENDROOT
BRANCH  11  22
ATOM     22  C   UNN dAMED       1.345   0.014  -0.139  0.00  0.00     0.117 C 
BRANCH  22  23
ATOM     23  C   UNN dAMED       1.666  -0.767   1.139  0.00  0.00     0.070 C 
BRANCH  23  24
ATOM     24  C   UNN dAMED       2.839  -1.704   1.168  0.00  0.00     0.061 A 
ATOM     25  C   UNN dAMED       3.871  -1.490   0.267  0.00  0.00     0.015 A 
ATOM     26  C   UNN dAMED       4.959  -2.353   0.301  0.00  0.00     0.003 A 
ATOM     27  C   UNN dAMED       4.992  -3.394   1.219  0.00  0.00     0.021 A 
ATOM     28  C   UNN dAMED       3.913  -3.526   2.076  0.00  0.00     0.099 A 
ATOM     29  N   UNN dAMED       2.837  -2.708   2.074  0.00  0.00    -0.248 NA
ENDBRANCH  23  24
ENDBRANCH  22  23
ENDBRANCH  11  22
TORSDOF 3
