REMARK  4 active torsions:
REMARK  status: ('A' for Active; 'I' for Inactive)
REMARK    1  A    between atoms: O_2  and  C_9 
REMARK    2  A    between atoms: O_2  and  C_15 
REMARK    3  A    between atoms: N_3  and  C_16 
REMARK    4  A    between atoms: C_15  and  C_16 
ROOT
ATOM      1  N   UNN dAMED       2.817  -1.120   0.124  0.00  0.00    -0.250 NA
ATOM      2  C   UNN dAMED       3.681   1.067  -0.120  0.00  0.00     0.019 A 
ATOM      3  C   UNN dAMED       2.601   0.201  -0.027  0.00  0.00     0.083 A 
ATOM      4  C   UNN dAMED       3.513   2.442  -0.285  0.00  0.00     0.002 A 
ATOM      5  C   UNN dAMED       1.306   0.747  -0.108  0.00  0.00     0.041 A 
ATOM      6  C   UNN dAMED       2.235   2.979  -0.356  0.00  0.00     0.000 A 
ATOM      7  C   UNN dAMED       0.233  -0.145  -0.032  0.00  0.00     0.103 A 
ATOM      8  C   UNN dAMED       1.747  -1.948   0.200  0.00  0.00     0.061 A 
ATOM      9  C   UNN dAMED       0.439  -1.506   0.127  0.00  0.00     0.039 A 
ATOM     10  C   UNN dAMED       1.135   2.133  -0.268  0.00  0.00     0.004 A 
ATOM     11  C   UNN dAMED       1.994  -3.428   0.315  0.00  0.00     0.052 C 
ENDROOT
BRANCH   7  12
ATOM     12  O   UNN dAMED      -1.060   0.290  -0.144  0.00  0.00    -0.303 OA
BRANCH  12  13
ATOM     13  C   UNN dAMED      -1.006   1.669   0.119  0.00  0.00     0.141 C 
BRANCH  13  14
ATOM     14  C   UNN dAMED      -2.228   2.599  -0.098  0.00  0.00     0.099 C 
BRANCH  14  15
ATOM     15  N   UNN dAMED      -3.576   2.141  -0.077  0.00  0.00    -0.342 N 
ATOM     16  C   UNN dAMED      -4.279   2.323   1.177  0.00  0.00     0.126 A 
ATOM     17  C   UNN dAMED      -4.915   1.686  -0.056  0.00  0.00     0.126 A 
ENDBRANCH  14  15
ENDBRANCH  13  14
ENDBRANCH  12  13
ENDBRANCH   7  12
TORSDOF 4
