REMARK  4 active torsions:
REMARK  status: ('A' for Active; 'I' for Inactive)
REMARK    1  A    between atoms: C_3  and  N_8 
REMARK       I    between atoms: N_8  and  C_9 
REMARK    2  A    between atoms: C_9  and  O_11 
REMARK    3  A    between atoms: O_11  and  C_12 
REMARK    4  A    between atoms: C_12  and  C_14 
ROOT
ATOM      1  N   UNN dAMED      -0.364  -1.726  -0.029  0.00  0.00    -0.186 NA
ATOM      2  C   UNN dAMED       0.317  -1.758   1.114  0.00  0.00     0.388 C 
ATOM      3  O   UNN dAMED      -0.101  -1.936   2.255  0.00  0.00    -0.236 OA
ENDROOT
BRANCH   1   4
ATOM      4  C   UNN dAMED      -1.499  -0.993  -0.006  0.00  0.00     0.087 A 
ATOM      5  C   UNN dAMED      -2.665  -1.519  -0.583  0.00  0.00     0.019 A 
ATOM      6  C   UNN dAMED      -3.831  -0.762  -0.715  0.00  0.00     0.002 A 
ATOM      7  C   UNN dAMED      -3.853   0.554  -0.270  0.00  0.00     0.011 A 
ATOM      8  C   UNN dAMED      -2.716   1.093   0.317  0.00  0.00     0.059 A 
ATOM      9 CL   UNN dAMED      -2.741   2.714   0.878  0.00  0.00    -0.082 Cl
ATOM     10  C   UNN dAMED      -1.550   0.338   0.433  0.00  0.00     0.031 A 
ENDBRANCH   1   4
BRANCH   2  11
ATOM     11  O   UNN dAMED       1.654  -1.642   0.864  0.00  0.00    -0.275 OA
BRANCH  11  12
ATOM     12  C   UNN dAMED       2.261  -1.775   2.117  0.00  0.00     0.212 C 
ATOM     13  C   UNN dAMED       1.379  -1.788   3.368  0.00  0.00     0.045 C 
BRANCH  12  14
ATOM     14  C   UNN dAMED       3.738  -2.067   2.251  0.00  0.00     0.214 C 
ATOM     15  O   UNN dAMED       4.219  -1.975   3.420  0.00  0.00    -0.646 OA
ATOM     16  O   UNN dAMED       4.358  -2.425   1.204  0.00  0.00    -0.646 OA
ENDBRANCH  12  14
ENDBRANCH  11  12
ENDBRANCH   2  11
TORSDOF 4
