REMARK  1 active torsions:
REMARK  status: ('A' for Active; 'I' for Inactive)
REMARK    1  A    between atoms: C_2  and  C_20 
ROOT
ATOM      1  N   UNN dAMED      -0.179  -0.424   0.269  0.00  0.00    -0.209 NA
ATOM      2  C   UNN dAMED       0.629   1.555   0.716  0.00  0.00     0.065 C 
ATOM      3  C   UNN dAMED       0.960   0.317   0.176  0.00  0.00     0.048 C 
ATOM      4  C   UNN dAMED      -0.781   1.551   0.947  0.00  0.00     0.017 C 
ATOM      5  C   UNN dAMED      -1.283   0.330   0.540  0.00  0.00     0.044 C 
ATOM      6  C   UNN dAMED       2.205  -0.237  -0.318  0.00  0.00     0.011 A 
ATOM      7  C   UNN dAMED       2.694   0.143  -1.569  0.00  0.00     0.001 A 
ATOM      8  C   UNN dAMED       3.892  -0.387  -2.044  0.00  0.00     0.000 A 
ATOM      9  C   UNN dAMED       4.600  -1.306  -1.274  0.00  0.00     0.000 A 
ATOM     10  C   UNN dAMED       2.923  -1.154   0.453  0.00  0.00     0.001 A 
ATOM     11  C   UNN dAMED      -2.625  -0.202   0.401  0.00  0.00     0.011 A 
ATOM     12  C   UNN dAMED      -3.743   0.398   0.974  0.00  0.00     0.001 A 
ATOM     13  C   UNN dAMED      -5.004  -0.169   0.784  0.00  0.00     0.000 A 
ATOM     14  C   UNN dAMED      -2.783  -1.357  -0.370  0.00  0.00     0.002 A 
ATOM     15  C   UNN dAMED      -5.149  -1.326   0.017  0.00  0.00     0.000 A 
ATOM     16  C   UNN dAMED       4.116  -1.691  -0.026  0.00  0.00     0.000 A 
ATOM     17  C   UNN dAMED      -4.037  -1.922  -0.571  0.00  0.00     0.000 A 
ATOM     18  C   UNN dAMED      -1.559  -1.846  -1.094  0.00  0.00     0.013 C 
ATOM     19  C   UNN dAMED      -0.392  -1.222  -0.896  0.00  0.00     0.055 C 
ENDROOT
BRANCH   2  20
ATOM     20  C   UNN dAMED       1.513   2.675   0.943  0.00  0.00     0.267 C 
ATOM     21  O   UNN dAMED       2.721   2.650   0.751  0.00  0.00    -0.271 OA
ATOM     22  N   UNN dAMED       0.938   3.876   1.450  0.00  0.00    -0.057 NA
ENDBRANCH   2  20
TORSDOF 1
