REMARK  5 active torsions:
REMARK  status: ('A' for Active; 'I' for Inactive)
REMARK    1  A    between atoms: C_6  and  C_11 
REMARK    2  A    between atoms: C_8  and  S_9 
REMARK    3  A    between atoms: C_11  and  C_12 
REMARK    4  A    between atoms: C_12  and  O_13 
REMARK    5  A    between atoms: O_13  and  C_14 
ROOT
ATOM      1  N   UNN dAMED       2.040   0.747   0.563  0.00  0.00    -0.185 NA
ATOM      2  N   UNN dAMED       0.587  -0.792  -0.503  0.00  0.00    -0.302 N 
ATOM      3  O   UNN dAMED       1.032   2.468   1.727  0.00  0.00    -0.265 OA
ATOM      4  H   UNN dAMED       0.480  -1.613  -1.089  0.00  0.00     0.171 HD
ATOM      5  C   UNN dAMED       0.945   1.454   1.038  0.00  0.00     0.281 A 
ATOM      6  C   UNN dAMED      -0.421   0.946   0.681  0.00  0.00     0.094 A 
ATOM      7  C   UNN dAMED      -0.563  -0.159  -0.078  0.00  0.00     0.260 A 
ATOM      8  C   UNN dAMED       1.825  -0.307  -0.166  0.00  0.00     0.173 A 
ATOM      9  O   UNN dAMED      -1.598  -0.746  -0.483  0.00  0.00    -0.267 OA
ENDROOT
BRANCH   6  10
ATOM     10  C   UNN dAMED      -1.636   1.653   1.214  0.00  0.00     0.068 C 
BRANCH  10  11
ATOM     11  C   UNN dAMED      -1.589   3.163   1.475  0.00  0.00     0.147 C 
BRANCH  11  12
ATOM     12  O   UNN dAMED      -2.800   3.889   1.862  0.00  0.00    -0.354 OA
BRANCH  12  13
ATOM     13  C   UNN dAMED      -1.591   3.158   1.484  0.00  0.00     0.142 C 
ATOM     14  C   UNN dAMED      -1.019   2.099   2.435  0.00  0.00     0.035 C 
ENDBRANCH  12  13
ENDBRANCH  11  12
ENDBRANCH  10  11
ENDBRANCH   6  10
BRANCH   8  15
ATOM     15  S   UNN dAMED       3.206  -1.190  -0.796  0.00  0.00    -0.076 SA
ATOM     16  C   UNN dAMED       2.227  -2.549  -1.425  0.00  0.00     0.077 C 
ENDBRANCH   8  15
TORSDOF 5
