REMARK  6 active torsions:
REMARK  status: ('A' for Active; 'I' for Inactive)
REMARK    1  A    between atoms: C_8  and  C_23 
REMARK    2  A    between atoms: C_9  and  C_20 
REMARK    3  A    between atoms: N_16  and  C_21 
REMARK    4  A    between atoms: N_18  and  C_22 
REMARK    5  A    between atoms: C_20  and  C_21 
REMARK    6  A    between atoms: C_22  and  C_23 
ROOT
ATOM      1  C   UNN dAMED       3.716   3.669  -2.008  0.00  0.00     0.146 C 
ATOM      2  C   UNN dAMED       5.973   3.398  -3.071  0.00  0.00     0.317 C 
ATOM      3  C   UNN dAMED       5.566   2.804  -2.687  0.00  0.00     0.363 C 
ATOM      4  N   UNN dAMED       6.930   2.783  -1.831  0.00  0.00     0.172 N 
ATOM      5  S   UNN dAMED       4.839   4.772  -2.750  0.00  0.00    -0.051 SA
ATOM      6  N   UNN dAMED       4.334   2.453  -2.088  0.00  0.00    -0.288 N 
ATOM      7  S   UNN dAMED       2.234   3.989  -1.360  0.00  0.00    -0.052 SA
ENDROOT
BRANCH   4   8
ATOM      8  C   UNN dAMED       6.009   3.352  -3.068  0.00  0.00     0.259 C 
BRANCH   8   9
ATOM      9  C   UNN dAMED       6.643   4.244  -4.141  0.00  0.00     0.062 C 
BRANCH   9  10
ATOM     10  C   UNN dAMED       7.112   3.652  -5.439  0.00  0.00    -0.020 A 
ATOM     11  C   UNN dAMED       8.473   3.501  -5.673  0.00  0.00    -0.004 A 
ATOM     12  C   UNN dAMED       8.921   3.159  -6.944  0.00  0.00    -0.000 A 
ATOM     13  C   UNN dAMED       8.007   2.973  -7.976  0.00  0.00    -0.000 A 
ATOM     14  C   UNN dAMED       6.639   3.111  -7.738  0.00  0.00    -0.000 A 
ATOM     15  C   UNN dAMED       6.194   3.455  -6.467  0.00  0.00    -0.004 A 
ENDBRANCH   9  10
ENDBRANCH   8   9
ENDBRANCH   4   8
BRANCH   6  16
ATOM     16  C   UNN dAMED       3.459   1.535  -1.475  0.00  0.00     0.056 C 
BRANCH  16  17
ATOM     17  C   UNN dAMED       3.628   0.031  -1.701  0.00  0.00     0.071 C 
BRANCH  17  18
ATOM     18  C   UNN dAMED       3.801  -0.885  -0.524  0.00  0.00    -0.016 A 
ATOM     19  C   UNN dAMED       2.788  -1.770  -0.174  0.00  0.00    -0.004 A 
ATOM     20  C   UNN dAMED       2.958  -2.631   0.912  0.00  0.00    -0.000 A 
ATOM     21  C   UNN dAMED       4.143  -2.605   1.642  0.00  0.00    -0.000 A 
ATOM     22  C   UNN dAMED       5.159  -1.717   1.290  0.00  0.00    -0.000 A 
ATOM     23  C   UNN dAMED       4.986  -0.858   0.205  0.00  0.00    -0.004 A 
ENDBRANCH  17  18
ENDBRANCH  16  17
ENDBRANCH   6  16
TORSDOF 6
