REMARK  0 active torsions:
REMARK  status: ('A' for Active; 'I' for Inactive)
ROOT
ATOM      1  C   UNN dAMED      -0.680   0.315   1.196  0.00  0.00     0.018 A 
ATOM      2  C   UNN dAMED      -3.276   0.179   1.093  0.00  0.00     0.002 A 
ATOM      3  C   UNN dAMED       0.292   0.083   0.241  0.00  0.00     0.057 A 
ATOM      4  C   UNN dAMED      -1.956   0.097   0.616  0.00  0.00     0.017 A 
ATOM      5  C   UNN dAMED      -4.328  -0.110   0.220  0.00  0.00     0.000 A 
ATOM      6  C   UNN dAMED      -1.737  -0.270  -0.710  0.00  0.00     0.057 A 
ATOM      7  C   UNN dAMED      -4.080  -0.474  -1.100  0.00  0.00     0.002 A 
ATOM      8  C   UNN dAMED      -2.778  -0.563  -1.598  0.00  0.00     0.017 A 
ATOM      9  N   UNN dAMED      -0.374  -0.276  -0.911  0.00  0.00    -0.353 N 
ATOM     10  H   UNN dAMED       0.069  -0.505  -1.790  0.00  0.00     0.166 HD
ATOM     11  C   UNN dAMED       1.743   0.162   0.342  0.00  0.00     0.016 A 
ATOM     12  C   UNN dAMED       2.409  -0.479   1.390  0.00  0.00     0.001 A 
ATOM     13  C   UNN dAMED       3.798  -0.402   1.503  0.00  0.00     0.000 A 
ATOM     14  C   UNN dAMED       4.534   0.318   0.566  0.00  0.00     0.000 A 
ATOM     15  C   UNN dAMED       3.880   0.962  -0.481  0.00  0.00     0.000 A 
ATOM     16  C   UNN dAMED       2.490   0.889  -0.589  0.00  0.00     0.001 A 
ENDROOT
TORSDOF 0
