REMARK  1 active torsions:
REMARK  status: ('A' for Active; 'I' for Inactive)
REMARK    1  A    between atoms: C_13  and  N_16 
ROOT
ATOM      1  C   UNN dAMED      -4.373  -0.314   0.441  0.00  0.00     0.020 C 
ATOM      2  C   UNN dAMED      -3.788   1.081   0.370  0.00  0.00     0.089 C 
ATOM      3  C   UNN dAMED      -2.286   1.178   0.387  0.00  0.00     0.243 C 
ATOM      4  N   UNN dAMED      -1.533   0.054   0.007  0.00  0.00    -0.248 N 
ATOM      5  C   UNN dAMED      -2.096  -1.179  -0.363  0.00  0.00     0.243 C 
ATOM      6  C   UNN dAMED      -3.596  -1.304  -0.400  0.00  0.00     0.089 C 
ATOM      7  O   UNN dAMED      -1.819   2.273   0.688  0.00  0.00    -0.272 OA
ATOM      8  O   UNN dAMED      -1.463  -2.165  -0.729  0.00  0.00    -0.272 OA
ATOM      9  C   UNN dAMED      -0.120   0.150   0.063  0.00  0.00     0.082 A 
ATOM     10  C   UNN dAMED       0.526  -0.048   1.287  0.00  0.00     0.088 A 
ATOM     11  N   UNN dAMED      -0.240  -0.313   2.456  0.00  0.00    -0.099 NA
ATOM     12  C   UNN dAMED       1.912   0.036   1.365  0.00  0.00     0.039 A 
ATOM     13  C   UNN dAMED       2.635   0.318   0.208  0.00  0.00     0.128 A 
ATOM     14  C   UNN dAMED       2.004   0.521  -1.020  0.00  0.00     0.025 A 
ATOM     15  C   UNN dAMED       0.614   0.435  -1.091  0.00  0.00     0.021 A 
ENDROOT
BRANCH  13  16
ATOM     16  N   UNN dAMED       4.081   0.410   0.290  0.00  0.00    -0.114 N 
ATOM     17  O   UNN dAMED       4.594   0.371   1.417  0.00  0.00    -0.532 OA
ATOM     18  O   UNN dAMED       4.713   0.520  -0.770  0.00  0.00    -0.532 OA
ENDBRANCH  13  16
TORSDOF 1
