REMARK  1 active torsions:
REMARK  status: ('A' for Active; 'I' for Inactive)
REMARK    1  A    between atoms: C_2  and  N_17 
ROOT
ATOM      1  C   UNN dAMED       2.289   1.068  -0.022  0.00  0.00     0.025 A 
ATOM      2  C   UNN dAMED       3.403   0.238   0.001  0.00  0.00     0.057 A 
ATOM      3  C   UNN dAMED       3.212  -1.136   0.048  0.00  0.00     0.018 A 
ATOM      4  C   UNN dAMED       1.918  -1.657   0.069  0.00  0.00     0.021 A 
ATOM      5  C   UNN dAMED       0.790  -0.853   0.045  0.00  0.00     0.087 A 
ATOM      6  C   UNN dAMED       0.995   0.534  -0.001  0.00  0.00     0.049 A 
ATOM      7  S   UNN dAMED      -0.282   1.684  -0.032  0.00  0.00    -0.084 SA
ATOM      8  C   UNN dAMED      -1.640   0.630  -0.015  0.00  0.00     0.048 A 
ATOM      9  C   UNN dAMED      -1.537  -0.769   0.032  0.00  0.00     0.087 A 
ATOM     10  N   UNN dAMED      -0.397  -1.466   0.063  0.00  0.00    -0.245 NA
ATOM     11  C   UNN dAMED      -2.890   1.259  -0.049  0.00  0.00     0.022 A 
ATOM     12  C   UNN dAMED      -4.056   0.506  -0.038  0.00  0.00     0.067 A 
ATOM     13  C   UNN dAMED      -3.971  -0.876   0.009  0.00  0.00    -0.007 A 
ATOM     14  C   UNN dAMED      -2.719  -1.491   0.044  0.00  0.00     0.016 A 
ATOM     15  N   UNN dAMED      -5.326   1.147  -0.077  0.00  0.00    -0.101 NA
ATOM     16  C   UNN dAMED      -5.219  -1.711   0.019  0.00  0.00     0.032 C 
ENDROOT
BRANCH   2  17
ATOM     17  N   UNN dAMED       4.699   0.779  -0.024  0.00  0.00    -0.344 N 
ATOM     18  C   UNN dAMED       4.880   2.218  -0.022  0.00  0.00     0.126 C 
ATOM     19  C   UNN dAMED       5.849  -0.103  -0.051  0.00  0.00     0.126 C 
ENDBRANCH   2  17
TORSDOF 1
