REMARK  1 active torsions:
REMARK  status: ('A' for Active; 'I' for Inactive)
REMARK    1  A    between atoms: C_11  and  C_18 
ROOT
ATOM      1  N   UNN dAMED      -3.624  -1.408  -0.153  0.00  0.00    -0.208 NA
ATOM      2  N   UNN dAMED      -1.505  -1.237   1.042  0.00  0.00    -0.210 NA
ATOM      3  N   UNN dAMED      -1.982   1.868  -0.650  0.00  0.00    -0.226 NA
ATOM      4  N   UNN dAMED      -0.502   0.951   0.725  0.00  0.00    -0.155 NA
ATOM      5  O   UNN dAMED       1.959   0.798   0.973  0.00  0.00    -0.316 OA
ATOM      6  C   UNN dAMED      -3.510  -0.147  -0.640  0.00  0.00     0.173 A 
ATOM      7  C   UNN dAMED      -2.388   0.604  -0.299  0.00  0.00     0.143 A 
ATOM      8  C   UNN dAMED      -1.458   0.002   0.533  0.00  0.00     0.152 A 
ATOM      9  C   UNN dAMED      -0.804   2.019  -0.075  0.00  0.00     0.160 A 
ATOM     10  C   UNN dAMED      -2.629  -1.870   0.643  0.00  0.00     0.201 A 
ATOM     11  C   UNN dAMED       2.889  -0.125   0.419  0.00  0.00     0.191 C 
ATOM     12  C   UNN dAMED       2.281  -1.253  -0.407  0.00  0.00     0.220 C 
ATOM     13  C   UNN dAMED       0.825  -0.895  -0.457  0.00  0.00     0.114 C 
ATOM     14  C   UNN dAMED       0.753   0.413   0.322  0.00  0.00     0.156 C 
ATOM     15  N   UNN dAMED      -4.504   0.385  -1.508  0.00  0.00    -0.078 NA
ATOM     16  N   UNN dAMED       0.056  -1.080  -1.676  0.00  0.00    -0.099 NA
ATOM     17  O   UNN dAMED       2.916  -1.718  -1.524  0.00  0.00    -0.215 OA
ENDROOT
BRANCH  11  18
ATOM     18  C   UNN dAMED       4.340  -0.184   0.912  0.00  0.00     0.215 C 
ATOM     19  O   UNN dAMED       4.691  -1.033   1.926  0.00  0.00    -0.218 OA
ENDBRANCH  11  18
TORSDOF 1
