REMARK  6 active torsions:
REMARK  status: ('A' for Active; 'I' for Inactive)
REMARK    1  A    between atoms: C_3  and  N_28 
REMARK    2  A    between atoms: C_5  and  N_9 
REMARK       I    between atoms: C_7  and  N_9 
REMARK    3  A    between atoms: C_7  and  C_10 
REMARK    4  A    between atoms: C_14  and  C_16 
REMARK       I    between atoms: C_16  and  N_18 
REMARK    5  A    between atoms: N_18  and  C_19 
REMARK    6  A    between atoms: C_21  and  N_25 
ROOT
ATOM      1  C   UNN dAMED       1.191  -1.108  -0.764  0.00  0.00     0.058 A 
ATOM      2  C   UNN dAMED       0.172  -0.695   0.098  0.00  0.00     0.005 A 
ATOM      3  C   UNN dAMED      -1.146  -1.067  -0.160  0.00  0.00     0.000 A 
ATOM      4  C   UNN dAMED      -1.455  -1.798  -1.305  0.00  0.00     0.005 A 
ATOM      5  C   UNN dAMED      -0.430  -2.203  -2.161  0.00  0.00     0.058 A 
ATOM      6  C   UNN dAMED       0.899  -1.855  -1.906  0.00  0.00     0.010 A 
ENDROOT
BRANCH   1   7
ATOM      7  C   UNN dAMED       2.530  -0.510  -0.615  0.00  0.00     0.279 C 
ATOM      8  O   UNN dAMED       2.852   0.310  -1.475  0.00  0.00    -0.265 OA
ATOM      9  N   UNN dAMED       3.160  -0.855   0.515  0.00  0.00    -0.208 NA
BRANCH   9  10
ATOM     10  C   UNN dAMED       4.486  -0.587   0.546  0.00  0.00     0.086 A 
ATOM     11  C   UNN dAMED       4.995   0.717   0.460  0.00  0.00     0.043 A 
ATOM     12  C   UNN dAMED       6.365   0.938   0.564  0.00  0.00     0.128 A 
ATOM     13  C   UNN dAMED       7.278  -0.080   0.793  0.00  0.00     0.024 A 
ATOM     14  C   UNN dAMED       6.782  -1.371   0.922  0.00  0.00     0.003 A 
ATOM     15  C   UNN dAMED       5.409  -1.616   0.795  0.00  0.00     0.019 A 
BRANCH  12  16
ATOM     16  N   UNN dAMED       6.856   2.265   0.335  0.00  0.00    -0.114 N 
ATOM     17  O   UNN dAMED       7.164   2.553  -0.829  0.00  0.00    -0.532 OA
ATOM     18  O   UNN dAMED       6.927   3.014   1.316  0.00  0.00    -0.532 OA
ENDBRANCH  12  16
ENDBRANCH   9  10
ENDBRANCH   1   7
BRANCH   5  19
ATOM     19  C   UNN dAMED      -0.767  -2.902  -3.416  0.00  0.00     0.279 C 
ATOM     20  O   UNN dAMED      -0.435  -2.355  -4.465  0.00  0.00    -0.265 OA
ATOM     21  N   UNN dAMED      -1.296  -4.116  -3.225  0.00  0.00    -0.208 NA
BRANCH  21  22
ATOM     22  C   UNN dAMED      -2.131  -4.539  -4.201  0.00  0.00     0.086 A 
ATOM     23  C   UNN dAMED      -1.643  -4.979  -5.437  0.00  0.00     0.043 A 
ATOM     24  C   UNN dAMED      -2.494  -5.604  -6.345  0.00  0.00     0.128 A 
ATOM     25  C   UNN dAMED      -3.832  -5.849  -6.072  0.00  0.00     0.024 A 
ATOM     26  C   UNN dAMED      -4.335  -5.403  -4.856  0.00  0.00     0.003 A 
ATOM     27  C   UNN dAMED      -3.492  -4.764  -3.935  0.00  0.00     0.019 A 
BRANCH  24  28
ATOM     28  N   UNN dAMED      -1.938  -6.080  -7.579  0.00  0.00    -0.114 N 
ATOM     29  O   UNN dAMED      -1.076  -6.965  -7.503  0.00  0.00    -0.532 OA
ATOM     30  O   UNN dAMED      -2.357  -5.562  -8.622  0.00  0.00    -0.532 OA
ENDBRANCH  24  28
ENDBRANCH  21  22
ENDBRANCH   5  19
TORSDOF 6
