REMARK  4 active torsions:
REMARK  status: ('A' for Active; 'I' for Inactive)
REMARK    1  A    between atoms: C_3  and  O_11 
REMARK    2  A    between atoms: C_7  and  C_13 
REMARK    3  A    between atoms: C_13  and  C_18 
REMARK    4  A    between atoms: C_14  and  C_20 
ROOT
ATOM      1  C   UNN dAMED      -3.651  -0.464   1.312  0.00  0.00     0.021 A 
ATOM      2  C   UNN dAMED      -3.351  -1.774   0.944  0.00  0.00     0.026 A 
ATOM      3  C   UNN dAMED      -2.065  -2.079   0.523  0.00  0.00     0.094 A 
ATOM      4  C   UNN dAMED      -1.081  -1.103   0.471  0.00  0.00     0.026 A 
ATOM      5  C   UNN dAMED      -1.395   0.205   0.846  0.00  0.00     0.022 A 
ATOM      6  C   UNN dAMED      -2.698   0.546   1.261  0.00  0.00     0.082 A 
ATOM      7  C   UNN dAMED      -0.422   1.203   0.797  0.00  0.00     0.029 A 
ATOM      8  C   UNN dAMED      -0.763   2.510   1.120  0.00  0.00     0.023 A 
ATOM      9  C   UNN dAMED      -2.066   2.754   1.511  0.00  0.00     0.099 A 
ATOM     10  N   UNN dAMED      -3.030   1.806   1.589  0.00  0.00    -0.244 NA
ENDROOT
BRANCH   7  11
ATOM     11  C   UNN dAMED       0.943   0.889   0.226  0.00  0.00     0.137 C 
ATOM     12  O   UNN dAMED       2.029   0.724   1.050  0.00  0.00    -0.190 OA
BRANCH  11  13
ATOM     13  C   UNN dAMED       1.031   0.447  -1.240  0.00  0.00     0.040 C 
ATOM     14  N   UNN dAMED       1.087   1.498  -2.290  0.00  0.00    -0.251 NA
ATOM     15  C   UNN dAMED      -0.366   1.805  -2.251  0.00  0.00     0.099 C 
ATOM     16  C   UNN dAMED       1.327   0.879  -3.607  0.00  0.00     0.077 C 
ATOM     17  C   UNN dAMED      -1.333   0.669  -2.606  0.00  0.00    -0.028 C 
ATOM     18  C   UNN dAMED      -0.530  -0.586  -2.864  0.00  0.00     0.026 C 
ATOM     19  C   UNN dAMED       0.288  -0.840  -1.621  0.00  0.00     0.044 C 
ATOM     20  C   UNN dAMED       0.432  -0.301  -3.995  0.00  0.00     0.022 C 
BRANCH  17  21
ATOM     21  C   UNN dAMED      -2.670   0.577  -1.863  0.00  0.00    -0.007 C 
ATOM     22  C   UNN dAMED      -2.686   0.475  -0.536  0.00  0.00    -0.001 C 
ENDBRANCH  17  21
ENDBRANCH  11  13
ENDBRANCH   7  11
BRANCH   3  23
ATOM     23  O   UNN dAMED      -1.774  -3.348   0.125  0.00  0.00    -0.328 OA
ATOM     24  C   UNN dAMED      -1.699  -4.094   1.304  0.00  0.00     0.181 C 
ENDBRANCH   3  23
TORSDOF 4
