REMARK  3 active torsions:
REMARK  status: ('A' for Active; 'I' for Inactive)
REMARK    1  A    between atoms: N_5  and  C_6 
REMARK    2  A    between atoms: C_6  and  C_8 
REMARK    3  A    between atoms: C_6  and  C_14 
ROOT
ATOM      1  C   UNN dAMED      -0.022  -0.350   0.566  0.00  0.00     0.162 C 
ATOM      2  C   UNN dAMED       1.253  -0.349   1.353  0.00  0.00    -0.050 C 
ATOM      3  C   UNN dAMED       2.278  -0.352   1.981  0.00  0.00    -0.012 C 
ENDROOT
BRANCH   1   4
ATOM      4  N   UNN dAMED      -0.199  -1.693  -0.036  0.00  0.00    -0.294 N 
ATOM      5  C   UNN dAMED      -1.378  -2.368  -0.226  0.00  0.00     0.099 A 
ATOM      6  C   UNN dAMED      -1.023  -3.537  -0.861  0.00  0.00     0.119 A 
ATOM      7  N   UNN dAMED       0.329  -3.587  -1.084  0.00  0.00    -0.222 NA
ATOM      8  C   UNN dAMED       0.796  -2.463  -0.590  0.00  0.00     0.180 A 
ENDBRANCH   1   4
BRANCH   1   9
ATOM      9  C   UNN dAMED       0.082   0.709  -0.550  0.00  0.00     0.012 A 
ATOM     10  C   UNN dAMED      -0.449   0.493  -1.829  0.00  0.00    -0.001 A 
ATOM     11  C   UNN dAMED      -0.390   1.478  -2.813  0.00  0.00    -0.000 A 
ATOM     12  C   UNN dAMED       0.193   2.708  -2.529  0.00  0.00    -0.000 A 
ATOM     13  C   UNN dAMED       0.713   2.954  -1.263  0.00  0.00    -0.000 A 
ATOM     14  C   UNN dAMED       0.651   1.965  -0.284  0.00  0.00    -0.001 A 
ENDBRANCH   1   9
BRANCH   1  15
ATOM     15  C   UNN dAMED      -1.201  -0.065   1.517  0.00  0.00     0.012 A 
ATOM     16  C   UNN dAMED      -1.244  -0.639   2.797  0.00  0.00    -0.001 A 
ATOM     17  C   UNN dAMED      -2.325  -0.424   3.649  0.00  0.00    -0.000 A 
ATOM     18  C   UNN dAMED      -3.393   0.363   3.230  0.00  0.00    -0.000 A 
ATOM     19  C   UNN dAMED      -3.379   0.933   1.961  0.00  0.00    -0.000 A 
ATOM     20  C   UNN dAMED      -2.295   0.715   1.114  0.00  0.00    -0.001 A 
ENDBRANCH   1  15
TORSDOF 3
