REMARK  4 active torsions:
REMARK  status: ('A' for Active; 'I' for Inactive)
REMARK    1  A    between atoms: C_6  and  N_23 
REMARK       I    between atoms: C_8  and  N_23 
REMARK       I    between atoms: C_8  and  N_24 
REMARK    2  A    between atoms: C_9  and  N_24 
REMARK    3  A    between atoms: C_12  and  N_25 
REMARK       I    between atoms: C_15  and  N_25 
REMARK       I    between atoms: C_15  and  N_27 
REMARK    4  A    between atoms: C_17  and  N_27 
ROOT
ATOM      1  C   UNN dAMED      -1.277   0.327   0.369  0.00  0.00     0.088 A 
ATOM      2  C   UNN dAMED      -0.797   0.383  -0.955  0.00  0.00     0.038 A 
ATOM      3  C   UNN dAMED      -0.452  -0.281   1.319  0.00  0.00     0.019 A 
ATOM      4  C   UNN dAMED       0.441  -0.149  -1.364  0.00  0.00     0.084 A 
ATOM      5  C   UNN dAMED       0.790  -0.801   0.968  0.00  0.00    -0.001 A 
ATOM      6  C   UNN dAMED       1.220  -0.739  -0.356  0.00  0.00    -0.004 A 
ATOM      7  C   UNN dAMED       2.524  -1.393  -0.717  0.00  0.00     0.033 C 
ENDROOT
BRANCH   1   8
ATOM      8  N   UNN dAMED      -2.388   0.996   0.753  0.00  0.00    -0.191 NA
ATOM      9  C   UNN dAMED      -3.572   0.363   0.548  0.00  0.00     0.369 C 
ATOM     10  O   UNN dAMED      -3.766  -0.574  -0.228  0.00  0.00    -0.242 OA
ATOM     11  N   UNN dAMED      -4.515   0.984   1.306  0.00  0.00    -0.189 NA
BRANCH  11  12
ATOM     12  C   UNN dAMED      -5.790   0.600   1.080  0.00  0.00     0.105 A 
ATOM     13  C   UNN dAMED      -6.394  -0.417   1.822  0.00  0.00     0.022 A 
ATOM     14  C   UNN dAMED      -7.742  -0.730   1.666  0.00  0.00     0.022 A 
ATOM     15  C   UNN dAMED      -8.471   0.021   0.763  0.00  0.00     0.099 A 
ATOM     16  N   UNN dAMED      -7.950   1.023   0.025  0.00  0.00    -0.241 NA
ATOM     17  C   UNN dAMED      -6.634   1.286   0.211  0.00  0.00     0.118 A 
ENDBRANCH  11  12
ENDBRANCH   1   8
BRANCH   4  18
ATOM     18  N   UNN dAMED       0.747  -0.183  -2.689  0.00  0.00    -0.191 NA
ATOM     19  C   UNN dAMED       2.057  -0.052  -3.014  0.00  0.00     0.369 C 
ATOM     20  O   UNN dAMED       2.960  -0.773  -2.590  0.00  0.00    -0.242 OA
ATOM     21  N   UNN dAMED       2.199   0.931  -3.938  0.00  0.00    -0.189 NA
BRANCH  21  22
ATOM     22  C   UNN dAMED       3.300   0.813  -4.716  0.00  0.00     0.105 A 
ATOM     23  C   UNN dAMED       3.296   0.116  -5.927  0.00  0.00     0.022 A 
ATOM     24  C   UNN dAMED       4.421   0.082  -6.748  0.00  0.00     0.022 A 
ATOM     25  C   UNN dAMED       5.544   0.772  -6.327  0.00  0.00     0.099 A 
ATOM     26  N   UNN dAMED       5.607   1.471  -5.175  0.00  0.00    -0.241 NA
ATOM     27  C   UNN dAMED       4.486   1.477  -4.415  0.00  0.00     0.118 A 
ENDBRANCH  21  22
ENDBRANCH   4  18
TORSDOF 4
