REMARK  4 active torsions:
REMARK  status: ('A' for Active; 'I' for Inactive)
REMARK    1  A    between atoms: C_3  and  O_11 
REMARK    2  A    between atoms: C_6  and  O_7 
REMARK    3  A    between atoms: O_7  and  C_8 
REMARK    4  A    between atoms: O_11  and  C_12 
ROOT
ATOM      1  O   UNN dAMED       0.034  -1.786   1.379  0.00  0.00    -0.323 OA
ATOM      2  O   UNN dAMED      -0.304   0.911  -0.514  0.00  0.00    -0.323 OA
ATOM      3  C   UNN dAMED       0.959  -0.815   0.915  0.00  0.00     0.273 C 
ATOM      4  C   UNN dAMED       0.457   0.612   0.639  0.00  0.00     0.207 C 
ATOM      5  C   UNN dAMED      -0.784  -0.638   1.417  0.00  0.00     0.207 C 
ATOM      6  C   UNN dAMED      -1.207   0.024   0.106  0.00  0.00     0.273 C 
ENDROOT
BRANCH   3   7
ATOM      7  O   UNN dAMED       2.329  -0.990   1.162  0.00  0.00    -0.273 OA
BRANCH   7   8
ATOM      8  C   UNN dAMED       2.674  -2.180   0.600  0.00  0.00     0.274 C 
ATOM      9  O   UNN dAMED       3.809  -2.431   0.217  0.00  0.00    -0.264 OA
ATOM     10  C   UNN dAMED       1.663  -3.294   0.620  0.00  0.00     0.106 C 
ENDBRANCH   7   8
ENDBRANCH   3   7
BRANCH   6  11
ATOM     11  O   UNN dAMED      -2.164  -0.618  -0.684  0.00  0.00    -0.273 OA
BRANCH  11  12
ATOM     12  C   UNN dAMED      -3.333  -0.481  -0.006  0.00  0.00     0.274 C 
ATOM     13  O   UNN dAMED      -4.363  -1.052  -0.341  0.00  0.00    -0.264 OA
ATOM     14  C   UNN dAMED      -3.379   0.460   1.165  0.00  0.00     0.106 C 
ENDBRANCH  11  12
ENDBRANCH   6  11
TORSDOF 4
