REMARK  0 active torsions:
REMARK  status: ('A' for Active; 'I' for Inactive)
ROOT
ATOM      1  H   UNN dAMED      -3.243   0.596  -0.254  0.00  0.00     0.171 HD
ATOM      2  N   UNN dAMED      -2.307   0.294  -0.015  0.00  0.00    -0.304 N 
ATOM      3  C   UNN dAMED      -2.222  -1.156   0.093  0.00  0.00     0.179 C 
ATOM      4  C   UNN dAMED      -1.131   0.951  -0.354  0.00  0.00     0.264 C 
ATOM      5  O   UNN dAMED      -1.092   2.085  -0.821  0.00  0.00    -0.267 OA
ATOM      6  N   UNN dAMED      -1.194  -1.798   0.449  0.00  0.00    -0.207 NA
ATOM      7  C   UNN dAMED       0.056   0.188  -0.054  0.00  0.00     0.120 A 
ATOM      8  C   UNN dAMED      -0.044  -1.118   0.341  0.00  0.00     0.165 A 
ATOM      9  N   UNN dAMED       1.215  -1.573   0.557  0.00  0.00    -0.259 N 
ATOM     10  C   UNN dAMED       1.441   0.433  -0.061  0.00  0.00     0.176 A 
ATOM     11  H   UNN dAMED       1.513  -2.494   0.855  0.00  0.00     0.191 HD
ATOM     12  N   UNN dAMED       2.157  -0.637   0.314  0.00  0.00    -0.161 NA
ATOM     13  C   UNN dAMED       2.139   1.629  -0.390  0.00  0.00     0.122 C 
ATOM     14  N   UNN dAMED       2.708   2.605  -0.657  0.00  0.00    -0.190 NA
ENDROOT
TORSDOF 0
