REMARK  2 active torsions:
REMARK  status: ('A' for Active; 'I' for Inactive)
REMARK    1  A    between atoms: C_12  and  O_17 
REMARK    2  A    between atoms: O_17  and  C_20 
ROOT
ATOM      1  C   UNN dAMED      -1.641  -0.379  -0.339  0.00  0.00     0.037 C 
ATOM      2  C   UNN dAMED      -2.534  -0.201  -1.858  0.00  0.00     0.138 A 
ATOM      3  C   UNN dAMED      -1.295   0.806  -1.452  0.00  0.00     0.145 A 
ATOM      4  O   UNN dAMED      -1.738   0.609  -2.752  0.00  0.00    -0.352 OA
ATOM      5  C   UNN dAMED      -1.627  -0.382  -0.316  0.00  0.00     0.024 C 
ATOM      6  C   UNN dAMED      -1.535   2.134  -0.770  0.00  0.00     0.037 C 
ATOM      7  C   UNN dAMED      -0.304  -1.169  -0.187  0.00  0.00     0.089 A 
ATOM      8  C   UNN dAMED      -1.634   2.115   0.759  0.00  0.00     0.025 C 
ATOM      9  C   UNN dAMED       0.997  -0.526  -0.528  0.00  0.00     0.118 A 
ATOM     10  O   UNN dAMED      -0.238  -2.573  -0.144  0.00  0.00    -0.277 OA
ATOM     11  C   UNN dAMED      -0.734   1.040   1.408  0.00  0.00    -0.042 C 
ATOM     12  C   UNN dAMED       1.470   0.617   0.387  0.00  0.00     0.090 C 
ATOM     13  C   UNN dAMED       1.839  -1.703  -0.798  0.00  0.00     0.053 A 
ATOM     14  C   UNN dAMED       1.039  -2.927  -0.536  0.00  0.00     0.296 A 
ATOM     15  C   UNN dAMED      -1.925   0.317   1.932  0.00  0.00     0.026 C 
ATOM     16  C   UNN dAMED       0.384   1.562   0.926  0.00  0.00     0.013 C 
ATOM     17  C   UNN dAMED       2.992  -1.801  -1.452  0.00  0.00     0.002 C 
ATOM     18  O   UNN dAMED       1.458  -4.064  -0.678  0.00  0.00    -0.259 OA
ENDROOT
BRANCH  12  19
ATOM     19  O   UNN dAMED       2.795   1.069   0.334  0.00  0.00    -0.280 OA
BRANCH  19  20
ATOM     20  C   UNN dAMED       2.936   1.673  -0.873  0.00  0.00     0.276 C 
ATOM     21  C   UNN dAMED       1.773   1.670  -1.823  0.00  0.00     0.107 C 
ATOM     22  O   UNN dAMED       3.992   2.168  -1.243  0.00  0.00    -0.264 OA
ENDBRANCH  19  20
ENDBRANCH  12  19
TORSDOF 2
