REMARK  2 active torsions:
REMARK  status: ('A' for Active; 'I' for Inactive)
REMARK    1  A    between atoms: C_4  and  C_16 
REMARK    2  A    between atoms: C_9  and  C_16 
ROOT
ATOM      1  C   UNN dAMED       1.099   1.939  -0.922  0.00  0.00     0.003 A 
ATOM      2  C   UNN dAMED       1.057   0.933   0.044  0.00  0.00     0.021 A 
ATOM      3  C   UNN dAMED       2.190   2.023  -1.782  0.00  0.00     0.042 A 
ATOM      4  C   UNN dAMED       2.094   0.003   0.199  0.00  0.00     0.195 A 
ATOM      5  C   UNN dAMED       3.272   1.140  -1.723  0.00  0.00     0.199 A 
ATOM      6  C   UNN dAMED       3.158   0.164  -0.712  0.00  0.00     0.084 A 
ATOM      7  O   UNN dAMED       4.269   1.208  -2.510  0.00  0.00    -0.286 OA
ATOM      8  O   UNN dAMED       2.080  -0.911   1.086  0.00  0.00    -0.287 OA
ENDROOT
BRANCH   2   9
ATOM      9  C   UNN dAMED      -0.128   0.861   0.979  0.00  0.00     0.056 C 
BRANCH   9  10
ATOM     10  C   UNN dAMED      -1.489   0.401   0.512  0.00  0.00    -0.018 A 
ATOM     11  C   UNN dAMED      -1.813  -0.955   0.533  0.00  0.00    -0.003 A 
ATOM     12  C   UNN dAMED      -3.066  -1.378   0.098  0.00  0.00     0.011 A 
ATOM     13  C   UNN dAMED      -3.990  -0.440  -0.352  0.00  0.00     0.058 A 
ATOM     14 CL   UNN dAMED      -5.535  -0.959  -0.885  0.00  0.00    -0.082 Cl
ATOM     15  C   UNN dAMED      -3.677   0.916  -0.368  0.00  0.00     0.011 A 
ATOM     16  C   UNN dAMED      -2.423   1.336   0.068  0.00  0.00    -0.003 A 
ENDBRANCH   9  10
ENDBRANCH   2   9
TORSDOF 2
