REMARK  4 active torsions:
REMARK  status: ('A' for Active; 'I' for Inactive)
REMARK    1  A    between atoms: N_15  and  C_23 
REMARK    2  A    between atoms: C_23  and  C_24 
REMARK    3  A    between atoms: C_24  and  C_25 
REMARK    4  A    between atoms: C_25  and  N_26 
ROOT
ATOM      1  C   UNN dAMED       4.696  -0.642   0.144  0.00  0.00     0.000 A 
ATOM      2  C   UNN dAMED       3.983   0.556   0.199  0.00  0.00     0.000 A 
ATOM      3  C   UNN dAMED       2.593   0.548   0.314  0.00  0.00     0.001 A 
ATOM      4  C   UNN dAMED       1.919  -0.666   0.376  0.00  0.00     0.018 A 
ATOM      5  C   UNN dAMED       2.632  -1.873   0.326  0.00  0.00     0.065 A 
ATOM      6  C   UNN dAMED       4.022  -1.861   0.210  0.00  0.00     0.005 A 
ATOM      7  C   UNN dAMED       1.913  -3.182   0.396  0.00  0.00     0.300 A 
ATOM      8  O   UNN dAMED       2.545  -4.232   0.391  0.00  0.00    -0.259 OA
ATOM      9  O   UNN dAMED       0.538  -3.178   0.449  0.00  0.00    -0.272 OA
ATOM     10  C   UNN dAMED      -0.138  -2.011   0.467  0.00  0.00     0.115 A 
ATOM     11  C   UNN dAMED       0.492  -0.794   0.452  0.00  0.00     0.064 A 
ATOM     12  C   UNN dAMED      -1.536  -1.804   0.386  0.00  0.00     0.035 A 
ATOM     13  C   UNN dAMED      -1.727  -0.414   0.342  0.00  0.00     0.042 A 
ATOM     14  C   UNN dAMED      -2.650  -2.656   0.272  0.00  0.00     0.003 A 
ATOM     15  N   UNN dAMED      -0.486   0.148   0.521  0.00  0.00    -0.230 NA
ATOM     16  C   UNN dAMED      -3.006   0.154   0.151  0.00  0.00     0.011 A 
ATOM     17  C   UNN dAMED      -4.104  -0.726   0.017  0.00  0.00     0.001 A 
ATOM     18  C   UNN dAMED      -3.921  -2.104   0.090  0.00  0.00     0.000 A 
ATOM     19  C   UNN dAMED      -5.376  -0.193  -0.178  0.00  0.00     0.000 A 
ATOM     20  C   UNN dAMED      -5.561   1.189  -0.234  0.00  0.00     0.000 A 
ATOM     21  C   UNN dAMED      -4.475   2.053  -0.095  0.00  0.00     0.000 A 
ATOM     22  C   UNN dAMED      -3.193   1.543   0.097  0.00  0.00     0.001 A 
ENDROOT
BRANCH  15  23
ATOM     23  C   UNN dAMED      -0.277   1.162  -0.453  0.00  0.00     0.088 C 
BRANCH  23  24
ATOM     24  C   UNN dAMED      -0.972   1.067  -1.814  0.00  0.00     0.063 C 
BRANCH  24  25
ATOM     25  C   UNN dAMED      -0.954   2.255  -2.781  0.00  0.00     0.046 C 
BRANCH  25  26
ATOM     26  N   UNN dAMED       0.074   3.193  -2.683  0.00  0.00    -0.347 N 
ATOM     27  C   UNN dAMED       1.017   4.017  -1.891  0.00  0.00     0.126 C 
ATOM     28  C   UNN dAMED       1.151   4.175  -2.579  0.00  0.00     0.126 C 
ENDBRANCH  25  26
ENDBRANCH  24  25
ENDBRANCH  23  24
ENDBRANCH  15  23
TORSDOF 4
