REMARK  4 active torsions:
REMARK  status: ('A' for Active; 'I' for Inactive)
REMARK    1  A    between atoms: C_6  and  C_7 
REMARK       I    between atoms: C_7  and  N_23 
REMARK    2  A    between atoms: C_9  and  N_23 
REMARK    3  A    between atoms: C_14  and  N_24 
REMARK    4  A    between atoms: C_15  and  C_17 
REMARK       I    between atoms: C_15  and  N_24 
ROOT
ATOM      1  C   UNN dAMED      -2.101   1.318  -0.439  0.00  0.00     0.085 A 
ATOM      2  C   UNN dAMED      -0.706   1.304  -0.498  0.00  0.00     0.021 A 
ATOM      3  C   UNN dAMED      -2.721   2.570  -0.329  0.00  0.00     0.021 A 
ATOM      4  C   UNN dAMED      -1.981   3.755  -0.282  0.00  0.00     0.021 A 
ATOM      5  C   UNN dAMED       0.032   2.489  -0.440  0.00  0.00     0.021 A 
ATOM      6  C   UNN dAMED      -0.583   3.743  -0.329  0.00  0.00     0.085 A 
ENDROOT
BRANCH   1   7
ATOM      7  N   UNN dAMED      -2.792   0.183  -0.674  0.00  0.00    -0.208 NA
ATOM      8  C   UNN dAMED      -3.584  -0.199   0.333  0.00  0.00     0.279 C 
ATOM      9  O   UNN dAMED      -3.228  -0.776   1.357  0.00  0.00    -0.265 OA
BRANCH   8  10
ATOM     10  C   UNN dAMED      -5.046  -0.031   0.083  0.00  0.00     0.061 A 
ATOM     11  C   UNN dAMED      -5.938  -0.091   1.150  0.00  0.00     0.025 A 
ATOM     12  C   UNN dAMED      -7.287   0.074   0.868  0.00  0.00     0.099 A 
ATOM     13  N   UNN dAMED      -7.789   0.301  -0.368  0.00  0.00    -0.242 NA
ATOM     14  C   UNN dAMED      -6.894   0.341  -1.378  0.00  0.00     0.099 A 
ATOM     15  C   UNN dAMED      -5.530   0.173  -1.209  0.00  0.00     0.025 A 
ENDBRANCH   8  10
ENDBRANCH   1   7
BRANCH   6  16
ATOM     16  N   UNN dAMED       0.186   4.844  -0.449  0.00  0.00    -0.208 NA
ATOM     17  C   UNN dAMED      -0.138   5.940   0.247  0.00  0.00     0.279 C 
ATOM     18  O   UNN dAMED      -0.820   6.052   1.264  0.00  0.00    -0.265 OA
BRANCH  17  19
ATOM     19  C   UNN dAMED       0.497   7.167  -0.297  0.00  0.00     0.061 A 
ATOM     20  C   UNN dAMED       1.822   7.141  -0.733  0.00  0.00     0.025 A 
ATOM     21  C   UNN dAMED       2.356   8.312  -1.244  0.00  0.00     0.099 A 
ATOM     22  N   UNN dAMED       1.682   9.480  -1.319  0.00  0.00    -0.242 NA
ATOM     23  C   UNN dAMED       0.412   9.471  -0.856  0.00  0.00     0.099 A 
ATOM     24  C   UNN dAMED      -0.230   8.351  -0.346  0.00  0.00     0.025 A 
ENDBRANCH  17  19
ENDBRANCH   6  16
TORSDOF 4
