REMARK  2 active torsions:
REMARK  status: ('A' for Active; 'I' for Inactive)
REMARK    1  A    between atoms: C_10  and  C_11 
REMARK    2  A    between atoms: C_11  and  O_13 
ROOT
ATOM      1  C   UNN dAMED      -3.538   1.357   0.248  0.00  0.00     0.152 A 
ATOM      2  C   UNN dAMED      -3.208  -0.105  -0.026  0.00  0.00     0.137 A 
ATOM      3  N   UNN dAMED      -2.273   2.006   0.371  0.00  0.00    -0.247 NA
ATOM      4  N   UNN dAMED      -1.793  -0.165  -0.032  0.00  0.00    -0.274 N 
ATOM      5  C   UNN dAMED      -1.342   1.114   0.207  0.00  0.00     0.173 A 
ATOM      6  O   UNN dAMED      -1.718  -2.430  -0.462  0.00  0.00    -0.267 OA
ATOM      7  C   UNN dAMED      -1.166  -1.357  -0.257  0.00  0.00     0.263 A 
ATOM      8  S   UNN dAMED       0.362   1.391   0.260  0.00  0.00    -0.045 SA
ATOM      9  C   UNN dAMED       0.346  -1.299  -0.242  0.00  0.00     0.073 A 
ATOM     10  C   UNN dAMED       1.056  -0.177  -0.034  0.00  0.00     0.100 A 
ENDROOT
BRANCH  10  11
ATOM     11  C   UNN dAMED       2.530  -0.250  -0.046  0.00  0.00     0.302 C 
ATOM     12  O   UNN dAMED       3.305   0.680   0.100  0.00  0.00    -0.259 OA
BRANCH  11  13
ATOM     13  O   UNN dAMED       2.898  -1.542  -0.206  0.00  0.00    -0.295 OA
ATOM     14  C   UNN dAMED       1.859  -2.145  -0.918  0.00  0.00     0.185 C 
ENDBRANCH  11  13
ENDBRANCH  10  11
TORSDOF 2
