REMARK  0 active torsions:
REMARK  status: ('A' for Active; 'I' for Inactive)
ROOT
ATOM      1  C   UNN dAMED      -3.365   0.055  -0.345  0.00  0.00     0.002 A 
ATOM      2  C   UNN dAMED      -2.982   1.397  -0.265  0.00  0.00     0.002 A 
ATOM      3  C   UNN dAMED      -2.410  -0.960  -0.278  0.00  0.00     0.018 A 
ATOM      4  C   UNN dAMED      -1.639   1.739  -0.116  0.00  0.00     0.019 A 
ATOM      5  C   UNN dAMED      -1.068  -0.626  -0.129  0.00  0.00     0.074 A 
ATOM      6  C   UNN dAMED      -0.695   0.720  -0.050  0.00  0.00     0.080 A 
ATOM      7  H   UNN dAMED      -0.381  -2.613  -0.119  0.00  0.00     0.167 HD
ATOM      8  N   UNN dAMED       0.670   1.002   0.100  0.00  0.00    -0.302 N 
ATOM      9  N   UNN dAMED      -0.097  -1.641  -0.060  0.00  0.00    -0.343 N 
ATOM     10  C   UNN dAMED       1.266   2.231   0.199  0.00  0.00     0.080 A 
ATOM     11  C   UNN dAMED       1.625   0.008   0.168  0.00  0.00     0.090 A 
ATOM     12  C   UNN dAMED       1.248  -1.378   0.087  0.00  0.00     0.129 A 
ATOM     13  C   UNN dAMED       2.846   0.640   0.313  0.00  0.00     0.021 A 
ATOM     14  C   UNN dAMED       2.620   2.035   0.332  0.00  0.00     0.021 A 
ATOM     15  S   UNN dAMED       2.362  -2.610   0.164  0.00  0.00    -0.058 SA
ENDROOT
TORSDOF 0
