REMARK  2 active torsions:
REMARK  status: ('A' for Active; 'I' for Inactive)
REMARK    1  A    between atoms: C_1  and  C_2 
REMARK    2  A    between atoms: C_1  and  C_4 
ROOT
ATOM      1  C   UNN dAMED      -0.381  -0.149  -0.144  0.00  0.00    -0.015 A 
ATOM      2  C   UNN dAMED      -1.062  -0.814   0.876  0.00  0.00    -0.004 A 
ATOM      3  C   UNN dAMED      -2.419  -0.576   1.080  0.00  0.00    -0.000 A 
ATOM      4  C   UNN dAMED      -3.100   0.321   0.260  0.00  0.00    -0.000 A 
ATOM      5  C   UNN dAMED      -2.425   0.981  -0.763  0.00  0.00    -0.000 A 
ATOM      6  C   UNN dAMED      -1.068   0.742  -0.968  0.00  0.00    -0.004 A 
ENDROOT
BRANCH   1   7
ATOM      7  C   UNN dAMED       1.059  -0.441  -0.400  0.00  0.00     0.087 C 
ATOM      8  C   UNN dAMED       1.336  -0.338  -1.904  0.00  0.00     0.013 C 
ATOM      9  C   UNN dAMED       1.375  -1.867   0.060  0.00  0.00     0.013 C 
BRANCH   7  10
ATOM     10  C   UNN dAMED       1.949   0.516   0.334  0.00  0.00     0.246 C 
ATOM     11  O   UNN dAMED       3.154   0.579   0.125  0.00  0.00    -0.276 OA
ATOM     12  N   UNN dAMED       1.429   1.148   1.500  0.00  0.00    -0.061 NA
ENDBRANCH   7  10
ENDBRANCH   1   7
TORSDOF 2
