REMARK  4 active torsions:
REMARK  status: ('A' for Active; 'I' for Inactive)
REMARK    1  A    between atoms: C_4  and  N_8 
REMARK    2  A    between atoms: N_8  and  C_10 
REMARK    3  A    between atoms: C_10  and  C_11 
REMARK    4  A    between atoms: C_11  and  C_12 
ROOT
ATOM      1  C   UNN dAMED       1.251  -1.293  -0.366  0.00  0.00     0.239 A 
ATOM      2  C   UNN dAMED       2.646   0.392   0.267  0.00  0.00     0.144 A 
ATOM      3  C   UNN dAMED       1.609   1.300   0.303  0.00  0.00     0.062 A 
ATOM      4  C   UNN dAMED       0.361   0.802  -0.025  0.00  0.00     0.122 A 
ATOM      5 CL   UNN dAMED       4.248   0.873   0.658  0.00  0.00    -0.061 Cl
ATOM      6  N   UNN dAMED       2.507  -0.905  -0.058  0.00  0.00    -0.203 NA
ATOM      7  N   UNN dAMED       0.165  -0.490  -0.367  0.00  0.00    -0.203 NA
ATOM      8  N   UNN dAMED       1.040  -2.664  -0.694  0.00  0.00    -0.060 NA
ENDROOT
BRANCH   4   9
ATOM      9  N   UNN dAMED      -0.741   1.681   0.054  0.00  0.00    -0.262 NA
ATOM     10  H   UNN dAMED      -1.423   1.394  -0.649  0.00  0.00     0.130 HD
BRANCH   9  11
ATOM     11  C   UNN dAMED      -1.218   2.054   1.376  0.00  0.00     0.074 C 
BRANCH  11  12
ATOM     12  C   UNN dAMED      -2.285   3.139   1.524  0.00  0.00     0.018 C 
BRANCH  12  13
ATOM     13  C   UNN dAMED      -3.259   3.403   0.373  0.00  0.00     0.001 C 
ATOM     14  C   UNN dAMED      -2.775   3.352  -1.079  0.00  0.00     0.000 C 
ENDBRANCH  12  13
ENDBRANCH  11  12
ENDBRANCH   9  11
ENDBRANCH   4   9
TORSDOF 4
