REMARK  3 active torsions:
REMARK  status: ('A' for Active; 'I' for Inactive)
REMARK    1  A    between atoms: C_2  and  C_17 
REMARK    2  A    between atoms: C_10  and  C_16 
REMARK    3  A    between atoms: C_16  and  C_17 
ROOT
ATOM      1  C   UNN dAMED       0.631   0.590  -0.322  0.00  0.00     0.062 A 
ATOM      2  C   UNN dAMED       0.637  -0.866  -0.023  0.00  0.00     0.050 A 
ATOM      3  C   UNN dAMED       1.812  -1.447   0.285  0.00  0.00     0.279 A 
ATOM      4  N   UNN dAMED       1.669   1.366  -0.288  0.00  0.00    -0.231 NA
ATOM      5  N   UNN dAMED       2.948  -0.592   0.321  0.00  0.00    -0.177 N 
ATOM      6  C   UNN dAMED       2.848   0.780   0.051  0.00  0.00     0.168 A 
ATOM      7  N   UNN dAMED       4.245  -0.922   0.618  0.00  0.00    -0.160 NA
ATOM      8  C   UNN dAMED       4.105   1.314   0.215  0.00  0.00     0.061 A 
ATOM      9  C   UNN dAMED       4.916   0.226   0.561  0.00  0.00     0.124 A 
ATOM     10  C   UNN dAMED      -0.693   1.212  -0.674  0.00  0.00     0.052 C 
ATOM     11  O   UNN dAMED       2.037  -2.656   0.566  0.00  0.00    -0.265 OA
ENDROOT
BRANCH   2  12
ATOM     12  C   UNN dAMED      -0.645  -1.649   0.024  0.00  0.00     0.037 C 
BRANCH  12  13
ATOM     13  C   UNN dAMED      -1.194  -2.116   1.379  0.00  0.00     0.031 C 
BRANCH  13  14
ATOM     14  C   UNN dAMED      -2.672  -2.298   1.588  0.00  0.00    -0.022 A 
ATOM     15  C   UNN dAMED      -3.579  -1.683   0.730  0.00  0.00    -0.004 A 
ATOM     16  C   UNN dAMED      -4.948  -1.841   0.936  0.00  0.00    -0.000 A 
ATOM     17  C   UNN dAMED      -5.409  -2.613   2.001  0.00  0.00    -0.000 A 
ATOM     18  C   UNN dAMED      -4.500  -3.226   2.860  0.00  0.00    -0.000 A 
ATOM     19  C   UNN dAMED      -3.131  -3.068   2.654  0.00  0.00    -0.004 A 
ENDBRANCH  13  14
ENDBRANCH  12  13
ENDBRANCH   2  12
TORSDOF 3
