REMARK  0 active torsions:
REMARK  status: ('A' for Active; 'I' for Inactive)
ROOT
ATOM      1  C   UNN dAMED      -0.894   1.054   0.520  0.00  0.00     0.029 A 
ATOM      2  C   UNN dAMED       0.432   1.071   0.476  0.00  0.00     0.114 A 
ATOM      3  C   UNN dAMED      -1.648  -0.125   0.007  0.00  0.00     0.076 A 
ATOM      4  C   UNN dAMED       1.218  -0.046  -0.069  0.00  0.00     0.268 A 
ATOM      5  C   UNN dAMED      -0.902  -1.114  -0.477  0.00  0.00     0.086 A 
ATOM      6 CL   UNN dAMED      -3.359  -0.202   0.038  0.00  0.00    -0.081 Cl
ATOM      7  N   UNN dAMED       0.517  -1.108  -0.531  0.00  0.00    -0.319 N 
ATOM      8  H   UNN dAMED       0.920  -1.941  -0.930  0.00  0.00     0.169 HD
ATOM      9  O   UNN dAMED       2.443  -0.038  -0.113  0.00  0.00    -0.266 OA
ATOM     10 CL   UNN dAMED       1.274   2.448   1.078  0.00  0.00    -0.077 Cl
ENDROOT
TORSDOF 0
