REMARK  0 active torsions:
REMARK  status: ('A' for Active; 'I' for Inactive)
ROOT
ATOM      1  O   UNN dAMED       4.417   1.341  -0.571  0.00  0.00    -0.246 OA
ATOM      2  N   UNN dAMED       3.284  -0.459   0.376  0.00  0.00    -0.246 N 
ATOM      3  O   UNN dAMED       2.226  -2.478   0.843  0.00  0.00    -0.265 OA
ATOM      4  N   UNN dAMED       2.126   1.468  -0.242  0.00  0.00    -0.263 N 
ATOM      5  H   UNN dAMED      -0.714  -1.804   0.646  0.00  0.00     0.184 HD
ATOM      6  N   UNN dAMED      -0.346  -0.900   0.380  0.00  0.00    -0.180 N 
ATOM      7  N   UNN dAMED      -0.319   1.234  -0.282  0.00  0.00    -0.044 NA
ATOM      8  N   UNN dAMED      -2.437   0.085  -0.012  0.00  0.00    -0.185 N 
ATOM      9  C   UNN dAMED       2.173  -1.286   0.566  0.00  0.00     0.283 C 
ATOM     10  C   UNN dAMED       0.968  -0.539   0.321  0.00  0.00     0.164 A 
ATOM     11  C   UNN dAMED       0.949   0.777  -0.079  0.00  0.00     0.187 A 
ATOM     12  C   UNN dAMED      -3.060  -1.187   0.365  0.00  0.00     0.120 C 
ATOM     13  C   UNN dAMED      -4.557  -1.384   0.095  0.00  0.00     0.025 C 
ATOM     14  C   UNN dAMED      -5.437  -0.211   0.505  0.00  0.00     0.004 C 
ATOM     15  C   UNN dAMED      -4.779   1.136   0.238  0.00  0.00     0.025 C 
ATOM     16  C   UNN dAMED      -3.271   1.175   0.506  0.00  0.00     0.120 C 
ATOM     17  C   UNN dAMED      -1.090   0.201   0.014  0.00  0.00     0.707 A 
ATOM     18  C   UNN dAMED       3.369   0.840  -0.167  0.00  0.00     0.335 C 
ATOM     19  C   UNN dAMED       4.483  -1.197   0.192  0.00  0.00     0.139 C 
ATOM     20  C   UNN dAMED       2.069   2.479  -1.235  0.00  0.00     0.137 C 
ENDROOT
TORSDOF 0
