REMARK  5 active torsions:
REMARK  status: ('A' for Active; 'I' for Inactive)
REMARK    1  A    between atoms: C_3  and  N_10 
REMARK    2  A    between atoms: C_6  and  N_7 
REMARK    3  A    between atoms: N_10  and  C_11 
REMARK    4  A    between atoms: N_13  and  C_14 
REMARK    5  A    between atoms: C_14  and  C_15 
ROOT
ATOM      1  C   UNN dAMED      -1.044  -2.593  -0.020  0.00  0.00     0.019 A 
ATOM      2  C   UNN dAMED      -2.430  -2.533  -0.175  0.00  0.00     0.003 A 
ATOM      3  C   UNN dAMED      -0.241  -1.443   0.106  0.00  0.00     0.086 A 
ATOM      4  C   UNN dAMED      -0.900  -0.208   0.075  0.00  0.00     0.043 A 
ATOM      5  C   UNN dAMED      -3.067  -1.300  -0.174  0.00  0.00     0.024 A 
ATOM      6  C   UNN dAMED      -2.289  -0.155  -0.058  0.00  0.00     0.128 A 
ENDROOT
BRANCH   3   7
ATOM      7  N   UNN dAMED       1.096  -1.469   0.338  0.00  0.00    -0.218 NA
BRANCH   7   8
ATOM      8  C   UNN dAMED       1.747  -2.568  -0.066  0.00  0.00     0.217 C 
ATOM      9  S   UNN dAMED       2.393  -2.785  -1.608  0.00  0.00    -0.037 SA
ATOM     10  N   UNN dAMED       1.975  -3.429   0.930  0.00  0.00    -0.239 NA
BRANCH  10  11
ATOM     11  C   UNN dAMED       2.637  -4.691   0.652  0.00  0.00     0.154 C 
BRANCH  11  12
ATOM     12  C   UNN dAMED       3.742  -4.752  -0.405  0.00  0.00     0.000 C 
ATOM     13  C   UNN dAMED       4.896  -4.121  -0.191  0.00  0.00    -0.003 C 
ENDBRANCH  11  12
ENDBRANCH  10  11
ENDBRANCH   7   8
ENDBRANCH   3   7
BRANCH   6  14
ATOM     14  N   UNN dAMED      -2.948   1.129  -0.054  0.00  0.00    -0.114 N 
ATOM     15  O   UNN dAMED      -2.561   1.964   0.774  0.00  0.00    -0.532 OA
ATOM     16  O   UNN dAMED      -3.857   1.301  -0.876  0.00  0.00    -0.532 OA
ENDBRANCH   6  14
TORSDOF 5
