REMARK  3 active torsions:
REMARK  status: ('A' for Active; 'I' for Inactive)
REMARK    1  A    between atoms: N_17  and  C_22 
REMARK    2  A    between atoms: N_20  and  C_23 
REMARK    3  A    between atoms: C_22  and  C_23 
ROOT
ATOM      1  C   UNN dAMED      -1.522   2.616   0.369  0.00  0.00     0.005 A 
ATOM      2  C   UNN dAMED      -2.863   2.967   0.493  0.00  0.00     0.000 A 
ATOM      3  C   UNN dAMED       0.245   0.916  -0.005  0.00  0.00     0.263 C 
ATOM      4  C   UNN dAMED      -1.179   1.287   0.130  0.00  0.00     0.056 A 
ATOM      5  C   UNN dAMED      -3.856   1.993   0.386  0.00  0.00     0.000 A 
ATOM      6  C   UNN dAMED      -2.165   0.288   0.025  0.00  0.00     0.009 A 
ATOM      7  C   UNN dAMED      -3.519   0.658   0.159  0.00  0.00     0.001 A 
ATOM      8  C   UNN dAMED      -0.439  -1.472  -0.326  0.00  0.00     0.263 C 
ATOM      9  C   UNN dAMED      -1.853  -1.067  -0.188  0.00  0.00     0.058 A 
ATOM     10  C   UNN dAMED      -4.517  -0.315   0.073  0.00  0.00     0.014 A 
ATOM     11  C   UNN dAMED      -2.853  -2.035  -0.261  0.00  0.00     0.019 A 
ATOM     12  C   UNN dAMED      -4.185  -1.654  -0.134  0.00  0.00     0.070 A 
ATOM     13  N   UNN dAMED       0.436  -0.400  -0.389  0.00  0.00    -0.262 N 
ATOM     14  O   UNN dAMED      -0.106  -2.650  -0.299  0.00  0.00    -0.267 OA
ATOM     15  O   UNN dAMED       1.140   1.701   0.284  0.00  0.00    -0.267 OA
ATOM     16  N   UNN dAMED      -5.214  -2.634  -0.225  0.00  0.00    -0.101 NA
ENDROOT
BRANCH  13  17
ATOM     17  C   UNN dAMED       1.765  -0.820  -0.124  0.00  0.00     0.136 C 
BRANCH  17  18
ATOM     18  C   UNN dAMED       2.066  -1.530   1.198  0.00  0.00     0.122 C 
BRANCH  18  19
ATOM     19  N   UNN dAMED       3.413  -1.834   1.573  0.00  0.00    -0.367 N 
ATOM     20  C   UNN dAMED       4.520  -2.173   2.445  0.00  0.00     0.097 C 
ATOM     21  C   UNN dAMED       5.824  -2.487   1.720  0.00  0.00     0.026 C 
ATOM     22  C   UNN dAMED       5.439  -2.581   0.270  0.00  0.00     0.026 C 
ATOM     23  C   UNN dAMED       3.949  -2.265   0.254  0.00  0.00     0.097 C 
ENDBRANCH  18  19
ENDBRANCH  17  18
ENDBRANCH  13  17
TORSDOF 3
