REMARK  9 active torsions:
REMARK  status: ('A' for Active; 'I' for Inactive)
REMARK    1  A    between atoms: C_9  and  C_27 
REMARK    2  A    between atoms: C_14  and  N_24 
REMARK    3  A    between atoms: C_16  and  C_23 
REMARK    4  A    between atoms: C_18  and  C_21 
REMARK    5  A    between atoms: C_18  and  C_22 
REMARK    6  A    between atoms: C_22  and  C_23 
REMARK    7  A    between atoms: N_24  and  C_25 
REMARK    8  A    between atoms: C_25  and  C_26 
REMARK    9  A    between atoms: C_26  and  C_27 
ROOT
ATOM      1  C   UNN dAMED       1.812  -0.079  -6.124  0.00  0.00     0.018 A 
ATOM      2  C   UNN dAMED       2.162   0.302  -7.419  0.00  0.00    -0.003 A 
ATOM      3  C   UNN dAMED       1.047   0.756  -5.306  0.00  0.00     0.076 A 
ATOM      4  C   UNN dAMED       0.645   1.992  -5.820  0.00  0.00     0.018 A 
ATOM      5  C   UNN dAMED       1.748   1.536  -7.911  0.00  0.00    -0.022 A 
ATOM      6  C   UNN dAMED       0.989   2.384  -7.113  0.00  0.00    -0.003 A 
ENDROOT
BRANCH   3   7
ATOM      7  N   UNN dAMED       0.708   0.384  -4.063  0.00  0.00    -0.271 NA
BRANCH   7   8
ATOM      8  C   UNN dAMED       0.485   1.394  -3.042  0.00  0.00     0.126 C 
BRANCH   8   9
ATOM      9  C   UNN dAMED       1.664   1.926  -2.220  0.00  0.00     0.031 C 
BRANCH   9  10
ATOM     10  C   UNN dAMED       2.430   3.167  -2.689  0.00  0.00     0.034 C 
BRANCH  10  11
ATOM     11  C   UNN dAMED       2.448   4.406  -1.841  0.00  0.00     0.047 A 
ATOM     12  C   UNN dAMED       2.927   5.561  -2.317  0.00  0.00     0.037 A 
ATOM     13  N   UNN dAMED       2.945   6.682  -1.534  0.00  0.00    -0.331 N 
ATOM     14  C   UNN dAMED       3.466   5.621  -3.717  0.00  0.00     0.050 C 
ATOM     15  H   UNN dAMED       3.365   7.521  -1.918  0.00  0.00     0.168 HD
ATOM     16  C   UNN dAMED       2.505   6.614  -0.237  0.00  0.00     0.218 A 
ATOM     17  N   UNN dAMED       2.020   5.540   0.317  0.00  0.00    -0.178 NA
ATOM     18  N   UNN dAMED       2.613   7.786   0.567  0.00  0.00    -0.061 NA
ATOM     19  C   UNN dAMED       1.937   4.374  -0.434  0.00  0.00     0.278 A 
ATOM     20  O   UNN dAMED       1.480   3.319  -0.003  0.00  0.00    -0.265 OA
ENDBRANCH  10  11
ENDBRANCH   9  10
ENDBRANCH   8   9
ENDBRANCH   7   8
ENDBRANCH   3   7
BRANCH   5  21
ATOM     21  C   UNN dAMED       1.995   1.886  -9.351  0.00  0.00     0.031 C 
BRANCH  21  22
ATOM     22  C   UNN dAMED       2.727   3.181  -9.720  0.00  0.00     0.062 C 
BRANCH  22  23
ATOM     23  C   UNN dAMED       4.129   3.104 -10.341  0.00  0.00     0.203 C 
ATOM     24  O   UNN dAMED       5.050   2.574  -9.368  0.00  0.00    -0.331 OA
ATOM     25  C   UNN dAMED       5.896   3.646  -9.115  0.00  0.00     0.177 C 
ATOM     26  C   UNN dAMED       5.592   4.753 -10.077  0.00  0.00     0.177 C 
ATOM     27  O   UNN dAMED       4.499   4.397 -10.858  0.00  0.00    -0.331 OA
BRANCH  23  28
ATOM     28  C   UNN dAMED       3.973   2.112 -11.504  0.00  0.00     0.151 C 
ATOM     29 CL   UNN dAMED       3.029   0.645 -11.300  0.00  0.00    -0.108 Cl
ENDBRANCH  23  28
ENDBRANCH  22  23
ENDBRANCH  21  22
ENDBRANCH   5  21
TORSDOF 9
