REMARK  4 active torsions:
REMARK  status: ('A' for Active; 'I' for Inactive)
REMARK    1  A    between atoms: C_3  and  C_7 
REMARK    2  A    between atoms: C_4  and  C_13 
REMARK    3  A    between atoms: C_5  and  C_11 
REMARK    4  A    between atoms: C_6  and  C_10 
ROOT
ATOM      1  O   UNN dAMED      -1.241   1.748  -1.667  0.00  0.00    -0.287 OA
ATOM      2  C   UNN dAMED      -0.983   1.318  -0.553  0.00  0.00     0.192 C 
ATOM      3  C   UNN dAMED      -1.361  -0.132  -0.191  0.00  0.00     0.048 C 
ATOM      4  C   UNN dAMED       0.477   1.290  -0.066  0.00  0.00     0.048 C 
ATOM      5  C   UNN dAMED       0.989  -0.088   0.329  0.00  0.00     0.011 C 
ATOM      6  C   UNN dAMED      -0.228  -0.971   0.393  0.00  0.00     0.011 C 
ENDROOT
BRANCH   3   7
ATOM      7  C   UNN dAMED      -2.817  -0.620  -0.210  0.00  0.00     0.212 C 
ATOM      8  O   UNN dAMED      -3.640  -0.400   0.862  0.00  0.00    -0.215 OA
ENDBRANCH   3   7
BRANCH   6   9
ATOM      9  C   UNN dAMED      -0.116  -2.466   0.081  0.00  0.00     0.208 C 
ATOM     10  O   UNN dAMED      -1.239  -3.192  -0.204  0.00  0.00    -0.215 OA
ENDBRANCH   6   9
BRANCH   4  11
ATOM     11  C   UNN dAMED       1.441   2.441  -0.379  0.00  0.00     0.212 C 
ATOM     12  O   UNN dAMED       1.765   3.349   0.590  0.00  0.00    -0.215 OA
ENDBRANCH   4  11
BRANCH   5  13
ATOM     13  C   UNN dAMED       2.164  -0.261   1.298  0.00  0.00     0.208 C 
ATOM     14  O   UNN dAMED       2.837  -1.449   1.353  0.00  0.00    -0.215 OA
ENDBRANCH   5  13
TORSDOF 4
