REMARK  3 active torsions:
REMARK  status: ('A' for Active; 'I' for Inactive)
REMARK    1  A    between atoms: N_2  and  C_12 
REMARK    2  A    between atoms: C_12  and  O_13 
REMARK    3  A    between atoms: O_13  and  C_14 
REMARK       I    between atoms: C_14  and  N_16 
ROOT
ATOM      1  O   UNN dAMED       0.004   2.189   0.519  0.00  0.00    -0.278 OA
ATOM      2  N   UNN dAMED       0.093  -0.137   0.488  0.00  0.00    -0.144 NA
ATOM      3  O   UNN dAMED       0.003  -1.800  -1.139  0.00  0.00    -0.278 OA
ATOM      4  C   UNN dAMED      -0.530   1.090   0.518  0.00  0.00     0.222 C 
ATOM      5  C   UNN dAMED      -1.899   0.924  -0.086  0.00  0.00     0.087 C 
ATOM      6  C   UNN dAMED      -3.158   1.282   0.703  0.00  0.00     0.035 C 
ATOM      7  C   UNN dAMED      -4.482   0.723   0.160  0.00  0.00    -0.030 C 
ATOM      8  C   UNN dAMED      -1.898  -0.474  -0.673  0.00  0.00     0.087 C 
ATOM      9  C   UNN dAMED      -4.482  -0.506  -0.362  0.00  0.00    -0.030 C 
ATOM     10  C   UNN dAMED      -0.531  -1.022  -0.362  0.00  0.00     0.222 C 
ATOM     11  C   UNN dAMED      -3.160  -1.287  -0.385  0.00  0.00     0.035 C 
ENDROOT
BRANCH   2  12
ATOM     12  C   UNN dAMED       1.484  -0.026   0.221  0.00  0.00     0.243 C 
BRANCH  12  13
ATOM     13  O   UNN dAMED       2.414  -0.225   1.245  0.00  0.00    -0.265 OA
BRANCH  13  14
ATOM     14  C   UNN dAMED       3.622  -0.255   0.620  0.00  0.00     0.385 C 
ATOM     15  O   UNN dAMED       3.742  -0.012  -0.575  0.00  0.00    -0.236 OA
ATOM     16  N   UNN dAMED       4.584  -0.574   1.472  0.00  0.00    -0.210 NA
ATOM     17  C   UNN dAMED       4.523  -0.104   2.846  0.00  0.00     0.158 C 
ENDBRANCH  13  14
ENDBRANCH  12  13
ENDBRANCH   2  12
TORSDOF 3
