REMARK  7 active torsions:
REMARK  status: ('A' for Active; 'I' for Inactive)
REMARK    1  A    between atoms: O_2  and  C_15 
REMARK    2  A    between atoms: O_2  and  C_18 
REMARK    3  A    between atoms: C_5  and  N_17 
REMARK    4  A    between atoms: C_13  and  C_15 
REMARK    5  A    between atoms: C_14  and  N_17 
REMARK    6  A    between atoms: C_18  and  C_20 
REMARK    7  A    between atoms: C_20  and  C_22 
ROOT
ATOM      1  N   UNN dAMED       1.623   2.944  -4.645  0.00  0.00    -0.225 NA
ATOM      2  C   UNN dAMED       1.699   4.282  -4.445  0.00  0.00     0.101 A 
ATOM      3  C   UNN dAMED       2.881   4.993  -4.358  0.00  0.00     0.021 A 
ATOM      4  C   UNN dAMED       4.061   4.282  -4.500  0.00  0.00     0.010 A 
ATOM      5  C   UNN dAMED       4.021   2.908  -4.740  0.00  0.00     0.099 A 
ATOM      6  C   UNN dAMED       2.783   2.255  -4.802  0.00  0.00     0.168 A 
ENDROOT
BRANCH   6   7
ATOM      7  N   UNN dAMED       2.643   0.914  -4.892  0.00  0.00    -0.227 NA
BRANCH   7   8
ATOM      8  C   UNN dAMED       2.497   0.395  -6.134  0.00  0.00     0.080 A 
ATOM      9  C   UNN dAMED       1.951  -0.890  -6.251  0.00  0.00     0.006 A 
ATOM     10  C   UNN dAMED       1.850  -1.530  -7.486  0.00  0.00     0.055 A 
ATOM     11  C   UNN dAMED       1.481  -1.603  -5.013  0.00  0.00     0.034 C 
ATOM     12 CL   UNN dAMED       1.212  -3.120  -7.565  0.00  0.00    -0.083 Cl
ATOM     13  C   UNN dAMED       2.282  -0.902  -8.646  0.00  0.00     0.011 A 
ATOM     14  C   UNN dAMED       2.825   0.374  -8.563  0.00  0.00     0.002 A 
ATOM     15  C   UNN dAMED       2.940   1.001  -7.322  0.00  0.00     0.019 A 
ENDBRANCH   7   8
ENDBRANCH   6   7
BRANCH   5  16
ATOM     16  C   UNN dAMED       5.297   2.186  -4.887  0.00  0.00     0.299 C 
ATOM     17  O   UNN dAMED       5.565   1.116  -4.373  0.00  0.00    -0.259 OA
BRANCH  16  18
ATOM     18  O   UNN dAMED       6.137   2.919  -5.650  0.00  0.00    -0.295 OA
BRANCH  18  19
ATOM     19  C   UNN dAMED       6.975   3.554  -4.727  0.00  0.00     0.188 C 
BRANCH  19  20
ATOM     20  C   UNN dAMED       7.354   2.848  -3.416  0.00  0.00     0.215 C 
ATOM     21  O   UNN dAMED       8.680   2.671  -3.117  0.00  0.00    -0.218 OA
BRANCH  20  22
ATOM     22  C   UNN dAMED       6.279   2.072  -2.629  0.00  0.00     0.218 C 
ATOM     23  O   UNN dAMED       5.825   2.520  -1.415  0.00  0.00    -0.218 OA
ENDBRANCH  20  22
ENDBRANCH  19  20
ENDBRANCH  18  19
ENDBRANCH  16  18
ENDBRANCH   5  16
TORSDOF 7
