REMARK  6 active torsions:
REMARK  status: ('A' for Active; 'I' for Inactive)
REMARK    1  A    between atoms: C_6  and  N_7 
REMARK    2  A    between atoms: N_8  and  C_10 
REMARK    3  A    between atoms: C_13  and  O_15 
REMARK    4  A    between atoms: O_15  and  C_18 
REMARK    5  A    between atoms: C_18  and  C_19 
REMARK    6  A    between atoms: C_19  and  C_20 
ROOT
ATOM      1  C   UNN dAMED      -2.509  -4.384   1.366  0.00  0.00     0.122 A 
ATOM      2  C   UNN dAMED      -2.464  -3.227   2.134  0.00  0.00     0.122 A 
ATOM      3  C   UNN dAMED      -1.809  -3.296   3.362  0.00  0.00     0.026 A 
ATOM      4  N   UNN dAMED      -1.939  -5.556   1.724  0.00  0.00    -0.219 NA
ATOM      5  C   UNN dAMED      -1.310  -5.566   2.918  0.00  0.00     0.178 A 
ATOM      6  C   UNN dAMED      -1.209  -4.481   3.770  0.00  0.00     0.046 A 
ENDROOT
BRANCH   2   7
ATOM      7  N   UNN dAMED      -3.151  -2.071   1.743  0.00  0.00    -0.146 NA
ATOM      8  N   UNN dAMED      -2.405  -1.348   1.047  0.00  0.00    -0.145 NA
BRANCH   8   9
ATOM      9  C   UNN dAMED      -3.106  -0.205   0.639  0.00  0.00     0.134 A 
ATOM     10  C   UNN dAMED      -2.992   0.995   1.336  0.00  0.00     0.026 A 
ATOM     11  C   UNN dAMED      -3.653   2.129   0.884  0.00  0.00     0.035 A 
ATOM     12  C   UNN dAMED      -4.408   2.026  -0.275  0.00  0.00     0.152 A 
ATOM     13  N   UNN dAMED      -4.533   0.879  -0.981  0.00  0.00    -0.216 NA
ATOM     14  N   UNN dAMED      -5.081   3.189  -0.750  0.00  0.00    -0.080 NA
ATOM     15  C   UNN dAMED      -3.877  -0.209  -0.517  0.00  0.00     0.171 A 
ATOM     16  N   UNN dAMED      -3.981  -1.425  -1.252  0.00  0.00    -0.078 NA
ENDBRANCH   8   9
ENDBRANCH   2   7
BRANCH   5  17
ATOM     17  O   UNN dAMED      -0.747  -6.751   3.318  0.00  0.00    -0.315 OA
BRANCH  17  18
ATOM     18  C   UNN dAMED      -1.234  -7.709   2.425  0.00  0.00     0.151 C 
BRANCH  18  19
ATOM     19  C   UNN dAMED      -2.614  -7.532   1.784  0.00  0.00     0.033 C 
BRANCH  19  20
ATOM     20  C   UNN dAMED      -2.892  -6.325   0.883  0.00  0.00     0.003 C 
ATOM     21  C   UNN dAMED      -4.190  -6.259   0.072  0.00  0.00     0.000 C 
ENDBRANCH  19  20
ENDBRANCH  18  19
ENDBRANCH  17  18
ENDBRANCH   5  17
TORSDOF 6
