REMARK  0 active torsions:
REMARK  status: ('A' for Active; 'I' for Inactive)
ROOT
ATOM      1  N   UNN dAMED       0.027  -0.995   0.000  0.00  0.00    -0.353 N 
ATOM      2  H   UNN dAMED       0.055  -2.014  -0.000  0.00  0.00     0.166 HD
ATOM      3  C   UNN dAMED      -0.720   1.988   0.000  0.00  0.00     0.002 A 
ATOM      4  C   UNN dAMED      -1.664   0.823  -0.000  0.00  0.00     0.016 A 
ATOM      5  C   UNN dAMED       0.611   2.024   0.000  0.00  0.00     0.002 A 
ATOM      6  C   UNN dAMED       1.617   0.912  -0.000  0.00  0.00     0.016 A 
ATOM      7  C   UNN dAMED      -3.025   1.167  -0.000  0.00  0.00     0.001 A 
ATOM      8  C   UNN dAMED      -4.021   0.198   0.000  0.00  0.00     0.000 A 
ATOM      9  C   UNN dAMED       2.957   1.330  -0.000  0.00  0.00     0.001 A 
ATOM     10  C   UNN dAMED       4.004   0.416  -0.000  0.00  0.00     0.000 A 
ATOM     11  C   UNN dAMED      -3.660  -1.138   0.000  0.00  0.00     0.002 A 
ATOM     12  C   UNN dAMED      -1.283  -0.510  -0.000  0.00  0.00     0.057 A 
ATOM     13  C   UNN dAMED       1.309  -0.439  -0.000  0.00  0.00     0.057 A 
ATOM     14  C   UNN dAMED       3.717  -0.938  -0.000  0.00  0.00     0.002 A 
ATOM     15  C   UNN dAMED      -2.309  -1.475   0.000  0.00  0.00     0.017 A 
ATOM     16  C   UNN dAMED       2.386  -1.348  -0.000  0.00  0.00     0.017 A 
ENDROOT
TORSDOF 0
