REMARK  4 active torsions:
REMARK  status: ('A' for Active; 'I' for Inactive)
REMARK    1  A    between atoms: C_5  and  N_17 
REMARK    2  A    between atoms: C_7  and  N_8 
REMARK    3  A    between atoms: N_11  and  C_14 
REMARK    4  A    between atoms: C_14  and  C_15 
ROOT
ATOM      1  N   UNN dAMED      -3.337   0.879   0.855  0.00  0.00    -0.225 NA
ATOM      2  C   UNN dAMED      -2.807   2.195   0.615  0.00  0.00     0.114 C 
ATOM      3  C   UNN dAMED      -3.711   3.329   0.125  0.00  0.00     0.268 C 
ATOM      4  N   UNN dAMED      -4.303   3.266  -1.213  0.00  0.00     0.139 N 
ATOM      5  C   UNN dAMED      -3.884   1.881  -1.449  0.00  0.00     0.268 C 
ATOM      6  C   UNN dAMED      -4.097   0.819  -0.364  0.00  0.00     0.114 C 
ENDROOT
BRANCH   1   7
ATOM      7  C   UNN dAMED      -2.273   0.016   0.706  0.00  0.00     0.177 C 
ATOM      8  S   UNN dAMED      -0.701   0.582   0.861  0.00  0.00    -0.045 SA
ATOM      9  N   UNN dAMED      -2.587  -1.272   0.560  0.00  0.00    -0.224 NA
BRANCH   9  10
ATOM     10  C   UNN dAMED      -3.387  -1.552  -0.495  0.00  0.00     0.083 A 
ATOM     11  C   UNN dAMED      -3.061  -1.217  -1.819  0.00  0.00     0.019 A 
ATOM     12  C   UNN dAMED      -3.921  -1.510  -2.877  0.00  0.00     0.002 A 
ATOM     13  C   UNN dAMED      -5.116  -2.180  -2.633  0.00  0.00     0.000 A 
ATOM     14  C   UNN dAMED      -5.445  -2.560  -1.337  0.00  0.00     0.002 A 
ATOM     15  C   UNN dAMED      -4.585  -2.247  -0.284  0.00  0.00     0.019 A 
ENDBRANCH   9  10
ENDBRANCH   1   7
BRANCH   4  16
ATOM     16  C   UNN dAMED      -5.692   3.654  -1.381  0.00  0.00     0.222 C 
ATOM     17  C   UNN dAMED      -6.556   2.853  -0.421  0.00  0.00     0.036 C 
ATOM     18  C   UNN dAMED      -5.769   5.172  -1.572  0.00  0.00     0.036 C 
BRANCH  16  19
ATOM     19  C   UNN dAMED      -6.144   3.382  -2.831  0.00  0.00     0.213 C 
ATOM     20  O   UNN dAMED      -6.788   4.358  -3.540  0.00  0.00    -0.219 OA
ENDBRANCH  16  19
ENDBRANCH   4  16
TORSDOF 4
