REMARK  2 active torsions:
REMARK  status: ('A' for Active; 'I' for Inactive)
REMARK    1  A    between atoms: C_8  and  N_11 
REMARK    2  A    between atoms: N_12  and  C_13 
ROOT
ATOM      1  C   UNN dAMED      -5.789   0.303   0.177  0.00  0.00     0.000 A 
ATOM      2  C   UNN dAMED      -5.271   1.346   0.935  0.00  0.00     0.002 A 
ATOM      3  C   UNN dAMED      -3.890   1.495   1.062  0.00  0.00     0.019 A 
ATOM      4  C   UNN dAMED      -3.004   0.623   0.445  0.00  0.00     0.083 A 
ATOM      5  C   UNN dAMED      -3.543  -0.422  -0.326  0.00  0.00     0.018 A 
ATOM      6  C   UNN dAMED      -4.923  -0.582  -0.456  0.00  0.00     0.002 A 
ATOM      7  N   UNN dAMED      -1.678   0.787   0.588  0.00  0.00    -0.225 NA
ATOM      8  C   UNN dAMED      -0.847  -0.086  -0.037  0.00  0.00     0.184 A 
ATOM      9  C   UNN dAMED      -1.301  -1.127  -0.837  0.00  0.00     0.041 A 
ATOM     10  C   UNN dAMED      -2.671  -1.297  -0.965  0.00  0.00     0.005 A 
ENDROOT
BRANCH   8  11
ATOM     11  N   UNN dAMED       0.523   0.183   0.099  0.00  0.00    -0.129 NA
ATOM     12  N   UNN dAMED       1.065  -0.683   0.819  0.00  0.00    -0.147 NA
BRANCH  12  13
ATOM     13  C   UNN dAMED       2.413  -0.365   1.067  0.00  0.00     0.103 A 
ATOM     14  C   UNN dAMED       3.279   0.089   0.063  0.00  0.00     0.021 A 
ATOM     15  C   UNN dAMED       4.616   0.359   0.342  0.00  0.00     0.008 A 
ATOM     16  C   UNN dAMED       5.100   0.146   1.628  0.00  0.00     0.035 A 
ATOM     17  C   UNN dAMED       4.266  -0.328   2.634  0.00  0.00     0.008 A 
ATOM     18 BR   UNN dAMED       6.907   0.511   2.011  0.00  0.00    -0.049 Br
ATOM     19  C   UNN dAMED       2.926  -0.582   2.349  0.00  0.00     0.021 A 
ENDBRANCH  12  13
ENDBRANCH   8  11
TORSDOF 2
