REMARK  4 active torsions:
REMARK  status: ('A' for Active; 'I' for Inactive)
REMARK    1  A    between atoms: C_2  and  C_10 
REMARK    2  A    between atoms: C_7  and  N_14 
REMARK    3  A    between atoms: C_10  and  N_12 
REMARK    4  A    between atoms: C_11  and  N_12 
ROOT
ATOM      1  C   UNN dAMED       1.577  -1.443   0.412  0.00  0.00     0.048 C 
ATOM      2  C   UNN dAMED       1.739   0.027   0.054  0.00  0.00     0.062 C 
ATOM      3  C   UNN dAMED      -0.702   0.306   0.093  0.00  0.00     0.078 A 
ATOM      4  C   UNN dAMED      -0.933  -1.085   0.071  0.00  0.00    -0.004 A 
ATOM      5  C   UNN dAMED       0.234  -2.027   0.013  0.00  0.00     0.034 C 
ATOM      6  C   UNN dAMED      -1.819   1.148   0.065  0.00  0.00     0.042 A 
ATOM      7  C   UNN dAMED      -3.097   0.599  -0.006  0.00  0.00     0.124 A 
ATOM      8  C   UNN dAMED      -3.323  -0.768  -0.044  0.00  0.00    -0.000 A 
ATOM      9  C   UNN dAMED      -2.226  -1.617  -0.004  0.00  0.00    -0.005 A 
ATOM     10  N   UNN dAMED       0.533   0.842   0.158  0.00  0.00    -0.252 NA
ATOM     11  C   UNN dAMED      -4.719  -1.315  -0.112  0.00  0.00     0.033 C 
ENDROOT
BRANCH   2  12
ATOM     12  C   UNN dAMED       3.117   0.677   0.270  0.00  0.00     0.166 C 
BRANCH  12  13
ATOM     13  N   UNN dAMED       3.619   1.697  -0.603  0.00  0.00    -0.273 NA
BRANCH  13  14
ATOM     14  C   UNN dAMED       4.692   2.537  -1.039  0.00  0.00     0.033 C 
ATOM     15  C   UNN dAMED       6.137   2.123  -0.741  0.00  0.00     0.047 C 
ATOM     16  C   UNN dAMED       4.427   3.615  -2.095  0.00  0.00     0.047 C 
ENDBRANCH  13  14
ENDBRANCH  12  13
ENDBRANCH   2  12
BRANCH   7  17
ATOM     17  N   UNN dAMED      -4.225   1.481  -0.065  0.00  0.00    -0.114 N 
ATOM     18  O   UNN dAMED      -4.437   2.048  -1.144  0.00  0.00    -0.532 OA
ATOM     19  O   UNN dAMED      -4.901   1.597   0.965  0.00  0.00    -0.532 OA
ENDBRANCH   7  17
TORSDOF 4
