REMARK  2 active torsions:
REMARK  status: ('A' for Active; 'I' for Inactive)
REMARK       I    between atoms: C_1  and  N_2 
REMARK    1  A    between atoms: C_9  and  N_19 
REMARK    2  A    between atoms: C_14  and  O_21 
ROOT
ATOM      1  C   UNN dAMED      -0.457   0.716  -1.753  0.00  0.00     0.749 C 
ATOM      2  N   UNN dAMED       0.125   0.085  -0.697  0.00  0.00    -0.161 N 
ATOM      3  C   UNN dAMED       2.397   1.062  -0.952  0.00  0.00     0.019 A 
ATOM      4  C   UNN dAMED       1.498   0.213  -0.290  0.00  0.00     0.073 A 
ATOM      5  C   UNN dAMED       3.723   1.208  -0.539  0.00  0.00     0.026 A 
ATOM      6  C   UNN dAMED       2.000  -0.517   0.809  0.00  0.00    -0.004 A 
ATOM      7  C   UNN dAMED       4.172   0.485   0.553  0.00  0.00     0.094 A 
ATOM      8  C   UNN dAMED       1.107  -1.411   1.616  0.00  0.00     0.030 C 
ATOM      9  C   UNN dAMED      -0.770  -0.755   0.090  0.00  0.00     0.125 C 
ATOM     10  C   UNN dAMED      -0.150  -1.865   0.912  0.00  0.00     0.030 C 
ATOM     11  C   UNN dAMED       3.326  -0.377   1.231  0.00  0.00     0.021 A 
ATOM     12  N   UNN dAMED      -1.450   0.129  -2.390  0.00  0.00    -0.059 NA
ATOM     13  N   UNN dAMED      -0.093   1.904  -2.154  0.00  0.00     0.060 N 
ENDROOT
BRANCH  12  14
ATOM     14  C   UNN dAMED      -2.623  -0.009  -1.716  0.00  0.00     0.100 A 
ATOM     15  C   UNN dAMED      -3.027   0.804  -0.644  0.00  0.00     0.021 A 
ATOM     16  C   UNN dAMED      -4.237   0.613   0.024  0.00  0.00     0.013 A 
ATOM     17  C   UNN dAMED      -5.097  -0.392  -0.393  0.00  0.00     0.058 A 
ATOM     18 CL   UNN dAMED      -6.587  -0.615   0.429  0.00  0.00    -0.082 Cl
ATOM     19  C   UNN dAMED      -4.760  -1.196  -1.474  0.00  0.00     0.013 A 
ATOM     20  C   UNN dAMED      -3.533  -0.998  -2.121  0.00  0.00     0.021 A 
ENDBRANCH  12  14
BRANCH   7  21
ATOM     21  O   UNN dAMED       5.469   0.608   0.950  0.00  0.00    -0.328 OA
ATOM     22  C   UNN dAMED       6.201   0.733  -0.233  0.00  0.00     0.181 C 
ENDBRANCH   7  21
TORSDOF 2
