REMARK  5 active torsions:
REMARK  status: ('A' for Active; 'I' for Inactive)
REMARK    1  A    between atoms: S_2  and  C_6 
REMARK    2  A    between atoms: S_2  and  C_19 
REMARK    3  A    between atoms: C_5  and  N_18 
REMARK    4  A    between atoms: C_10  and  N_15 
REMARK       I    between atoms: N_15  and  C_16 
REMARK       I    between atoms: C_16  and  N_18 
REMARK    5  A    between atoms: C_19  and  C_20 
ROOT
ATOM      1  C   UNN dAMED      -1.820   1.662   3.075  0.00  0.00     0.020 A 
ATOM      2  C   UNN dAMED      -1.806   2.070   4.410  0.00  0.00     0.008 A 
ATOM      3  C   UNN dAMED      -0.850   0.792   2.551  0.00  0.00     0.086 A 
ATOM      4  C   UNN dAMED      -0.799   1.624   5.259  0.00  0.00     0.026 A 
ATOM      5  C   UNN dAMED       0.164   0.386   3.428  0.00  0.00     0.020 A 
ATOM      6  C   UNN dAMED       0.197   0.791   4.762  0.00  0.00     0.008 A 
ENDROOT
BRANCH   3   7
ATOM      7  N   UNN dAMED      -0.836   0.299   1.288  0.00  0.00    -0.191 NA
ATOM      8  C   UNN dAMED      -1.920   0.555   0.527  0.00  0.00     0.369 C 
ATOM      9  N   UNN dAMED      -2.847  -0.419   0.698  0.00  0.00    -0.189 NA
ATOM     10  O   UNN dAMED      -1.974   1.489  -0.272  0.00  0.00    -0.242 OA
BRANCH   9  11
ATOM     11  C   UNN dAMED      -4.021  -0.216   0.059  0.00  0.00     0.114 A 
ATOM     12  C   UNN dAMED      -4.422  -1.109  -0.943  0.00  0.00     0.022 A 
ATOM     13  C   UNN dAMED      -5.652  -0.983  -1.588  0.00  0.00     0.002 A 
ATOM     14  C   UNN dAMED      -6.516   0.050  -1.240  0.00  0.00     0.002 A 
ATOM     15  C   UNN dAMED      -6.152   0.950  -0.246  0.00  0.00     0.031 A 
ATOM     16  C   UNN dAMED      -4.924   0.805   0.399  0.00  0.00     0.158 A 
ATOM     17  F   UNN dAMED      -4.608   1.687   1.360  0.00  0.00    -0.203 F 
ENDBRANCH   9  11
ENDBRANCH   3   7
BRANCH   4  18
ATOM     18  S   UNN dAMED      -0.798   2.075   6.971  0.00  0.00    -0.102 SA
BRANCH  18  19
ATOM     19  C   UNN dAMED      -2.189   3.203   6.847  0.00  0.00     0.160 C 
BRANCH  19  20
ATOM     20  C   UNN dAMED      -3.101   3.439   8.027  0.00  0.00     0.197 C 
ATOM     21  O   UNN dAMED      -2.622   4.103   8.995  0.00  0.00    -0.647 OA
ATOM     22  O   UNN dAMED      -4.283   2.992   7.924  0.00  0.00    -0.647 OA
ENDBRANCH  19  20
ENDBRANCH  18  19
ENDBRANCH   4  18
TORSDOF 5
