REMARK  1 active torsions:
REMARK  status: ('A' for Active; 'I' for Inactive)
REMARK       I    between atoms: C_1  and  N_13 
REMARK    1  A    between atoms: C_7  and  N_13 
ROOT
ATOM      1  C   UNN dAMED       0.972   0.264   0.392  0.00  0.00     0.746 A 
ATOM      2  N   UNN dAMED       1.334  -0.438  -0.666  0.00  0.00    -0.025 NA
ATOM      3  N   UNN dAMED       2.103   0.560   1.107  0.00  0.00    -0.102 N 
ATOM      4  H   UNN dAMED       2.157   1.094   1.965  0.00  0.00     0.208 HD
ATOM      5  N   UNN dAMED       3.214   0.064   0.543  0.00  0.00    -0.123 NA
ATOM      6  C   UNN dAMED       2.693  -0.536  -0.530  0.00  0.00     0.272 A 
ATOM      7  N   UNN dAMED      -0.233   0.694   0.831  0.00  0.00    -0.060 NA
ATOM      8  N   UNN dAMED       3.492  -1.227  -1.481  0.00  0.00    -0.058 NA
ENDROOT
BRANCH   7   9
ATOM      9  C   UNN dAMED      -1.331   0.518   0.065  0.00  0.00     0.100 A 
ATOM     10  C   UNN dAMED      -1.558  -0.555  -0.810  0.00  0.00     0.020 A 
ATOM     11  C   UNN dAMED      -2.744  -0.689  -1.536  0.00  0.00     0.002 A 
ATOM     12  C   UNN dAMED      -3.758   0.249  -1.381  0.00  0.00     0.000 A 
ATOM     13  C   UNN dAMED      -3.580   1.312  -0.506  0.00  0.00     0.002 A 
ATOM     14  C   UNN dAMED      -2.386   1.432   0.206  0.00  0.00     0.020 A 
ENDBRANCH   7   9
TORSDOF 1
