REMARK  0 active torsions:
REMARK  status: ('A' for Active; 'I' for Inactive)
ROOT
ATOM      1  O   UNN dAMED      -0.189   0.896  -0.078  0.00  0.00    -0.307 OA
ATOM      2  O   UNN dAMED       1.729  -2.668   0.329  0.00  0.00    -0.286 OA
ATOM      3  C   UNN dAMED      -3.011   1.003  -0.300  0.00  0.00     0.002 A 
ATOM      4  C   UNN dAMED      -4.397   1.030  -0.434  0.00  0.00     0.000 A 
ATOM      5  C   UNN dAMED      -2.336  -0.215  -0.206  0.00  0.00     0.023 A 
ATOM      6  C   UNN dAMED      -5.115  -0.162  -0.473  0.00  0.00     0.000 A 
ATOM      7  C   UNN dAMED      -3.060  -1.405  -0.246  0.00  0.00     0.002 A 
ATOM      8  C   UNN dAMED      -0.890  -0.296  -0.062  0.00  0.00     0.103 A 
ATOM      9  C   UNN dAMED      -0.298  -1.485   0.067  0.00  0.00     0.067 A 
ATOM     10  C   UNN dAMED      -4.447  -1.380  -0.379  0.00  0.00     0.000 A 
ATOM     11  C   UNN dAMED       1.191  -1.579   0.211  0.00  0.00     0.200 A 
ATOM     12  C   UNN dAMED       1.921  -0.319   0.200  0.00  0.00     0.065 A 
ATOM     13  C   UNN dAMED       1.846   2.053   0.043  0.00  0.00     0.028 A 
ATOM     14  C   UNN dAMED       3.240   2.077   0.173  0.00  0.00     0.044 A 
ATOM     15  C   UNN dAMED       1.173   0.840   0.056  0.00  0.00     0.103 A 
ATOM     16  C   UNN dAMED       4.033   0.924   0.321  0.00  0.00     0.196 A 
ATOM     17  C   UNN dAMED       3.310  -0.280   0.328  0.00  0.00     0.047 A 
ATOM     18  O   UNN dAMED       5.300   0.969   0.437  0.00  0.00    -0.287 OA
ENDROOT
TORSDOF 0
