REMARK  3 active torsions:
REMARK  status: ('A' for Active; 'I' for Inactive)
REMARK    1  A    between atoms: S_1  and  C_18 
REMARK    2  A    between atoms: S_1  and  C_19 
REMARK    3  A    between atoms: C_7  and  S_25 
ROOT
ATOM      1 CL   UNN dAMED       1.101  -2.964   0.488  0.00  0.00    -0.082 Cl
ATOM      2  N   UNN dAMED       1.288   1.308  -0.904  0.00  0.00    -0.245 NA
ATOM      3  C   UNN dAMED       3.596   1.438  -0.467  0.00  0.00     0.020 A 
ATOM      4  C   UNN dAMED       4.791   0.898   0.001  0.00  0.00     0.015 A 
ATOM      5  C   UNN dAMED       2.411   0.713  -0.470  0.00  0.00     0.082 A 
ATOM      6  C   UNN dAMED       4.787  -0.401   0.473  0.00  0.00     0.114 A 
ATOM      7  C   UNN dAMED       2.428  -0.617  -0.005  0.00  0.00     0.029 A 
ATOM      8  C   UNN dAMED       3.632  -1.170   0.463  0.00  0.00     0.016 A 
ATOM      9  C   UNN dAMED       1.214  -1.320  -0.025  0.00  0.00     0.061 A 
ATOM     10  C   UNN dAMED       0.046  -0.699  -0.453  0.00  0.00     0.031 A 
ATOM     11  C   UNN dAMED      -2.136   0.784  -1.954  0.00  0.00     0.002 A 
ATOM     12  C   UNN dAMED      -3.259   1.529  -2.312  0.00  0.00     0.001 A 
ATOM     13  C   UNN dAMED      -1.067   1.378  -1.276  0.00  0.00     0.018 A 
ATOM     14  C   UNN dAMED       0.118   0.619  -0.880  0.00  0.00     0.082 A 
ATOM     15  C   UNN dAMED      -1.159   2.744  -0.976  0.00  0.00     0.008 A 
ATOM     16  C   UNN dAMED      -3.321   2.887  -2.004  0.00  0.00     0.006 A 
ATOM     17  C   UNN dAMED      -2.263   3.511  -1.345  0.00  0.00     0.029 A 
ENDROOT
BRANCH  17  18
ATOM     18  S   UNN dAMED      -2.423   5.226  -0.902  0.00  0.00    -0.087 SA
BRANCH  18  19
ATOM     19  C   UNN dAMED      -0.740   5.784  -0.787  0.00  0.00     0.029 A 
ATOM     20  C   UNN dAMED      -0.154   6.478  -1.844  0.00  0.00     0.006 A 
ATOM     21  C   UNN dAMED       1.131   7.002  -1.710  0.00  0.00     0.001 A 
ATOM     22  C   UNN dAMED       1.832   6.836  -0.518  0.00  0.00     0.000 A 
ATOM     23  C   UNN dAMED       1.248   6.151   0.543  0.00  0.00     0.001 A 
ATOM     24  C   UNN dAMED      -0.041   5.640   0.413  0.00  0.00     0.006 A 
ENDBRANCH  18  19
ENDBRANCH  17  18
BRANCH   6  25
ATOM     25  S   UNN dAMED       6.269  -1.086   1.089  0.00  0.00     0.334 S 
ATOM     26  O   UNN dAMED       6.834  -1.910   0.041  0.00  0.00    -0.189 OA
ATOM     27  O   UNN dAMED       6.007  -1.592   2.421  0.00  0.00    -0.189 OA
ATOM     28  F   UNN dAMED       7.290   0.112   1.286  0.00  0.00    -0.100 F 
ENDBRANCH   6  25
TORSDOF 3
