REMARK  0 active torsions:
REMARK  status: ('A' for Active; 'I' for Inactive)
ROOT
ATOM      1  N   UNN dAMED       1.189  -0.505  -0.000  0.00  0.00    -0.308 N 
ATOM      2  C   UNN dAMED       0.335  -1.674   0.000  0.00  0.00     0.077 A 
ATOM      3  C   UNN dAMED      -1.012  -1.537   0.000  0.00  0.00     0.015 A 
ATOM      4  C   UNN dAMED      -1.728  -0.229  -0.000  0.00  0.00    -0.017 A 
ATOM      5  C   UNN dAMED      -0.923   0.868   0.000  0.00  0.00     0.035 A 
ATOM      6  C   UNN dAMED       0.563   0.716  -0.000  0.00  0.00     0.165 A 
ATOM      7  C   UNN dAMED      -2.448   1.087   0.000  0.00  0.00     0.031 C 
ATOM      8  C   UNN dAMED       2.636  -0.484   0.000  0.00  0.00     0.132 C 
ATOM      9  N   UNN dAMED       1.389   1.758   0.000  0.00  0.00    -0.129 N 
ENDROOT
TORSDOF 0
