REMARK  3 active torsions:
REMARK  status: ('A' for Active; 'I' for Inactive)
REMARK    1  A    between atoms: C_2  and  O_10 
REMARK    2  A    between atoms: C_5  and  C_7 
REMARK    3  A    between atoms: O_10  and  C_11 
ROOT
ATOM      1  C   UNN dAMED       0.226  -1.598   0.502  0.00  0.00     0.024 A 
ATOM      2  C   UNN dAMED       1.084  -0.546   0.210  0.00  0.00     0.094 A 
ATOM      3  C   UNN dAMED      -1.149  -1.392   0.420  0.00  0.00     0.008 A 
ATOM      4  C   UNN dAMED       0.599   0.701  -0.161  0.00  0.00     0.024 A 
ATOM      5  C   UNN dAMED      -1.667  -0.147   0.044  0.00  0.00     0.065 A 
ATOM      6  C   UNN dAMED      -0.777   0.894  -0.246  0.00  0.00     0.008 A 
ENDROOT
BRANCH   2   7
ATOM      7  O   UNN dAMED       2.429  -0.740   0.297  0.00  0.00    -0.333 OA
BRANCH   7   8
ATOM      8  C   UNN dAMED       2.813  -0.113   1.484  0.00  0.00     0.121 C 
ATOM      9  C   UNN dAMED       4.003  -0.666   2.275  0.00  0.00     0.033 C 
ATOM     10  C   UNN dAMED       2.298   1.296   1.792  0.00  0.00     0.033 C 
ENDBRANCH   7   8
ENDBRANCH   2   7
BRANCH   5  11
ATOM     11  C   UNN dAMED      -3.146   0.070  -0.048  0.00  0.00     0.211 C 
ATOM     12  O   UNN dAMED      -3.884  -0.964  -0.024  0.00  0.00    -0.644 OA
ATOM     13  O   UNN dAMED      -3.549   1.271  -0.143  0.00  0.00    -0.644 OA
ENDBRANCH   5  11
TORSDOF 3
