REMARK  1 active torsions:
REMARK  status: ('A' for Active; 'I' for Inactive)
REMARK       I    between atoms: C_8  and  N_11 
REMARK    1  A    between atoms: N_11  and  S_12 
ROOT
ATOM      1  C   UNN dAMED      -3.356  -0.698  -1.306  0.00  0.00     0.002 A 
ATOM      2  C   UNN dAMED      -3.803  -0.112  -0.122  0.00  0.00     0.002 A 
ATOM      3  C   UNN dAMED      -1.992  -0.833  -1.576  0.00  0.00     0.021 A 
ATOM      4  C   UNN dAMED      -2.912   0.366   0.843  0.00  0.00     0.019 A 
ATOM      5  C   UNN dAMED      -1.081  -0.355  -0.621  0.00  0.00     0.116 A 
ATOM      6  C   UNN dAMED      -1.557   0.224   0.547  0.00  0.00     0.091 A 
ATOM      7  N   UNN dAMED       0.293  -0.356  -0.637  0.00  0.00    -0.059 NA
ATOM      8  C   UNN dAMED       0.677   0.221   0.491  0.00  0.00     0.738 A 
ATOM      9  N   UNN dAMED      -0.426   0.575   1.236  0.00  0.00    -0.184 N 
ATOM     10  H   UNN dAMED      -0.400   1.024   2.142  0.00  0.00     0.184 HD
ATOM     11  N   UNN dAMED       1.921   0.470   0.962  0.00  0.00     0.028 NA
ENDROOT
BRANCH  11  12
ATOM     12  S   UNN dAMED       3.012   0.079  -0.127  0.00  0.00     0.281 S 
ATOM     13  O   UNN dAMED       3.724  -1.163   0.157  0.00  0.00    -0.202 OA
ATOM     14  O   UNN dAMED       3.861   1.186  -0.554  0.00  0.00    -0.202 OA
ATOM     15  C   UNN dAMED       2.028  -0.301  -1.574  0.00  0.00     0.166 C 
ENDBRANCH  11  12
TORSDOF 1
