REMARK  2 active torsions:
REMARK  status: ('A' for Active; 'I' for Inactive)
REMARK    1  A    between atoms: N_4  and  C_12 
REMARK    2  A    between atoms: C_11  and  C_12 
ROOT
ATOM      1  C   UNN dAMED      -0.977   0.105  -0.670  0.00  0.00     0.323 C 
ATOM      2  C   UNN dAMED       1.073   0.418   0.352  0.00  0.00     0.129 C 
ATOM      3  C   UNN dAMED       0.670  -1.269   0.093  0.00  0.00     0.185 C 
ATOM      4  N   UNN dAMED       1.123  -0.725   1.415  0.00  0.00    -0.215 NA
ATOM      5  H   UNN dAMED      -0.021   1.982  -0.373  0.00  0.00     0.171 HD
ATOM      6  N   UNN dAMED      -0.144   1.022  -0.076  0.00  0.00    -0.296 N 
ATOM      7  N   UNN dAMED      -0.694  -1.184  -0.290  0.00  0.00    -0.313 N 
ATOM      8  O   UNN dAMED      -1.871   0.405  -1.457  0.00  0.00    -0.247 OA
ATOM      9  H   UNN dAMED      -1.015  -2.012  -0.775  0.00  0.00     0.166 HD
ENDROOT
BRANCH   4  10
ATOM     10  C   UNN dAMED       0.432   0.584   1.019  0.00  0.00     0.115 C 
BRANCH  10  11
ATOM     11  C   UNN dAMED      -0.869   1.011   1.723  0.00  0.00     0.200 C 
ATOM     12  O   UNN dAMED      -0.847   1.561   2.980  0.00  0.00    -0.219 OA
ENDBRANCH  10  11
ENDBRANCH   4  10
TORSDOF 2
