REMARK  4 active torsions:
REMARK  status: ('A' for Active; 'I' for Inactive)
REMARK    1  A    between atoms: C_5  and  C_8 
REMARK    2  A    between atoms: C_6  and  C_11 
REMARK    3  A    between atoms: C_11  and  C_12 
REMARK    4  A    between atoms: C_12  and  O_14 
ROOT
ATOM      1 CL   UNN dAMED      -2.774  -2.935   0.777  0.00  0.00    -0.043 Cl
ATOM      2  N   UNN dAMED      -2.408  -0.267   0.582  0.00  0.00    -0.213 NA
ATOM      3  N   UNN dAMED      -0.772  -1.550  -0.247  0.00  0.00    -0.328 N 
ATOM      4  H   UNN dAMED      -0.262  -2.382  -0.516  0.00  0.00     0.168 HD
ATOM      5  C   UNN dAMED      -1.418   0.524   0.047  0.00  0.00     0.152 A 
ATOM      6  C   UNN dAMED      -0.408  -0.257  -0.451  0.00  0.00     0.086 A 
ATOM      7  C   UNN dAMED      -1.979  -1.490   0.381  0.00  0.00     0.202 A 
ENDROOT
BRANCH   6   8
ATOM      8  C   UNN dAMED       0.728   0.223  -1.307  0.00  0.00     0.087 C 
BRANCH   8   9
ATOM      9  C   UNN dAMED       2.169  -0.147  -1.051  0.00  0.00     0.297 C 
ATOM     10  O   UNN dAMED       2.515  -0.489   0.072  0.00  0.00    -0.259 OA
BRANCH   9  11
ATOM     11  O   UNN dAMED       3.038  -0.042  -2.092  0.00  0.00    -0.296 OA
ATOM     12  C   UNN dAMED       4.273   0.269  -1.520  0.00  0.00     0.185 C 
ENDBRANCH   9  11
ENDBRANCH   8   9
ENDBRANCH   6   8
BRANCH   5  13
ATOM     13  C   UNN dAMED      -1.506   1.954   0.012  0.00  0.00     0.285 C 
ATOM     14  O   UNN dAMED      -0.544   2.686  -0.178  0.00  0.00    -0.269 OA
ATOM     15  N   UNN dAMED      -2.782   2.547   0.231  0.00  0.00    -0.056 NA
ENDBRANCH   5  13
TORSDOF 4
