REMARK  2 active torsions:
REMARK  status: ('A' for Active; 'I' for Inactive)
REMARK    1  A    between atoms: N_1  and  C_16 
REMARK    2  A    between atoms: N_2  and  C_6 
ROOT
ATOM      1  N   UNN dAMED       2.312  -0.002  -1.877  0.00  0.00    -0.148 NA
ATOM      2  N   UNN dAMED       2.362   0.054  -0.521  0.00  0.00    -0.214 N 
ATOM      3  C   UNN dAMED       1.114   0.024   0.037  0.00  0.00     0.174 A 
ATOM      4  C   UNN dAMED       0.204  -0.037  -0.976  0.00  0.00     0.166 A 
ATOM      5  C   UNN dAMED       1.001  -0.073  -2.127  0.00  0.00     0.193 A 
ATOM      6  C   UNN dAMED       4.094  -1.004   0.765  0.00  0.00     0.019 A 
ATOM      7  C   UNN dAMED       3.576   0.138   0.161  0.00  0.00     0.084 A 
ATOM      8  C   UNN dAMED       5.308  -0.913   1.442  0.00  0.00     0.002 A 
ATOM      9  C   UNN dAMED       5.991   0.302   1.499  0.00  0.00     0.000 A 
ATOM     10  C   UNN dAMED       4.245   1.358   0.204  0.00  0.00     0.019 A 
ATOM     11  C   UNN dAMED       5.462   1.434   0.878  0.00  0.00     0.002 A 
ATOM     12  N   UNN dAMED       0.460  -0.115  -3.440  0.00  0.00    -0.076 NA
ATOM     13  N   UNN dAMED       0.830   0.055   1.428  0.00  0.00    -0.078 NA
ENDROOT
BRANCH   4  14
ATOM     14  N   UNN dAMED      -1.187  -0.098  -0.878  0.00  0.00    -0.143 NA
ATOM     15  N   UNN dAMED      -1.745   0.382  -1.888  0.00  0.00    -0.148 NA
BRANCH  15  16
ATOM     16  C   UNN dAMED      -3.151   0.322  -1.835  0.00  0.00     0.103 A 
ATOM     17  C   UNN dAMED      -3.875   1.046  -2.789  0.00  0.00     0.021 A 
ATOM     18  C   UNN dAMED      -5.270   1.010  -2.815  0.00  0.00    -0.003 A 
ATOM     19  C   UNN dAMED      -5.958   0.243  -1.880  0.00  0.00    -0.022 A 
ATOM     20  C   UNN dAMED      -5.256  -0.492  -0.930  0.00  0.00    -0.003 A 
ATOM     21  C   UNN dAMED      -7.459   0.202  -1.895  0.00  0.00     0.031 C 
ATOM     22  C   UNN dAMED      -3.863  -0.458  -0.916  0.00  0.00     0.021 A 
ENDBRANCH  15  16
ENDBRANCH   4  14
TORSDOF 2
