REMARK  2 active torsions:
REMARK  status: ('A' for Active; 'I' for Inactive)
REMARK    1  A    between atoms: N_6  and  C_13 
REMARK    2  A    between atoms: C_13  and  C_14 
ROOT
ATOM      1  N   UNN dAMED      -2.623   0.203  -0.054  0.00  0.00    -0.203 NA
ATOM      2  N   UNN dAMED      -0.760  -1.302  -0.194  0.00  0.00    -0.317 N 
ATOM      3  S   UNN dAMED      -2.303   2.793   0.779  0.00  0.00    -0.056 SA
ATOM      4  H   UNN dAMED      -0.437  -2.242  -0.399  0.00  0.00     0.169 HD
ATOM      5  N   UNN dAMED       0.659   1.724   0.921  0.00  0.00    -0.226 NA
ATOM      6  N   UNN dAMED       1.367  -0.348   0.491  0.00  0.00    -0.200 NA
ATOM      7  C   UNN dAMED      -1.809   1.245   0.395  0.00  0.00     0.158 A 
ATOM      8  C   UNN dAMED      -0.398   0.937   0.539  0.00  0.00     0.137 A 
ATOM      9  C   UNN dAMED       0.041  -0.324   0.239  0.00  0.00     0.124 A 
ATOM     10  C   UNN dAMED       1.719   0.939   0.816  0.00  0.00     0.154 A 
ATOM     11  C   UNN dAMED      -2.103  -0.972  -0.319  0.00  0.00     0.217 A 
ATOM     12  N   UNN dAMED      -2.990  -1.995  -0.764  0.00  0.00    -0.061 NA
ENDROOT
BRANCH   6  13
ATOM     13  C   UNN dAMED       2.051  -0.716  -0.700  0.00  0.00     0.085 C 
BRANCH  13  14
ATOM     14  C   UNN dAMED       1.840   0.089  -1.987  0.00  0.00     0.018 C 
ATOM     15  C   UNN dAMED       1.972   1.615  -1.966  0.00  0.00     0.002 C 
ENDBRANCH  13  14
ENDBRANCH   6  13
TORSDOF 2
