REMARK  2 active torsions:
REMARK  status: ('A' for Active; 'I' for Inactive)
REMARK    1  A    between atoms: C_1  and  C_12 
REMARK    2  A    between atoms: C_1  and  C_14 
ROOT
ATOM      1  C   UNN dAMED      -3.934   1.401   0.880  0.00  0.00     0.031 A 
ATOM      2  C   UNN dAMED      -2.515   1.384   0.380  0.00  0.00    -0.022 A 
ATOM      3  C   UNN dAMED      -4.329  -0.086   0.963  0.00  0.00     0.031 A 
ATOM      4  C   UNN dAMED      -3.099  -0.826   0.512  0.00  0.00    -0.022 A 
ATOM      5  C   UNN dAMED      -1.670   2.434   0.083  0.00  0.00    -0.004 A 
ATOM      6  C   UNN dAMED      -2.100   0.077   0.198  0.00  0.00    -0.008 A 
ATOM      7  C   UNN dAMED      -2.883  -2.181   0.378  0.00  0.00    -0.004 A 
ATOM      8  C   UNN dAMED      -0.392   2.129  -0.407  0.00  0.00     0.001 A 
ATOM      9  C   UNN dAMED      -0.835  -0.285  -0.260  0.00  0.00     0.001 A 
ATOM     10  C   UNN dAMED      -1.621  -2.599  -0.063  0.00  0.00    -0.000 A 
ATOM     11  C   UNN dAMED       0.028   0.793  -0.574  0.00  0.00     0.020 A 
ATOM     12  C   UNN dAMED      -0.605  -1.674  -0.370  0.00  0.00     0.000 A 
ENDROOT
BRANCH  11  13
ATOM     13  C   UNN dAMED       1.416   0.563  -1.061  0.00  0.00     0.111 C 
ATOM     14  N   UNN dAMED       1.767   0.040  -2.202  0.00  0.00    -0.096 NA
ATOM     15  O   UNN dAMED       0.764  -0.314  -3.065  0.00  0.00    -0.061 OA
BRANCH  13  16
ATOM     16  C   UNN dAMED       2.508   1.022  -0.171  0.00  0.00     0.020 A 
ATOM     17  C   UNN dAMED       2.547   0.635   1.166  0.00  0.00     0.002 A 
ATOM     18  C   UNN dAMED       3.584   1.094   1.975  0.00  0.00     0.000 A 
ATOM     19  C   UNN dAMED       4.583   1.910   1.443  0.00  0.00     0.000 A 
ATOM     20  C   UNN dAMED       4.542   2.284   0.102  0.00  0.00     0.000 A 
ATOM     21  C   UNN dAMED       3.497   1.848  -0.707  0.00  0.00     0.002 A 
ENDBRANCH  13  16
ENDBRANCH  11  13
TORSDOF 2
