REMARK  4 active torsions:
REMARK  status: ('A' for Active; 'I' for Inactive)
REMARK    1  A    between atoms: C_10  and  O_13 
REMARK    2  A    between atoms: C_12  and  C_17 
REMARK    3  A    between atoms: C_17  and  C_18 
REMARK    4  A    between atoms: C_18  and  C_19 
ROOT
ATOM      1  O   UNN dAMED       4.159   0.994  -2.861  0.00  0.00    -0.289 OA
ATOM      2  O   UNN dAMED       1.752  -1.089  -2.433  0.00  0.00    -0.354 OA
ATOM      3  O   UNN dAMED       0.668   3.233  -0.311  0.00  0.00    -0.351 OA
ATOM      4  C   UNN dAMED       2.754   2.102  -0.145  0.00  0.00     0.041 C 
ATOM      5  C   UNN dAMED       1.271   1.923  -0.296  0.00  0.00     0.154 A 
ATOM      6  C   UNN dAMED       3.483   2.675  -1.352  0.00  0.00     0.074 C 
ATOM      7  C   UNN dAMED       3.381   1.914  -2.647  0.00  0.00     0.194 C 
ATOM      8  C   UNN dAMED      -0.065   2.232   0.337  0.00  0.00     0.172 A 
ATOM      9  C   UNN dAMED       1.059   1.091  -1.527  0.00  0.00     0.217 C 
ATOM     10  C   UNN dAMED       1.872   1.668  -2.751  0.00  0.00     0.138 C 
ATOM     11  C   UNN dAMED       1.526  -0.296  -1.264  0.00  0.00     0.151 A 
ATOM     12  C   UNN dAMED       0.478  -1.284  -1.885  0.00  0.00     0.143 A 
ATOM     13  C   UNN dAMED       0.562  -1.052  -0.277  0.00  0.00     0.035 C 
ATOM     14  O   UNN dAMED      -0.229   1.045  -1.786  0.00  0.00    -0.214 OA
ENDROOT
BRANCH  10  15
ATOM     15  O   UNN dAMED       1.337   1.568  -4.094  0.00  0.00    -0.327 OA
ATOM     16  C   UNN dAMED       1.136   1.169  -2.728  0.00  0.00     0.181 C 
ENDBRANCH  10  15
BRANCH  12  17
ATOM     17  C   UNN dAMED       0.135  -2.587  -1.172  0.00  0.00     0.032 C 
BRANCH  17  18
ATOM     18  C   UNN dAMED       0.664  -3.883  -1.764  0.00  0.00     0.003 C 
BRANCH  18  19
ATOM     19  C   UNN dAMED       0.079  -4.443  -2.958  0.00  0.00     0.000 C 
ATOM     20  C   UNN dAMED       0.795  -3.742  -1.482  0.00  0.00     0.000 C 
ATOM     21  C   UNN dAMED       0.808  -3.744  -1.468  0.00  0.00     0.000 C 
ENDBRANCH  18  19
ENDBRANCH  17  18
ENDBRANCH  12  17
TORSDOF 4
