REMARK  0 active torsions:
REMARK  status: ('A' for Active; 'I' for Inactive)
ROOT
ATOM      1  S   UNN dAMED       0.454  -1.940  -0.000  0.00  0.00    -0.030 SA
ATOM      2  N   UNN dAMED       0.982   0.546  -0.000  0.00  0.00    -0.292 N 
ATOM      3  O   UNN dAMED       2.899  -0.812  -0.000  0.00  0.00    -0.259 OA
ATOM      4  C   UNN dAMED      -2.305  -0.831   0.000  0.00  0.00     0.035 A 
ATOM      5  C   UNN dAMED      -2.751   0.647   0.000  0.00  0.00     0.011 A 
ATOM      6  C   UNN dAMED      -0.809  -0.767   0.000  0.00  0.00     0.023 A 
ATOM      7  C   UNN dAMED      -0.357   0.491  -0.000  0.00  0.00     0.043 A 
ATOM      8  C   UNN dAMED      -1.462   1.496   0.000  0.00  0.00     0.044 A 
ATOM      9  C   UNN dAMED       1.696  -0.621  -0.000  0.00  0.00     0.292 A 
ATOM     10  C   UNN dAMED       1.652   1.791  -0.000  0.00  0.00     0.134 C 
ENDROOT
TORSDOF 0
