REMARK  1 active torsions:
REMARK  status: ('A' for Active; 'I' for Inactive)
REMARK    1  A    between atoms: C_7  and  N_17 
ROOT
ATOM      1  C   UNN dAMED      -0.659  -1.802   1.084  0.00  0.00     0.138 A 
ATOM      2  C   UNN dAMED      -2.123  -1.468   0.945  0.00  0.00     0.137 A 
ATOM      3  C   UNN dAMED       1.384  -0.861   0.350  0.00  0.00     0.197 C 
ATOM      4  C   UNN dAMED       3.445  -1.369   0.708  0.00  0.00     0.137 C 
ATOM      5  C   UNN dAMED      -3.374   0.271  -0.099  0.00  0.00     0.201 A 
ATOM      6  C   UNN dAMED      -0.877   0.133  -0.133  0.00  0.00     0.335 A 
ATOM      7  C   UNN dAMED       3.445  -0.237  -0.064  0.00  0.00     0.191 C 
ATOM      8  C   UNN dAMED      -5.675   0.609  -0.344  0.00  0.00     0.161 A 
ATOM      9  N   UNN dAMED       2.151  -0.001  -0.388  0.00  0.00    -0.181 NA
ATOM     10  N   UNN dAMED       2.143  -1.759   0.950  0.00  0.00    -0.213 NA
ATOM     11  O   UNN dAMED      -0.589   1.138  -0.778  0.00  0.00    -0.246 OA
ATOM     12  N   UNN dAMED       0.034  -0.777   0.399  0.00  0.00    -0.255 N 
ATOM     13  N   UNN dAMED      -2.171  -0.282   0.175  0.00  0.00    -0.258 N 
ATOM     14  S   UNN dAMED      -4.738  -0.706   0.205  0.00  0.00    -0.025 SA
ATOM     15  N   UNN dAMED      -3.635   1.472  -0.565  0.00  0.00    -0.123 NA
ATOM     16  N   UNN dAMED      -4.999   1.672  -0.714  0.00  0.00    -0.137 NA
ATOM     17  C   UNN dAMED       1.818   1.338  -0.045  0.00  0.00     0.104 C 
ENDROOT
BRANCH   7  18
ATOM     18  N   UNN dAMED       4.500   0.580  -0.516  0.00  0.00    -0.101 N 
ATOM     19  O   UNN dAMED       4.298   1.799  -0.536  0.00  0.00    -0.531 OA
ATOM     20  O   UNN dAMED       5.544   0.003  -0.838  0.00  0.00    -0.531 OA
ENDBRANCH   7  18
TORSDOF 1
