REMARK  1 active torsions:
REMARK  status: ('A' for Active; 'I' for Inactive)
REMARK    1  A    between atoms: C_1  and  C_11 
ROOT
ATOM      1  C   UNN dAMED       1.120  -0.269  -0.095  0.00  0.00     0.056 A 
ATOM      2  C   UNN dAMED      -0.130   0.353   0.029  0.00  0.00     0.001 A 
ATOM      3  C   UNN dAMED       1.281  -1.664  -0.194  0.00  0.00     0.194 A 
ATOM      4  C   UNN dAMED      -0.234   1.741   0.124  0.00  0.00    -0.000 A 
ATOM      5  C   UNN dAMED      -1.484   2.343   0.248  0.00  0.00    -0.000 A 
ATOM      6  C   UNN dAMED       0.082  -2.398  -0.158  0.00  0.00     0.042 A 
ATOM      7  C   UNN dAMED      -1.295  -0.434   0.060  0.00  0.00    -0.000 A 
ATOM      8  C   UNN dAMED      -2.637   1.562   0.278  0.00  0.00    -0.000 A 
ATOM      9  C   UNN dAMED      -1.182  -1.815  -0.034  0.00  0.00     0.003 A 
ATOM     10  C   UNN dAMED      -2.544   0.175   0.184  0.00  0.00    -0.000 A 
ATOM     11  O   UNN dAMED       2.423  -2.217  -0.307  0.00  0.00    -0.287 OA
ENDROOT
BRANCH   1  12
ATOM     12  C   UNN dAMED       2.351   0.594  -0.120  0.00  0.00     0.368 C 
ATOM     13  N   UNN dAMED       2.343   1.853  -0.845  0.00  0.00     0.624 N 
ENDBRANCH   1  12
TORSDOF 1
