REMARK  2 active torsions:
REMARK  status: ('A' for Active; 'I' for Inactive)
REMARK    1  A    between atoms: C_8  and  S_10 
REMARK    2  A    between atoms: S_10  and  C_11 
ROOT
ATOM      1  H   UNN dAMED       1.126  -1.179   0.044  0.00  0.00     0.168 HD
ATOM      2  N   UNN dAMED       0.275  -0.629   0.016  0.00  0.00    -0.337 N 
ATOM      3  S   UNN dAMED      -3.393   1.778  -0.178  0.00  0.00    -0.057 SA
ATOM      4  N   UNN dAMED      -0.699   1.559  -0.085  0.00  0.00    -0.212 NA
ATOM      5  C   UNN dAMED      -0.905  -1.314  -0.018  0.00  0.00     0.038 A 
ATOM      6  C   UNN dAMED      -2.011  -0.572  -0.086  0.00  0.00     0.043 A 
ATOM      7  C   UNN dAMED      -1.936   0.948  -0.101  0.00  0.00     0.139 A 
ATOM      8  C   UNN dAMED       0.311   0.743  -0.030  0.00  0.00     0.169 A 
ATOM      9  C   UNN dAMED      -0.905  -2.813  -0.007  0.00  0.00     0.050 C 
ENDROOT
BRANCH   8  10
ATOM     10  S   UNN dAMED       1.922   1.452  -0.014  0.00  0.00    -0.077 SA
BRANCH  10  11
ATOM     11  C   UNN dAMED       2.710   0.059  -0.816  0.00  0.00     0.065 C 
ATOM     12  C   UNN dAMED       4.235   0.017  -0.953  0.00  0.00     0.013 C 
ENDBRANCH  10  11
ENDBRANCH   8  10
TORSDOF 2
