REMARK  4 active torsions:
REMARK  status: ('A' for Active; 'I' for Inactive)
REMARK    1  A    between atoms: C_3  and  N_17 
REMARK    2  A    between atoms: C_6  and  C_14 
REMARK    3  A    between atoms: C_8  and  N_20 
REMARK    4  A    between atoms: C_10  and  N_21 
REMARK       I    between atoms: N_17  and  C_18 
REMARK       I    between atoms: C_18  and  N_20 
ROOT
ATOM      1  N   UNN dAMED      -1.162   0.581  -1.132  0.00  0.00    -0.191 NA
ATOM      2  C   UNN dAMED      -0.562  -0.389  -1.861  0.00  0.00     0.369 C 
ATOM      3  O   UNN dAMED      -1.136  -1.263  -2.509  0.00  0.00    -0.242 OA
ATOM      4  N   UNN dAMED       0.771  -0.177  -1.895  0.00  0.00    -0.191 NA
ENDROOT
BRANCH   1   5
ATOM      5  C   UNN dAMED      -2.244   0.146  -0.455  0.00  0.00     0.082 A 
ATOM      6  C   UNN dAMED      -2.142  -0.640   0.703  0.00  0.00    -0.004 A 
ATOM      7  C   UNN dAMED      -3.279  -1.060   1.393  0.00  0.00    -0.003 A 
ATOM      8  C   UNN dAMED      -0.785  -1.068   1.190  0.00  0.00     0.033 C 
ATOM      9  C   UNN dAMED      -4.541  -0.682   0.946  0.00  0.00    -0.001 A 
ATOM     10  C   UNN dAMED      -4.662   0.111  -0.189  0.00  0.00    -0.006 A 
ATOM     11  C   UNN dAMED      -3.524   0.522  -0.877  0.00  0.00     0.018 A 
BRANCH  10  12
ATOM     12  C   UNN dAMED      -6.014   0.556  -0.662  0.00  0.00    -0.043 C 
ATOM     13  C   UNN dAMED      -6.127   1.762  -1.601  0.00  0.00     0.026 C 
ATOM     14  C   UNN dAMED      -7.254  -0.280  -0.332  0.00  0.00     0.026 C 
ENDBRANCH  10  12
ENDBRANCH   1   5
BRANCH   4  15
ATOM     15  C   UNN dAMED       1.443  -0.989  -1.051  0.00  0.00     0.086 A 
ATOM     16  C   UNN dAMED       1.903  -0.507   0.187  0.00  0.00     0.021 A 
ATOM     17  C   UNN dAMED       2.659  -1.301   1.044  0.00  0.00     0.025 A 
ATOM     18  C   UNN dAMED       2.955  -2.593   0.632  0.00  0.00     0.127 A 
ATOM     19  C   UNN dAMED       2.528  -3.123  -0.577  0.00  0.00     0.025 A 
ATOM     20  C   UNN dAMED       1.783  -2.302  -1.417  0.00  0.00     0.021 A 
BRANCH  18  21
ATOM     21  N   UNN dAMED       3.732  -3.424   1.502  0.00  0.00    -0.114 N 
ATOM     22  O   UNN dAMED       3.124  -4.002   2.410  0.00  0.00    -0.532 OA
ATOM     23  O   UNN dAMED       4.946  -3.496   1.271  0.00  0.00    -0.532 OA
ENDBRANCH  18  21
ENDBRANCH   4  15
TORSDOF 4
