REMARK  2 active torsions:
REMARK  status: ('A' for Active; 'I' for Inactive)
REMARK    1  A    between atoms: C_9  and  N_17 
REMARK    2  A    between atoms: C_11  and  N_17 
ROOT
ATOM      1 CL   UNN dAMED       3.230   3.186   1.482  0.00  0.00    -0.041 Cl
ATOM      2  N   UNN dAMED       1.162   1.999   0.452  0.00  0.00    -0.198 NA
ATOM      3  N   UNN dAMED       3.182   0.676   0.821  0.00  0.00    -0.203 NA
ATOM      4  N   UNN dAMED       2.855  -1.638   0.190  0.00  0.00    -0.138 NA
ATOM      5  N   UNN dAMED       1.980  -2.412  -0.468  0.00  0.00    -0.188 NA
ATOM      6  C   UNN dAMED       2.441   1.802   0.847  0.00  0.00     0.226 A 
ATOM      7  C   UNN dAMED       2.465  -0.341   0.317  0.00  0.00     0.146 A 
ATOM      8  C   UNN dAMED       1.159  -0.299  -0.144  0.00  0.00     0.086 A 
ATOM      9  C   UNN dAMED       0.501   0.935  -0.079  0.00  0.00     0.169 A 
ATOM     10  C   UNN dAMED       0.909  -1.618  -0.588  0.00  0.00     0.120 C 
ATOM     11  C   UNN dAMED       4.107  -1.682  -0.482  0.00  0.00     0.123 C 
ENDROOT
BRANCH   9  12
ATOM     12  N   UNN dAMED      -0.778   1.076  -0.463  0.00  0.00    -0.227 NA
BRANCH  12  13
ATOM     13  C   UNN dAMED      -0.985   1.518  -1.727  0.00  0.00     0.083 A 
ATOM     14  C   UNN dAMED       0.008   1.818  -2.666  0.00  0.00     0.022 A 
ATOM     15  C   UNN dAMED      -0.305   2.264  -3.955  0.00  0.00     0.044 A 
ATOM     16  C   UNN dAMED      -1.618   2.445  -4.409  0.00  0.00     0.196 A 
ATOM     17  C   UNN dAMED      -2.598   2.138  -3.455  0.00  0.00     0.044 A 
ATOM     18  O   UNN dAMED      -1.897   2.851  -5.583  0.00  0.00    -0.287 OA
ATOM     19  C   UNN dAMED      -2.300   1.691  -2.162  0.00  0.00     0.022 A 
ENDBRANCH  12  13
ENDBRANCH   9  12
TORSDOF 2
