REMARK  3 active torsions:
REMARK  status: ('A' for Active; 'I' for Inactive)
REMARK    1  A    between atoms: C_2  and  N_17 
REMARK    2  A    between atoms: C_3  and  N_16 
REMARK    3  A    between atoms: C_12  and  N_16 
ROOT
ATOM      1  C   UNN dAMED       0.188  -0.904  -0.869  0.00  0.00     0.224 C 
ATOM      2  S   UNN dAMED       0.619  -2.556  -0.771  0.00  0.00    -0.037 SA
ATOM      3  N   UNN dAMED       1.002   0.129  -1.212  0.00  0.00    -0.198 NA
ENDROOT
BRANCH   1   4
ATOM      4  N   UNN dAMED      -1.054  -0.434  -0.591  0.00  0.00    -0.198 NA
BRANCH   4   5
ATOM      5  C   UNN dAMED      -2.053  -0.967  -1.335  0.00  0.00     0.165 A 
ATOM      6  N   UNN dAMED      -2.965  -1.691  -0.636  0.00  0.00    -0.231 NA
ATOM      7  C   UNN dAMED      -3.983  -2.271  -1.317  0.00  0.00     0.061 A 
ATOM      8  C   UNN dAMED      -4.144  -2.158  -2.687  0.00  0.00     0.015 A 
ATOM      9  C   UNN dAMED      -4.997  -3.065  -0.541  0.00  0.00     0.052 C 
ATOM     10  C   UNN dAMED      -3.220  -1.394  -3.387  0.00  0.00     0.004 A 
ATOM     11  C   UNN dAMED      -2.172  -0.778  -2.710  0.00  0.00     0.039 A 
ENDBRANCH   4   5
ENDBRANCH   1   4
BRANCH   3  12
ATOM     12  C   UNN dAMED       2.309   0.027  -0.878  0.00  0.00     0.165 A 
ATOM     13  N   UNN dAMED       2.629   0.087   0.441  0.00  0.00    -0.231 NA
ATOM     14  C   UNN dAMED       3.936  -0.045   0.782  0.00  0.00     0.061 A 
ATOM     15  C   UNN dAMED       4.955  -0.204  -0.144  0.00  0.00     0.015 A 
ATOM     16  C   UNN dAMED       4.297  -0.064   2.241  0.00  0.00     0.052 C 
ATOM     17  C   UNN dAMED       4.615  -0.222  -1.488  0.00  0.00     0.004 A 
ATOM     18  C   UNN dAMED       3.283  -0.104  -1.865  0.00  0.00     0.039 A 
ENDBRANCH   3  12
TORSDOF 3
