REMARK  3 active torsions:
REMARK  status: ('A' for Active; 'I' for Inactive)
REMARK    1  A    between atoms: C_5  and  N_7 
REMARK    2  A    between atoms: C_5  and  C_11 
REMARK       I    between atoms: N_7  and  C_9 
REMARK    3  A    between atoms: C_9  and  C_14 
ROOT
ATOM      1  C   UNN dAMED      -0.553   1.911  -1.188  0.00  0.00     0.003 C 
ATOM      2  C   UNN dAMED      -0.527   2.198   0.293  0.00  0.00     0.003 C 
ATOM      3  C   UNN dAMED      -0.871   0.424  -1.313  0.00  0.00     0.031 C 
ATOM      4  C   UNN dAMED      -0.684  -0.358   0.023  0.00  0.00     0.142 C 
ATOM      5  C   UNN dAMED      -0.831   0.869   0.976  0.00  0.00     0.031 C 
ENDROOT
BRANCH   4   6
ATOM      6  N   UNN dAMED       0.647  -0.895   0.123  0.00  0.00    -0.339 N 
ATOM      7  H   UNN dAMED       1.343  -0.335   0.608  0.00  0.00     0.164 HD
ATOM      8  C   UNN dAMED       1.095  -1.815  -0.801  0.00  0.00     0.247 C 
ATOM      9  O   UNN dAMED       2.275  -2.099  -0.973  0.00  0.00    -0.271 OA
BRANCH   8  10
ATOM     10  C   UNN dAMED       0.063  -2.502  -1.661  0.00  0.00     0.182 C 
ATOM     11 CL   UNN dAMED       0.085  -4.244  -1.903  0.00  0.00    -0.103 Cl
ENDBRANCH   8  10
ENDBRANCH   4   6
BRANCH   4  12
ATOM     12  C   UNN dAMED      -1.793  -1.350   0.245  0.00  0.00     0.204 C 
ATOM     13  O   UNN dAMED      -2.000  -1.654   1.452  0.00  0.00    -0.646 OA
ATOM     14  O   UNN dAMED      -2.389  -1.720  -0.804  0.00  0.00    -0.646 OA
ENDBRANCH   4  12
TORSDOF 3
