REMARK  3 active torsions:
REMARK  status: ('A' for Active; 'I' for Inactive)
REMARK    1  A    between atoms: C_3  and  O_14 
REMARK    2  A    between atoms: C_4  and  C_7 
REMARK    3  A    between atoms: C_8  and  C_9 
ROOT
ATOM      1  C   UNN dAMED      -0.484  -0.602   1.011  0.00  0.00     0.018 C 
ATOM      2  C   UNN dAMED      -1.417  -1.292   0.342  0.00  0.00     0.133 C 
ATOM      3  C   UNN dAMED      -2.082  -2.369   0.986  0.00  0.00     0.107 C 
ATOM      4  N   UNN dAMED      -2.618  -3.254   1.510  0.00  0.00    -0.191 NA
ENDROOT
BRANCH   2   5
ATOM      5  C   UNN dAMED      -1.937  -0.818  -1.002  0.00  0.00     0.221 C 
ATOM      6  O   UNN dAMED      -3.119  -0.368  -0.996  0.00  0.00    -0.643 OA
ATOM      7  O   UNN dAMED      -1.122  -0.929  -1.961  0.00  0.00    -0.643 OA
ENDBRANCH   2   5
BRANCH   1   8
ATOM      8  C   UNN dAMED       0.950  -0.477   0.538  0.00  0.00     0.023 A 
ATOM      9  C   UNN dAMED       1.358   0.576  -0.273  0.00  0.00     0.094 A 
ATOM     10  C   UNN dAMED       2.668   0.669  -0.731  0.00  0.00     0.024 A 
ATOM     11  C   UNN dAMED       3.592  -0.301  -0.354  0.00  0.00     0.002 A 
ATOM     12  C   UNN dAMED       3.204  -1.347   0.481  0.00  0.00     0.000 A 
ATOM     13  C   UNN dAMED       1.886  -1.435   0.924  0.00  0.00     0.002 A 
BRANCH   9  14
ATOM     14  O   UNN dAMED       0.465   1.542  -0.627  0.00  0.00    -0.328 OA
ATOM     15  C   UNN dAMED      -0.662   0.854  -1.083  0.00  0.00     0.181 C 
ENDBRANCH   9  14
ENDBRANCH   1   8
TORSDOF 3
