REMARK  3 active torsions:
REMARK  status: ('A' for Active; 'I' for Inactive)
REMARK    1  A    between atoms: C_3  and  N_18 
REMARK    2  A    between atoms: C_9  and  N_18 
REMARK    3  A    between atoms: C_10  and  S_14 
ROOT
ATOM      1  C   UNN dAMED      -0.309   1.027  -1.945  0.00  0.00     0.021 A 
ATOM      2  C   UNN dAMED      -1.139   0.741  -3.030  0.00  0.00     0.016 A 
ATOM      3  C   UNN dAMED      -0.461   0.407  -0.692  0.00  0.00     0.095 A 
ATOM      4  C   UNN dAMED      -1.550  -0.481  -0.571  0.00  0.00     0.123 A 
ATOM      5  C   UNN dAMED      -2.178  -0.169  -2.880  0.00  0.00     0.071 A 
ATOM      6  C   UNN dAMED      -2.388  -0.777  -1.650  0.00  0.00     0.029 A 
ATOM      7  N   UNN dAMED      -3.062  -0.434  -3.964  0.00  0.00    -0.101 NA
ENDROOT
BRANCH   3   8
ATOM      8  N   UNN dAMED       0.353   0.736   0.340  0.00  0.00    -0.245 NA
BRANCH   8   9
ATOM      9  C   UNN dAMED       1.656   0.383   0.233  0.00  0.00     0.081 A 
ATOM     10  C   UNN dAMED       2.132  -0.730  -0.479  0.00  0.00     0.019 A 
ATOM     11  C   UNN dAMED       3.489  -1.055  -0.522  0.00  0.00    -0.003 A 
ATOM     12  C   UNN dAMED       4.405  -0.285   0.185  0.00  0.00    -0.022 A 
ATOM     13  C   UNN dAMED       3.966   0.806   0.925  0.00  0.00    -0.003 A 
ATOM     14  C   UNN dAMED       5.872  -0.602   0.110  0.00  0.00     0.031 C 
ATOM     15  C   UNN dAMED       2.609   1.128   0.942  0.00  0.00     0.019 A 
ENDBRANCH   8   9
ENDBRANCH   3   8
BRANCH   4  16
ATOM     16  S   UNN dAMED      -1.920  -1.345   0.970  0.00  0.00     0.141 S 
ATOM     17  O   UNN dAMED      -1.809  -0.297   1.980  0.00  0.00    -0.591 OA
ATOM     18  O   UNN dAMED      -0.876  -2.365   0.993  0.00  0.00    -0.591 OA
ATOM     19  O   UNN dAMED      -3.276  -1.844   0.759  0.00  0.00    -0.591 OA
ENDBRANCH   4  16
TORSDOF 3
