REMARK  2 active torsions:
REMARK  status: ('A' for Active; 'I' for Inactive)
REMARK    1  A    between atoms: C_2  and  C_12 
REMARK    2  A    between atoms: C_2  and  C_19 
ROOT
ATOM      1  N   UNN dAMED      -0.316  -3.375   0.463  0.00  0.00    -0.246 NA
ATOM      2 CL   UNN dAMED      -6.926  -2.392  -0.015  0.00  0.00    -0.082 Cl
ATOM      3  C   UNN dAMED      -3.101  -2.994  -0.940  0.00  0.00     0.002 A 
ATOM      4  C   UNN dAMED      -4.493  -3.028  -0.967  0.00  0.00     0.011 A 
ATOM      5  C   UNN dAMED      -2.420  -2.315   0.076  0.00  0.00     0.018 A 
ATOM      6  C   UNN dAMED      -5.211  -2.371   0.026  0.00  0.00     0.058 A 
ATOM      7  C   UNN dAMED      -3.163  -1.671   1.072  0.00  0.00     0.002 A 
ATOM      8  C   UNN dAMED      -0.968  -2.251   0.073  0.00  0.00     0.081 A 
ATOM      9  C   UNN dAMED      -0.313  -1.102  -0.345  0.00  0.00     0.021 A 
ATOM     10  C   UNN dAMED      -4.555  -1.694   1.049  0.00  0.00     0.011 A 
ATOM     11  C   UNN dAMED       1.076  -1.100  -0.350  0.00  0.00     0.029 A 
ATOM     12  C   UNN dAMED       1.766  -2.248   0.032  0.00  0.00     0.020 A 
ATOM     13  C   UNN dAMED       1.736  -4.515   0.798  0.00  0.00     0.019 A 
ATOM     14  C   UNN dAMED       1.029  -3.377   0.436  0.00  0.00     0.081 A 
ATOM     15  C   UNN dAMED       3.130  -4.553   0.767  0.00  0.00     0.002 A 
ATOM     16  C   UNN dAMED       3.845  -3.430   0.370  0.00  0.00     0.000 A 
ATOM     17  C   UNN dAMED       3.162  -2.277   0.001  0.00  0.00     0.002 A 
ENDROOT
BRANCH  11  18
ATOM     18  C   UNN dAMED       1.827   0.099  -0.890  0.00  0.00     0.144 C 
ATOM     19  O   UNN dAMED       1.957   1.236  -0.132  0.00  0.00    -0.189 OA
BRANCH  18  20
ATOM     20  C   UNN dAMED       2.568   0.009  -2.236  0.00  0.00     0.079 C 
ATOM     21  C   UNN dAMED       3.752   0.964  -2.453  0.00  0.00     0.048 C 
ATOM     22  C   UNN dAMED       4.624   0.692  -3.676  0.00  0.00     0.008 C 
ATOM     23  C   UNN dAMED       3.841   0.193  -4.882  0.00  0.00     0.027 C 
ATOM     24  C   UNN dAMED       2.719  -0.783  -4.530  0.00  0.00     0.125 C 
ATOM     25  N   UNN dAMED       1.838  -0.428  -3.426  0.00  0.00    -0.273 NA
ENDBRANCH  18  20
ENDBRANCH  11  18
TORSDOF 2
