REMARK  0 active torsions:
REMARK  status: ('A' for Active; 'I' for Inactive)
ROOT
ATOM      1  N   UNN dAMED      -0.809   1.909   0.431  0.00  0.00    -0.230 NA
ATOM      2  N   UNN dAMED       1.267   0.917  -0.235  0.00  0.00    -0.115 NA
ATOM      3  N   UNN dAMED       2.554   0.926   0.141  0.00  0.00    -0.190 NA
ATOM      4  C   UNN dAMED       2.863  -0.372   0.046  0.00  0.00     0.075 C 
ATOM      5  C   UNN dAMED       1.733  -1.204  -0.126  0.00  0.00     0.029 C 
ATOM      6  C   UNN dAMED       0.679  -0.319  -0.193  0.00  0.00     0.066 C 
ATOM      7  C   UNN dAMED      -0.766  -0.428  -0.186  0.00  0.00     0.030 A 
ATOM      8  C   UNN dAMED      -1.423  -1.628  -0.448  0.00  0.00     0.003 A 
ATOM      9  C   UNN dAMED      -2.816  -1.668  -0.429  0.00  0.00     0.000 A 
ATOM     10  C   UNN dAMED      -1.508   0.729   0.113  0.00  0.00     0.084 A 
ATOM     11  C   UNN dAMED      -3.550  -0.517  -0.146  0.00  0.00     0.002 A 
ATOM     12  C   UNN dAMED      -2.898   0.683   0.131  0.00  0.00     0.019 A 
ATOM     13  C   UNN dAMED       0.458   1.881   0.485  0.00  0.00     0.173 C 
ATOM     14  C   UNN dAMED       4.216  -0.910   0.415  0.00  0.00     0.053 C 
ENDROOT
TORSDOF 0
