REMARK  5 active torsions:
REMARK  status: ('A' for Active; 'I' for Inactive)
REMARK    1  A    between atoms: C_3  and  O_18 
REMARK    2  A    between atoms: C_4  and  O_22 
REMARK    3  A    between atoms: C_6  and  O_20 
REMARK    4  A    between atoms: C_7  and  C_16 
REMARK    5  A    between atoms: C_15  and  C_16 
ROOT
ATOM      1  C   UNN dAMED       2.888  -0.037  -0.075  0.00  0.00     0.118 A 
ATOM      2  C   UNN dAMED       3.129  -0.787  -1.218  0.00  0.00     0.138 A 
ATOM      3  C   UNN dAMED       1.721   0.710   0.051  0.00  0.00     0.029 A 
ATOM      4  C   UNN dAMED       2.196  -0.785  -2.246  0.00  0.00     0.118 A 
ATOM      5  C   UNN dAMED       0.787   0.716  -0.988  0.00  0.00     0.032 A 
ATOM      6  C   UNN dAMED       1.029  -0.037  -2.141  0.00  0.00     0.029 A 
ENDROOT
BRANCH   5   7
ATOM      7  C   UNN dAMED      -0.510   1.491  -0.849  0.00  0.00     0.155 C 
ATOM      8  O   UNN dAMED      -0.519   2.855  -1.020  0.00  0.00    -0.188 OA
BRANCH   7   9
ATOM      9  C   UNN dAMED      -1.801   0.767  -0.532  0.00  0.00     0.136 A 
ATOM     10  S   UNN dAMED      -2.822   0.189  -1.763  0.00  0.00    -0.064 SA
ATOM     11  C   UNN dAMED      -3.885  -0.429  -0.557  0.00  0.00     0.049 A 
ATOM     12  C   UNN dAMED      -5.096  -1.114  -0.726  0.00  0.00     0.008 A 
ATOM     13  C   UNN dAMED      -3.360  -0.145   0.709  0.00  0.00     0.088 A 
ATOM     14  C   UNN dAMED      -5.784  -1.516   0.420  0.00  0.00     0.001 A 
ATOM     15  C   UNN dAMED      -5.285  -1.247   1.687  0.00  0.00     0.002 A 
ATOM     16  C   UNN dAMED      -4.078  -0.565   1.846  0.00  0.00     0.020 A 
ATOM     17  N   UNN dAMED      -2.154   0.541   0.708  0.00  0.00    -0.236 NA
ENDBRANCH   7   9
ENDBRANCH   5   7
BRANCH   1  18
ATOM     18  O   UNN dAMED       3.793  -0.018   0.944  0.00  0.00    -0.326 OA
ATOM     19  C   UNN dAMED       3.264   0.867   1.886  0.00  0.00     0.181 C 
ENDBRANCH   1  18
BRANCH   4  20
ATOM     20  O   UNN dAMED       2.403  -1.517  -3.376  0.00  0.00    -0.326 OA
ATOM     21  C   UNN dAMED       1.162  -1.558  -4.017  0.00  0.00     0.181 C 
ENDBRANCH   4  20
BRANCH   2  22
ATOM     22  O   UNN dAMED       4.272  -1.519  -1.330  0.00  0.00    -0.324 OA
ATOM     23  C   UNN dAMED       4.183  -2.152  -2.572  0.00  0.00     0.182 C 
ENDBRANCH   2  22
TORSDOF 5
