REMARK  3 active torsions:
REMARK  status: ('A' for Active; 'I' for Inactive)
REMARK    1  A    between atoms: N_1  and  C_16 
REMARK    2  A    between atoms: N_2  and  C_7 
REMARK    3  A    between atoms: C_19  and  S_22 
ROOT
ATOM      1  O   UNN dAMED       1.993  -0.500  -1.634  0.00  0.00    -0.263 OA
ATOM      2  N   UNN dAMED       3.177  -0.414   1.645  0.00  0.00    -0.165 NA
ATOM      3  N   UNN dAMED       3.366  -0.296   0.283  0.00  0.00    -0.194 N 
ATOM      4  C   UNN dAMED       2.196  -0.470  -0.432  0.00  0.00     0.301 A 
ATOM      5  C   UNN dAMED       1.148  -0.797   0.572  0.00  0.00     0.176 A 
ATOM      6  C   UNN dAMED       1.911  -0.661   1.847  0.00  0.00     0.103 A 
ATOM      7  C   UNN dAMED       5.038  -0.533  -1.460  0.00  0.00     0.019 A 
ATOM      8  C   UNN dAMED       4.650  -0.036  -0.214  0.00  0.00     0.086 A 
ATOM      9  C   UNN dAMED       6.302  -0.249  -1.972  0.00  0.00     0.002 A 
ATOM     10  C   UNN dAMED       7.196   0.520  -1.231  0.00  0.00     0.000 A 
ATOM     11  C   UNN dAMED       5.550   0.739   0.522  0.00  0.00     0.019 A 
ATOM     12  C   UNN dAMED       6.822   1.008   0.018  0.00  0.00     0.002 A 
ATOM     13  C   UNN dAMED       1.399  -0.824   3.242  0.00  0.00     0.056 C 
ENDROOT
BRANCH   5  14
ATOM     14  N   UNN dAMED      -0.208  -0.334   0.479  0.00  0.00    -0.142 NA
ATOM     15  N   UNN dAMED      -1.079  -0.794   1.251  0.00  0.00    -0.148 NA
BRANCH  15  16
ATOM     16  C   UNN dAMED      -2.295  -0.109   1.100  0.00  0.00     0.103 A 
ATOM     17  C   UNN dAMED      -3.209  -0.492   0.112  0.00  0.00     0.022 A 
ATOM     18  C   UNN dAMED      -4.438   0.153  -0.016  0.00  0.00     0.015 A 
ATOM     19  C   UNN dAMED      -4.760   1.160   0.883  0.00  0.00     0.107 A 
ATOM     20  C   UNN dAMED      -3.892   1.539   1.899  0.00  0.00     0.015 A 
ATOM     21  C   UNN dAMED      -2.662   0.890   2.011  0.00  0.00     0.022 A 
BRANCH  19  22
ATOM     22  S   UNN dAMED      -6.249   2.057   0.604  0.00  0.00     0.302 S 
ATOM     23  N   UNN dAMED      -6.438   2.270  -1.079  0.00  0.00    -0.043 N 
ATOM     24  O   UNN dAMED      -6.052   3.363   1.207  0.00  0.00    -0.197 OA
ATOM     25  O   UNN dAMED      -7.313   1.192   1.079  0.00  0.00    -0.197 OA
ENDBRANCH  19  22
ENDBRANCH  15  16
ENDBRANCH   5  14
TORSDOF 3
