REMARK  1 active torsions:
REMARK  status: ('A' for Active; 'I' for Inactive)
REMARK    1  A    between atoms: C_12  and  O_13 
ROOT
ATOM      1  C   UNN dAMED      -1.369  -0.862  -0.137  0.00  0.00     0.103 A 
ATOM      2  C   UNN dAMED      -0.882   0.440   0.022  0.00  0.00     0.021 A 
ATOM      3  N   UNN dAMED      -0.538  -1.929  -0.257  0.00  0.00    -0.148 NA
ATOM      4  N   UNN dAMED       0.821  -1.763  -0.220  0.00  0.00    -0.148 NA
ATOM      5  C   UNN dAMED       0.510   0.565   0.079  0.00  0.00     0.022 A 
ATOM      6  C   UNN dAMED       1.345  -0.535  -0.046  0.00  0.00     0.103 A 
ATOM      7  C   UNN dAMED       2.806  -0.425   0.004  0.00  0.00     0.019 A 
ATOM      8  C   UNN dAMED       3.616  -1.559   0.164  0.00  0.00     0.004 A 
ATOM      9  C   UNN dAMED       3.446   0.819  -0.100  0.00  0.00     0.004 A 
ATOM     10  C   UNN dAMED       4.835   0.934  -0.042  0.00  0.00     0.024 A 
ATOM     11  C   UNN dAMED       5.006  -1.462   0.217  0.00  0.00     0.024 A 
ATOM     12  C   UNN dAMED       5.599  -0.213   0.114  0.00  0.00     0.094 A 
ATOM     13  C   UNN dAMED      -2.782  -1.225  -0.142  0.00  0.00     0.019 A 
ATOM     14  C   UNN dAMED      -3.552  -1.130  -1.305  0.00  0.00     0.002 A 
ATOM     15  C   UNN dAMED      -4.912  -1.434  -1.280  0.00  0.00     0.000 A 
ATOM     16  C   UNN dAMED      -5.514  -1.844  -0.093  0.00  0.00     0.000 A 
ATOM     17  C   UNN dAMED      -4.755  -1.966   1.066  0.00  0.00     0.000 A 
ATOM     18  C   UNN dAMED      -3.397  -1.661   1.039  0.00  0.00     0.002 A 
ATOM     19  C   UNN dAMED      -1.705   1.662   0.103  0.00  0.00     0.002 A 
ATOM     20  C   UNN dAMED      -2.938   1.698   0.763  0.00  0.00     0.000 A 
ATOM     21  C   UNN dAMED      -3.715   2.856   0.807  0.00  0.00     0.000 A 
ATOM     22  C   UNN dAMED      -3.243   4.028   0.228  0.00  0.00     0.000 A 
ATOM     23  C   UNN dAMED      -2.004   4.036  -0.401  0.00  0.00     0.000 A 
ATOM     24  C   UNN dAMED      -1.256   2.860  -0.473  0.00  0.00     0.000 A 
ENDROOT
BRANCH  12  25
ATOM     25  O   UNN dAMED       6.957  -0.112   0.175  0.00  0.00    -0.328 OA
ATOM     26  C   UNN dAMED       7.294   0.888  -0.741  0.00  0.00     0.181 C 
ENDBRANCH  12  25
TORSDOF 1
