REMARK  2 active torsions:
REMARK  status: ('A' for Active; 'I' for Inactive)
REMARK    1  A    between atoms: C_11  and  N_19 
REMARK    2  A    between atoms: C_15  and  S_16 
ROOT
ATOM      1  N   UNN dAMED      -1.993  -0.410  -1.033  0.00  0.00    -0.183 NA
ATOM      2  N   UNN dAMED      -2.766   0.505   0.994  0.00  0.00    -0.300 N 
ATOM      3  O   UNN dAMED      -0.002  -1.526  -0.945  0.00  0.00    -0.263 OA
ATOM      4  H   UNN dAMED      -3.487   1.029   1.478  0.00  0.00     0.171 HD
ATOM      5  C   UNN dAMED      -0.809  -0.766  -0.412  0.00  0.00     0.303 C 
ATOM      6  C   UNN dAMED      -0.497  -0.153   0.965  0.00  0.00     0.195 C 
ATOM      7  C   UNN dAMED      -1.551   0.398   1.636  0.00  0.00     0.282 C 
ATOM      8  C   UNN dAMED      -2.901   0.179  -0.323  0.00  0.00     0.173 C 
ATOM      9  O   UNN dAMED      -1.633   0.900   2.790  0.00  0.00    -0.265 OA
ATOM     10  N   UNN dAMED       0.809  -0.343   1.307  0.00  0.00    -0.236 NA
ENDROOT
BRANCH  10  11
ATOM     11  C   UNN dAMED       1.467   0.780   1.677  0.00  0.00     0.083 A 
ATOM     12  C   UNN dAMED       2.249   0.761   2.840  0.00  0.00     0.019 A 
ATOM     13  C   UNN dAMED       2.950   1.887   3.273  0.00  0.00     0.002 A 
ATOM     14  C   UNN dAMED       2.871   3.070   2.549  0.00  0.00     0.011 A 
ATOM     15  C   UNN dAMED       2.116   3.108   1.384  0.00  0.00     0.059 A 
ATOM     16 CL   UNN dAMED       1.978   4.582   0.517  0.00  0.00    -0.082 Cl
ATOM     17  C   UNN dAMED       1.441   1.975   0.940  0.00  0.00     0.030 A 
ENDBRANCH  10  11
BRANCH   8  18
ATOM     18  S   UNN dAMED      -4.409   0.625  -1.096  0.00  0.00    -0.076 SA
ATOM     19  C   UNN dAMED      -3.716   0.701  -2.746  0.00  0.00     0.077 C 
ENDBRANCH   8  18
TORSDOF 2
