REMARK  4 active torsions:
REMARK  status: ('A' for Active; 'I' for Inactive)
REMARK    1  A    between atoms: C_2  and  C_10 
REMARK    2  A    between atoms: C_3  and  C_13 
REMARK    3  A    between atoms: C_9  and  C_10 
REMARK    4  A    between atoms: C_13  and  C_14 
ROOT
ATOM      1  C   UNN dAMED      -3.248  -1.802   3.528  0.00  0.00     0.300 A 
ATOM      2  C   UNN dAMED      -3.308  -0.448   1.516  0.00  0.00     0.105 A 
ATOM      3  C   UNN dAMED      -4.713  -1.512   3.685  0.00  0.00     0.117 A 
ATOM      4  C   UNN dAMED      -4.600  -0.185   1.715  0.00  0.00     0.118 A 
ATOM      5  N   UNN dAMED      -2.674  -1.240   2.417  0.00  0.00    -0.147 N 
ATOM      6  N   UNN dAMED      -5.313  -0.777   2.807  0.00  0.00    -0.242 NA
ATOM      7  O   UNN dAMED      -2.743  -2.501   4.396  0.00  0.00    -0.263 OA
ATOM      8  O   UNN dAMED      -1.335  -1.429   2.191  0.00  0.00    -0.077 OA
ENDROOT
BRANCH   2   9
ATOM      9  C   UNN dAMED      -2.542   0.183   0.394  0.00  0.00    -0.024 C 
ATOM     10  C   UNN dAMED      -1.065   0.529   0.609  0.00  0.00     0.028 C 
BRANCH   9  11
ATOM     11  C   UNN dAMED      -3.319   0.875  -0.728  0.00  0.00     0.024 C 
ATOM     12  C   UNN dAMED      -4.689   0.335  -1.149  0.00  0.00     0.005 C 
ENDBRANCH   9  11
ENDBRANCH   2   9
BRANCH   3  13
ATOM     13  C   UNN dAMED      -5.481  -2.123   4.819  0.00  0.00     0.051 C 
BRANCH  13  14
ATOM     14  C   UNN dAMED      -4.812  -3.190   5.687  0.00  0.00     0.006 C 
ATOM     15  C   UNN dAMED      -3.297  -3.393   5.582  0.00  0.00     0.000 C 
ATOM     16  C   UNN dAMED      -5.559  -3.739   6.906  0.00  0.00     0.000 C 
ENDBRANCH  13  14
ENDBRANCH   3  13
TORSDOF 4
