REMARK  4 active torsions:
REMARK  status: ('A' for Active; 'I' for Inactive)
REMARK    1  A    between atoms: C_4  and  O_21 
REMARK    2  A    between atoms: C_5  and  O_19 
REMARK    3  A    between atoms: C_7  and  C_17 
REMARK    4  A    between atoms: C_8  and  C_18 
ROOT
ATOM      1  C   UNN dAMED       0.565  -0.210  -0.994  0.00  0.00     0.004 C 
ATOM      2  C   UNN dAMED      -0.254  -0.549  -0.000  0.00  0.00     0.019 C 
ENDROOT
BRANCH   1   3
ATOM      3  C   UNN dAMED       1.997   0.118  -0.691  0.00  0.00     0.024 A 
ATOM      4  C   UNN dAMED       2.497  -0.085   0.589  0.00  0.00     0.116 A 
ATOM      5  C   UNN dAMED       3.814   0.233   0.885  0.00  0.00     0.116 A 
ATOM      6  C   UNN dAMED       4.649   0.755  -0.096  0.00  0.00     0.026 A 
ATOM      7  C   UNN dAMED       4.151   0.959  -1.382  0.00  0.00     0.002 A 
ATOM      8  C   UNN dAMED       2.825   0.643  -1.680  0.00  0.00     0.002 A 
BRANCH   4   9
ATOM      9  O   UNN dAMED       1.669  -0.597   1.542  0.00  0.00    -0.326 OA
ATOM     10  C   UNN dAMED       2.489  -0.848   2.644  0.00  0.00     0.181 C 
ENDBRANCH   4   9
BRANCH   5  11
ATOM     11  O   UNN dAMED       4.311   0.043   2.139  0.00  0.00    -0.326 OA
ATOM     12  C   UNN dAMED       5.643  -0.333   1.950  0.00  0.00     0.181 C 
ENDBRANCH   5  11
ENDBRANCH   1   3
BRANCH   2  13
ATOM     13  C   UNN dAMED      -1.705  -0.817  -0.281  0.00  0.00     0.081 A 
ATOM     14  N   UNN dAMED      -2.058  -2.041  -0.737  0.00  0.00    -0.244 NA
ATOM     15  C   UNN dAMED      -3.371  -2.244  -0.987  0.00  0.00     0.099 A 
ATOM     16  C   UNN dAMED      -4.360  -1.290  -0.807  0.00  0.00     0.021 A 
ATOM     17  C   UNN dAMED      -3.974  -0.040  -0.337  0.00  0.00     0.003 A 
ATOM     18  C   UNN dAMED      -2.617   0.209  -0.065  0.00  0.00     0.018 A 
ATOM     19  C   UNN dAMED      -4.913   0.972  -0.133  0.00  0.00     0.000 A 
ATOM     20  C   UNN dAMED      -2.214   1.459   0.408  0.00  0.00     0.002 A 
ATOM     21  C   UNN dAMED      -3.160   2.461   0.610  0.00  0.00     0.000 A 
ATOM     22  C   UNN dAMED      -4.506   2.219   0.339  0.00  0.00     0.000 A 
ENDBRANCH   2  13
TORSDOF 4
