REMARK  1 active torsions:
REMARK  status: ('A' for Active; 'I' for Inactive)
REMARK    1  A    between atoms: 26_26  and  32_32 
ROOT
ATOM      1  1   UNN dAMED       9.392   4.740  -0.248  0.00  0.00    -0.267 OA
ATOM      2  2   UNN dAMED       9.479   7.052  -0.275  0.00  0.00    -0.307 N 
ATOM      3  3   UNN dAMED      10.855  11.663   0.262  0.00  0.00     0.098 N 
ATOM      4  4   UNN dAMED      13.727   7.167   0.147  0.00  0.00    -0.377 OA
ATOM      5  5   UNN dAMED      11.638   5.756  -0.558  0.00  0.00     0.040 C 
ATOM      6  6   UNN dAMED      10.047   5.774  -0.356  0.00  0.00     0.257 C 
ATOM      7  7   UNN dAMED      12.424   7.110  -0.460  0.00  0.00     0.167 C 
ATOM      8  8   UNN dAMED      11.534   7.914   0.452  0.00  0.00     0.052 C 
ATOM      9  9   UNN dAMED      11.973   9.265   0.883  0.00  0.00     0.027 C 
ATOM     10  10  UNN dAMED      14.549   8.291  -0.302  0.00  0.00     0.196 C 
ATOM     11  11  UNN dAMED      14.179   9.753   0.025  0.00  0.00     0.004 C 
ATOM     12  12  UNN dAMED      13.041  10.211   0.573  0.00  0.00    -0.049 C 
ATOM     13  13  UNN dAMED      12.390  11.630   0.467  0.00  0.00     0.307 C 
ATOM     14  14  UNN dAMED      10.307   8.192  -0.434  0.00  0.00     0.116 A 
ATOM     15  15  UNN dAMED      10.918   9.807   1.859  0.00  0.00     0.046 C 
ATOM     16  16  UNN dAMED       9.520   9.562  -0.227  0.00  0.00     0.043 A 
ATOM     17  17  UNN dAMED      10.045  10.572   0.907  0.00  0.00     0.239 C 
ATOM     18  18  UNN dAMED       9.737  10.394  -1.515  0.00  0.00     0.049 C 
ATOM     19  19  UNN dAMED       8.170   8.937   0.086  0.00  0.00    -0.018 A 
ATOM     20  20  UNN dAMED       7.116   6.753   0.435  0.00  0.00     0.030 A 
ATOM     21  21  UNN dAMED       5.999   7.426   0.933  0.00  0.00     0.002 A 
ATOM     22  22  UNN dAMED       8.205   7.516   0.059  0.00  0.00     0.045 A 
ATOM     23  23  UNN dAMED       5.960   8.832   0.983  0.00  0.00     0.001 A 
ATOM     24  24  UNN dAMED       7.035   9.597   0.528  0.00  0.00     0.010 A 
ATOM     25  25  UNN dAMED      10.366  11.740  -1.122  0.00  0.00     0.274 C 
ATOM     26  32  UNN dAMED      12.306   4.593  -0.651  0.00  0.00     0.026 C 
ENDROOT
BRANCH  26  27
ATOM     27  26  UNN dAMED      11.742   3.245  -0.514  0.00  0.00    -0.035 A 
ATOM     28  27  UNN dAMED      11.012   2.570  -1.508  0.00  0.00     0.011 A 
ATOM     29  28  UNN dAMED      10.418   1.335  -1.217  0.00  0.00     0.001 A 
ATOM     30  29  UNN dAMED      10.565   0.757   0.050  0.00  0.00     0.000 A 
ATOM     31  30  UNN dAMED      11.328   1.397   1.016  0.00  0.00     0.001 A 
ATOM     32  31  UNN dAMED      11.915   2.632   0.732  0.00  0.00     0.011 A 
ENDBRANCH  26  27
TORSDOF 1
