REMARK  0 active torsions:
REMARK  status: ('A' for Active; 'I' for Inactive)
ROOT
ATOM      1  H   UNN dAMED       3.491   0.804  -1.546  0.00  0.00     0.198 HD
ATOM      2  N   UNN dAMED       2.592   0.376  -1.362  0.00  0.00    -0.223 N 
ATOM      3  O   UNN dAMED       2.081  -0.578  -2.272  0.00  0.00    -0.219 OA
ATOM      4  O   UNN dAMED       1.654   1.670   0.350  0.00  0.00    -0.265 OA
ATOM      5  C   UNN dAMED       1.609   0.789  -0.491  0.00  0.00     0.279 A 
ATOM      6  C   UNN dAMED       0.428  -0.020  -0.779  0.00  0.00     0.088 A 
ATOM      7  C   UNN dAMED       0.777  -0.744  -1.835  0.00  0.00     0.196 A 
ATOM      8  C   UNN dAMED      -0.950   0.167  -0.229  0.00  0.00    -0.036 C 
ATOM      9  C   UNN dAMED      -1.155   1.114   0.961  0.00  0.00     0.022 C 
ATOM     10  C   UNN dAMED      -2.606   1.446   1.321  0.00  0.00     0.004 C 
ATOM     11  C   UNN dAMED      -3.588   0.277   1.236  0.00  0.00     0.001 C 
ATOM     12  C   UNN dAMED      -1.979  -0.963  -0.370  0.00  0.00     0.022 C 
ATOM     13  C   UNN dAMED      -3.423  -0.613   0.003  0.00  0.00     0.004 C 
ATOM     14  N   UNN dAMED      -0.167  -1.504  -2.580  0.00  0.00    -0.071 NA
ENDROOT
TORSDOF 0
