REMARK  6 active torsions:
REMARK  status: ('A' for Active; 'I' for Inactive)
REMARK    1  A    between atoms: C_5  and  C_9 
REMARK    2  A    between atoms: C_9  and  C_10 
REMARK    3  A    between atoms: C_10  and  C_11 
REMARK    4  A    between atoms: C_11  and  C_12 
REMARK    5  A    between atoms: C_12  and  C_13 
REMARK    6  A    between atoms: C_13  and  C_14 
ROOT
ATOM      1  O   UNN dAMED       1.403  -0.628   3.091  0.00  0.00    -0.245 OA
ATOM      2  H   UNN dAMED       1.735   1.385   1.424  0.00  0.00     0.165 HD
ATOM      3  N   UNN dAMED       1.959   0.440   1.129  0.00  0.00    -0.321 N 
ATOM      4  O   UNN dAMED       2.932  -2.128  -0.875  0.00  0.00    -0.268 OA
ATOM      5  C   UNN dAMED       2.447   0.103  -0.162  0.00  0.00     0.138 A 
ATOM      6  C   UNN dAMED       2.545  -1.393   0.028  0.00  0.00     0.277 A 
ATOM      7  C   UNN dAMED       1.808  -0.672   1.935  0.00  0.00     0.346 A 
ATOM      8  N   UNN dAMED       2.171  -1.767   1.255  0.00  0.00    -0.156 NA
ATOM      9  C   UNN dAMED       3.850   0.670  -0.344  0.00  0.00     0.032 C 
ENDROOT
BRANCH   5  10
ATOM     10  C   UNN dAMED       1.377   0.398  -1.207  0.00  0.00     0.030 C 
BRANCH  10  11
ATOM     11  C   UNN dAMED       0.857   1.825  -1.409  0.00  0.00     0.002 C 
BRANCH  11  12
ATOM     12  C   UNN dAMED       1.840   3.000  -1.450  0.00  0.00     0.000 C 
BRANCH  12  13
ATOM     13  C   UNN dAMED       3.245   2.804  -2.028  0.00  0.00     0.000 C 
BRANCH  13  14
ATOM     14  C   UNN dAMED       4.267   3.943  -1.959  0.00  0.00     0.000 C 
BRANCH  14  15
ATOM     15  C   UNN dAMED       5.363   4.044  -3.023  0.00  0.00     0.000 C 
ATOM     16  C   UNN dAMED       4.990   4.009  -4.509  0.00  0.00     0.000 C 
ENDBRANCH  14  15
ENDBRANCH  13  14
ENDBRANCH  12  13
ENDBRANCH  11  12
ENDBRANCH  10  11
ENDBRANCH   5  10
TORSDOF 6
