REMARK  4 active torsions:
REMARK  status: ('A' for Active; 'I' for Inactive)
REMARK    1  A    between atoms: C_2  and  C_18 
REMARK    2  A    between atoms: C_2  and  C_22 
REMARK    3  A    between atoms: C_14  and  O_16 
REMARK    4  A    between atoms: C_18  and  O_20 
ROOT
ATOM      1  O   UNN dAMED       1.579  -2.428  -0.088  0.00  0.00    -0.291 OA
ATOM      2  C   UNN dAMED       2.436  -0.297  -0.723  0.00  0.00     0.133 C 
ATOM      3  C   UNN dAMED       1.864   0.955  -1.386  0.00  0.00     0.021 C 
ATOM      4  C   UNN dAMED       0.679   1.586  -0.686  0.00  0.00     0.027 C 
ATOM      5  C   UNN dAMED       1.338  -1.241  -0.301  0.00  0.00     0.181 C 
ATOM      6  C   UNN dAMED      -0.382   0.615  -0.293  0.00  0.00    -0.019 A 
ATOM      7  C   UNN dAMED      -0.044  -0.728  -0.107  0.00  0.00     0.033 A 
ATOM      8  C   UNN dAMED      -1.691   1.058  -0.097  0.00  0.00    -0.002 A 
ATOM      9  C   UNN dAMED      -2.006   2.404  -0.281  0.00  0.00    -0.000 A 
ATOM     10  C   UNN dAMED      -3.311   2.854  -0.096  0.00  0.00    -0.000 A 
ATOM     11  C   UNN dAMED      -1.032  -1.638   0.266  0.00  0.00     0.027 A 
ATOM     12  C   UNN dAMED      -2.697   0.142   0.277  0.00  0.00     0.022 A 
ATOM     13  C   UNN dAMED      -4.311   1.959   0.273  0.00  0.00     0.000 A 
ATOM     14  C   UNN dAMED      -2.341  -1.202   0.451  0.00  0.00     0.094 A 
ATOM     15  C   UNN dAMED      -4.006   0.613   0.458  0.00  0.00     0.002 A 
ENDROOT
BRANCH   2  16
ATOM     16  C   UNN dAMED       3.356   0.092   0.389  0.00  0.00     0.278 C 
ATOM     17  O   UNN dAMED       3.015   0.447   1.506  0.00  0.00    -0.264 OA
BRANCH  16  18
ATOM     18  O   UNN dAMED       4.641   0.017  -0.036  0.00  0.00    -0.299 OA
ATOM     19  C   UNN dAMED       4.553  -0.244  -1.406  0.00  0.00     0.184 C 
ENDBRANCH  16  18
ENDBRANCH   2  16
BRANCH   2  20
ATOM     20  C   UNN dAMED       3.252  -0.937  -1.857  0.00  0.00     0.017 C 
ATOM     21  C   UNN dAMED       3.023  -0.496  -3.306  0.00  0.00     0.001 C 
ENDBRANCH   2  20
BRANCH  14  22
ATOM     22  O   UNN dAMED      -3.278  -2.130   0.810  0.00  0.00    -0.328 OA
ATOM     23  C   UNN dAMED      -2.559  -3.144   1.447  0.00  0.00     0.181 C 
ENDBRANCH  14  22
TORSDOF 4
