REMARK  3 active torsions:
REMARK  status: ('A' for Active; 'I' for Inactive)
REMARK    1  A    between atoms: S_2  and  C_4 
REMARK       I    between atoms: C_8  and  N_12 
REMARK       I    between atoms: C_8  and  N_13 
REMARK    2  A    between atoms: C_10  and  C_14 
REMARK       I    between atoms: C_10  and  N_15 
REMARK    3  A    between atoms: N_13  and  C_14 
ROOT
ATOM      1  N   UNN dAMED      -3.726  -0.738   0.931  0.00  0.00    -0.133 NA
ATOM      2  C   UNN dAMED      -4.097   0.162   0.046  0.00  0.00     0.157 A 
ATOM      3  S   UNN dAMED      -2.810   1.045  -0.654  0.00  0.00    -0.020 SA
ATOM      4  C   UNN dAMED      -1.740   0.114   0.319  0.00  0.00     0.221 A 
ATOM      5  N   UNN dAMED      -2.350  -0.775   1.080  0.00  0.00    -0.120 NA
ATOM      6  C   UNN dAMED       0.184   0.808   1.258  0.00  0.00     0.371 C 
ATOM      7  O   UNN dAMED      -0.028   1.935   1.699  0.00  0.00    -0.242 OA
ATOM      8  N   UNN dAMED      -0.403   0.275   0.172  0.00  0.00    -0.164 NA
ATOM      9  N   UNN dAMED       1.123  -0.022   1.738  0.00  0.00    -0.184 NA
ENDROOT
BRANCH   9  10
ATOM     10  C   UNN dAMED       0.743  -1.169   2.559  0.00  0.00     0.168 C 
BRANCH  10  11
ATOM     11  C   UNN dAMED       0.410  -2.532   1.982  0.00  0.00     0.318 C 
ATOM     12  O   UNN dAMED       0.403  -2.665   0.764  0.00  0.00    -0.262 OA
ATOM     13  N   UNN dAMED       0.083  -3.472   2.861  0.00  0.00    -0.083 NA
ATOM     14  N   UNN dAMED      -0.986  -4.404   2.552  0.00  0.00    -0.019 N 
ENDBRANCH  10  11
ENDBRANCH   9  10
BRANCH   2  15
ATOM     15  S   UNN dAMED      -5.769   0.417  -0.385  0.00  0.00    -0.114 SA
ATOM     16  H   UNN dAMED      -6.283  -0.675   0.196  0.00  0.00     0.109 HD
ENDBRANCH   2  15
TORSDOF 3
