REMARK  3 active torsions:
REMARK  status: ('A' for Active; 'I' for Inactive)
REMARK    1  A    between atoms: C_3  and  N_18 
REMARK    2  A    between atoms: C_7  and  N_15 
REMARK    3  A    between atoms: C_9  and  N_21 
REMARK       I    between atoms: N_18  and  C_19 
REMARK       I    between atoms: C_19  and  N_21 
ROOT
ATOM      1  N   UNN dAMED       1.908   1.413   1.725  0.00  0.00    -0.191 NA
ATOM      2  C   UNN dAMED       1.155   0.395   1.253  0.00  0.00     0.369 C 
ATOM      3  O   UNN dAMED      -0.034   0.215   1.512  0.00  0.00    -0.242 OA
ATOM      4  N   UNN dAMED       1.828  -0.457   0.438  0.00  0.00    -0.191 NA
ENDROOT
BRANCH   1   5
ATOM      5  C   UNN dAMED       1.335   2.221   2.635  0.00  0.00     0.084 A 
ATOM      6  C   UNN dAMED       0.963   3.526   2.278  0.00  0.00    -0.004 A 
ATOM      7  C   UNN dAMED       0.492   4.438   3.227  0.00  0.00    -0.001 A 
ATOM      8  C   UNN dAMED       1.151   3.976   0.856  0.00  0.00     0.033 C 
ATOM      9  C   UNN dAMED       0.383   4.060   4.560  0.00  0.00     0.023 A 
ATOM     10  C   UNN dAMED       0.761   2.771   4.916  0.00  0.00     0.128 A 
ATOM     11  C   UNN dAMED       1.247   1.859   3.983  0.00  0.00     0.043 A 
BRANCH  10  12
ATOM     12  N   UNN dAMED       0.649   2.361   6.296  0.00  0.00    -0.114 N 
ATOM     13  O   UNN dAMED       0.337   1.183   6.516  0.00  0.00    -0.532 OA
ATOM     14  O   UNN dAMED       0.870   3.217   7.163  0.00  0.00    -0.532 OA
ENDBRANCH  10  12
ENDBRANCH   1   5
BRANCH   4  15
ATOM     15  C   UNN dAMED       3.120  -0.202   0.129  0.00  0.00     0.088 A 
ATOM     16  C   UNN dAMED       4.160  -0.630   0.969  0.00  0.00     0.019 A 
ATOM     17  C   UNN dAMED       5.488  -0.289   0.717  0.00  0.00     0.004 A 
ATOM     18  C   UNN dAMED       5.805   0.463  -0.408  0.00  0.00     0.030 A 
ATOM     19  C   UNN dAMED       4.792   0.848  -1.277  0.00  0.00     0.142 A 
ATOM     20  F   UNN dAMED       5.099   1.553  -2.374  0.00  0.00    -0.204 F 
ATOM     21  C   UNN dAMED       3.463   0.520  -1.021  0.00  0.00     0.049 A 
ENDBRANCH   4  15
TORSDOF 3
