REMARK  4 active torsions:
REMARK  status: ('A' for Active; 'I' for Inactive)
REMARK    1  A    between atoms: C_6  and  N_12 
REMARK    2  A    between atoms: N_12  and  C_13 
REMARK    3  A    between atoms: N_15  and  C_16 
REMARK    4  A    between atoms: C_16  and  C_17 
ROOT
ATOM      1  O   UNN dAMED      -3.739   0.072   1.201  0.00  0.00    -0.246 OA
ATOM      2  N   UNN dAMED      -2.073  -1.319   0.416  0.00  0.00    -0.267 N 
ATOM      3  N   UNN dAMED      -1.768   0.929   0.332  0.00  0.00    -0.246 N 
ATOM      4  O   UNN dAMED      -0.096   1.813  -0.984  0.00  0.00    -0.265 OA
ATOM      5  C   UNN dAMED      -0.833  -1.561  -0.084  0.00  0.00     0.158 C 
ATOM      6  C   UNN dAMED      -0.038  -0.562  -0.529  0.00  0.00     0.169 C 
ATOM      7  C   UNN dAMED      -0.611   0.849  -0.422  0.00  0.00     0.285 C 
ATOM      8  C   UNN dAMED      -2.628  -0.097   0.708  0.00  0.00     0.335 C 
ATOM      9  C   UNN dAMED      -2.720  -2.434   1.006  0.00  0.00     0.136 C 
ATOM     10  N   UNN dAMED      -0.347  -2.899  -0.124  0.00  0.00    -0.080 NA
ATOM     11  C   UNN dAMED      -2.437   2.172   0.184  0.00  0.00     0.139 C 
ENDROOT
BRANCH   6  12
ATOM     12  N   UNN dAMED       1.230  -0.583  -1.016  0.00  0.00    -0.210 NA
BRANCH  12  13
ATOM     13  C   UNN dAMED       1.375  -1.274  -2.154  0.00  0.00     0.217 C 
ATOM     14  S   UNN dAMED       0.981  -0.709  -3.694  0.00  0.00    -0.037 SA
ATOM     15  N   UNN dAMED       2.050  -2.412  -1.975  0.00  0.00    -0.239 NA
BRANCH  15  16
ATOM     16  C   UNN dAMED       2.720  -2.662  -0.709  0.00  0.00     0.154 C 
BRANCH  16  17
ATOM     17  C   UNN dAMED       1.964  -3.351   0.431  0.00  0.00     0.000 C 
ATOM     18  C   UNN dAMED       0.714  -2.989   0.713  0.00  0.00    -0.003 C 
ENDBRANCH  16  17
ENDBRANCH  15  16
ENDBRANCH  12  13
ENDBRANCH   6  12
TORSDOF 4
