REMARK  3 active torsions:
REMARK  status: ('A' for Active; 'I' for Inactive)
REMARK    1  A    between atoms: C_11  and  C_24 
REMARK    2  A    between atoms: C_14  and  C_24 
REMARK    3  A    between atoms: C_18  and  C_24 
ROOT
ATOM      1  C   UNN dAMED       0.628   0.083  -0.431  0.00  0.00     0.214 C 
ATOM      2  O   UNN dAMED       1.881   0.519  -0.447  0.00  0.00    -0.209 OA
ENDROOT
BRANCH   1   3
ATOM      3  C   UNN dAMED      -0.250   1.207   0.166  0.00  0.00     0.160 A 
ATOM      4  N   UNN dAMED       0.200   2.310   0.752  0.00  0.00    -0.226 NA
ATOM      5  C   UNN dAMED      -0.900   2.994   1.196  0.00  0.00     0.119 A 
ATOM      6  C   UNN dAMED      -2.051   2.310   0.897  0.00  0.00     0.102 A 
ATOM      7  N   UNN dAMED      -1.643   1.187   0.222  0.00  0.00    -0.290 N 
ATOM      8  C   UNN dAMED      -2.532   0.260  -0.327  0.00  0.00     0.065 A 
ATOM      9  C   UNN dAMED      -3.205   0.599  -1.499  0.00  0.00     0.018 A 
ATOM     10  C   UNN dAMED      -2.731  -0.963   0.305  0.00  0.00     0.018 A 
ATOM     11  C   UNN dAMED      -4.073  -0.328  -2.067  0.00  0.00     0.002 A 
ATOM     12  C   UNN dAMED      -4.253  -1.574  -1.466  0.00  0.00     0.000 A 
ATOM     13  C   UNN dAMED      -3.589  -1.889  -0.281  0.00  0.00     0.002 A 
ENDBRANCH   1   3
BRANCH   1  14
ATOM     14  C   UNN dAMED       0.655  -1.155   0.499  0.00  0.00     0.016 A 
ATOM     15  C   UNN dAMED       1.104  -2.411   0.061  0.00  0.00    -0.001 A 
ATOM     16  C   UNN dAMED       1.124  -3.517   0.910  0.00  0.00    -0.000 A 
ATOM     17  C   UNN dAMED       0.721  -3.384   2.234  0.00  0.00    -0.000 A 
ATOM     18  C   UNN dAMED       0.309  -2.145   2.710  0.00  0.00    -0.000 A 
ATOM     19  C   UNN dAMED       0.286  -1.048   1.851  0.00  0.00    -0.001 A 
ENDBRANCH   1  14
BRANCH   1  20
ATOM     20  C   UNN dAMED       0.237  -0.172  -1.905  0.00  0.00     0.016 A 
ATOM     21  C   UNN dAMED      -0.231  -1.413  -2.357  0.00  0.00    -0.001 A 
ATOM     22  C   UNN dAMED      -0.629  -1.613  -3.678  0.00  0.00    -0.000 A 
ATOM     23  C   UNN dAMED      -0.588  -0.556  -4.579  0.00  0.00    -0.000 A 
ATOM     24  C   UNN dAMED      -0.146   0.694  -4.160  0.00  0.00    -0.000 A 
ATOM     25  C   UNN dAMED       0.258   0.881  -2.840  0.00  0.00    -0.001 A 
ENDBRANCH   1  20
TORSDOF 3
