REMARK  5 active torsions:
REMARK  status: ('A' for Active; 'I' for Inactive)
REMARK    1  A    between atoms: C_5  and  O_9 
REMARK    2  A    between atoms: C_5  and  C_6 
REMARK    3  A    between atoms: C_8  and  C_12 
REMARK    4  A    between atoms: O_9  and  C_13 
REMARK    5  A    between atoms: C_11  and  C_12 
REMARK       I    between atoms: C_11  and  N_15 
ROOT
ATOM      1  C   UNN dAMED      -1.586  -1.964  -0.629  0.00  0.00     0.025 A 
ATOM      2  C   UNN dAMED      -0.459  -2.644  -1.041  0.00  0.00     0.073 A 
ATOM      3  N   UNN dAMED       0.617  -1.810  -0.888  0.00  0.00    -0.352 N 
ATOM      4  H   UNN dAMED       1.574  -2.036  -1.120  0.00  0.00     0.166 HD
ATOM      5  C   UNN dAMED      -1.184  -0.670  -0.205  0.00  0.00     0.080 A 
ATOM      6  C   UNN dAMED       0.176  -0.631  -0.371  0.00  0.00     0.067 A 
ENDROOT
BRANCH   5   7
ATOM      7  C   UNN dAMED      -2.002   0.396   0.300  0.00  0.00     0.297 C 
ATOM      8  O   UNN dAMED      -2.363   0.489   1.465  0.00  0.00    -0.259 OA
BRANCH   7   9
ATOM      9  O   UNN dAMED      -2.348   1.276  -0.674  0.00  0.00    -0.298 OA
BRANCH   9  10
ATOM     10  C   UNN dAMED      -1.768   0.764  -1.838  0.00  0.00     0.152 C 
ATOM     11  C   UNN dAMED      -0.758  -0.384  -1.745  0.00  0.00     0.035 C 
ENDBRANCH   9  10
ENDBRANCH   7   9
ENDBRANCH   5   7
BRANCH   6  12
ATOM     12  C   UNN dAMED       1.060   0.550  -0.079  0.00  0.00     0.079 C 
BRANCH  12  13
ATOM     13  C   UNN dAMED       1.556   0.871   1.313  0.00  0.00     0.277 C 
ATOM     14  O   UNN dAMED       1.812  -0.066   2.060  0.00  0.00    -0.266 OA
ATOM     15  N   UNN dAMED       1.735   2.157   1.586  0.00  0.00    -0.232 NA
ATOM     16  C   UNN dAMED       1.630   3.141   0.522  0.00  0.00     0.155 C 
ENDBRANCH  12  13
ENDBRANCH   6  12
TORSDOF 5
