REMARK  0 active torsions:
REMARK  status: ('A' for Active; 'I' for Inactive)
ROOT
ATOM      1  N   UNN dAMED       2.717  -0.551   0.273  0.00  0.00    -0.176 NA
ATOM      2  N   UNN dAMED       0.432  -0.301   0.962  0.00  0.00    -0.317 N 
ATOM      3  O   UNN dAMED       3.464   0.651  -1.564  0.00  0.00    -0.263 OA
ATOM      4  H   UNN dAMED      -0.295  -0.560   1.622  0.00  0.00     0.169 HD
ATOM      5  N   UNN dAMED       0.755   1.789  -1.852  0.00  0.00    -0.224 NA
ATOM      6  N   UNN dAMED      -0.848   1.270  -0.385  0.00  0.00    -0.201 NA
ATOM      7  C   UNN dAMED       2.564   0.352  -0.788  0.00  0.00     0.301 A 
ATOM      8  C   UNN dAMED       1.235   0.920  -0.912  0.00  0.00     0.167 A 
ATOM      9  C   UNN dAMED       0.251   0.570  -0.033  0.00  0.00     0.126 A 
ATOM     10  C   UNN dAMED      -0.527   1.930  -1.547  0.00  0.00     0.154 A 
ATOM     11  C   UNN dAMED       1.710  -0.833   1.066  0.00  0.00     0.219 A 
ATOM     12  C   UNN dAMED      -2.780  -0.230   0.448  0.00  0.00     0.017 C 
ATOM     13  C   UNN dAMED      -3.399  -1.523  -0.094  0.00  0.00     0.002 C 
ATOM     14  C   UNN dAMED      -1.899   0.352  -0.659  0.00  0.00     0.069 C 
ATOM     15  C   UNN dAMED      -2.803  -1.791  -1.482  0.00  0.00     0.002 C 
ATOM     16  C   UNN dAMED      -1.814  -0.663  -1.801  0.00  0.00     0.017 C 
ATOM     17  N   UNN dAMED       1.948  -1.760   2.122  0.00  0.00    -0.061 NA
ENDROOT
TORSDOF 0
