REMARK  4 active torsions:
REMARK  status: ('A' for Active; 'I' for Inactive)
REMARK    1  A    between atoms: C_5  and  N_18 
REMARK    2  A    between atoms: C_7  and  C_19 
REMARK    3  A    between atoms: C_16  and  C_17 
REMARK    4  A    between atoms: C_17  and  N_18 
ROOT
ATOM      1  C   UNN dAMED      -0.376   0.136  -0.843  0.00  0.00     0.189 C 
ENDROOT
BRANCH   1   2
ATOM      2  C   UNN dAMED      -1.856   0.165  -0.573  0.00  0.00     0.142 A 
ATOM      3  N   UNN dAMED      -2.405  -0.180   0.628  0.00  0.00    -0.339 N 
ATOM      4  C   UNN dAMED      -3.767  -0.163   0.472  0.00  0.00     0.075 A 
ATOM      5  H   UNN dAMED      -1.901  -0.418   1.472  0.00  0.00     0.167 HD
ATOM      6  C   UNN dAMED      -4.809  -0.425   1.362  0.00  0.00     0.019 A 
ATOM      7  C   UNN dAMED      -3.962   0.195  -0.861  0.00  0.00     0.098 A 
ATOM      8  C   UNN dAMED      -6.104  -0.307   0.848  0.00  0.00     0.002 A 
ATOM      9  C   UNN dAMED      -6.334   0.050  -0.479  0.00  0.00     0.002 A 
ATOM     10  C   UNN dAMED      -5.273   0.303  -1.354  0.00  0.00     0.021 A 
ATOM     11  N   UNN dAMED      -2.758   0.389  -1.500  0.00  0.00    -0.229 NA
ENDBRANCH   1   2
BRANCH   1  12
ATOM     12  N   UNN dAMED       0.261  -1.073  -1.348  0.00  0.00    -0.263 NA
BRANCH  12  13
ATOM     13  C   UNN dAMED       1.549  -1.065  -1.730  0.00  0.00     0.077 A 
ATOM     14  C   UNN dAMED       2.447  -0.105  -1.259  0.00  0.00     0.019 A 
ATOM     15  C   UNN dAMED       3.789  -0.112  -1.650  0.00  0.00     0.008 A 
ATOM     16  C   UNN dAMED       4.257  -1.086  -2.530  0.00  0.00     0.065 A 
ATOM     17  C   UNN dAMED       3.375  -2.052  -3.011  0.00  0.00     0.008 A 
ATOM     18  C   UNN dAMED       2.038  -2.036  -2.608  0.00  0.00     0.019 A 
BRANCH  16  19
ATOM     19  C   UNN dAMED       5.680  -1.093  -2.951  0.00  0.00     0.211 C 
ATOM     20  O   UNN dAMED       6.010  -0.252  -3.842  0.00  0.00    -0.644 OA
ATOM     21  O   UNN dAMED       6.436  -1.934  -2.378  0.00  0.00    -0.644 OA
ENDBRANCH  16  19
ENDBRANCH  12  13
ENDBRANCH   1  12
TORSDOF 4
