REMARK  7 active torsions:
REMARK  status: ('A' for Active; 'I' for Inactive)
REMARK    1  A    between atoms: C_3  and  O_18 
REMARK    2  A    between atoms: C_6  and  N_17 
REMARK    3  A    between atoms: C_8  and  C_14 
REMARK    4  A    between atoms: C_10  and  N_17 
REMARK    5  A    between atoms: O_18  and  C_19 
REMARK    6  A    between atoms: C_19  and  C_20 
REMARK    7  A    between atoms: C_20  and  C_21 
ROOT
ATOM      1  N   UNN dAMED      -0.861   0.143   3.809  0.00  0.00    -0.219 NA
ATOM      2  C   UNN dAMED       0.388  -0.343   3.948  0.00  0.00     0.178 A 
ATOM      3  C   UNN dAMED       1.125  -0.908   2.927  0.00  0.00     0.046 A 
ATOM      4  C   UNN dAMED       0.521  -0.969   1.673  0.00  0.00     0.024 A 
ATOM      5  C   UNN dAMED      -0.771  -0.484   1.440  0.00  0.00     0.101 A 
ATOM      6  C   UNN dAMED      -1.398   0.049   2.568  0.00  0.00     0.120 A 
ENDROOT
BRANCH   5   7
ATOM      7  N   UNN dAMED      -1.284  -0.567   0.187  0.00  0.00    -0.244 NA
BRANCH   7   8
ATOM      8  C   UNN dAMED      -2.486   0.014  -0.051  0.00  0.00     0.088 A 
ATOM      9  C   UNN dAMED      -3.636  -0.732  -0.406  0.00  0.00     0.082 A 
ATOM     10  C   UNN dAMED      -4.841  -0.084  -0.729  0.00  0.00     0.009 A 
ATOM     11  C   UNN dAMED      -4.934   1.301  -0.715  0.00  0.00     0.012 A 
ATOM     12  C   UNN dAMED      -3.814   2.045  -0.379  0.00  0.00     0.059 A 
ATOM     13 CL   UNN dAMED      -3.920   3.754  -0.306  0.00  0.00    -0.082 Cl
ATOM     14  C   UNN dAMED      -2.609   1.415  -0.072  0.00  0.00     0.031 A 
BRANCH   9  15
ATOM     15  C   UNN dAMED      -3.631  -2.225  -0.488  0.00  0.00     0.212 C 
ATOM     16  O   UNN dAMED      -3.425  -2.854   0.594  0.00  0.00    -0.644 OA
ATOM     17  O   UNN dAMED      -3.859  -2.728  -1.631  0.00  0.00    -0.644 OA
ENDBRANCH   9  15
ENDBRANCH   7   8
ENDBRANCH   5   7
BRANCH   2  18
ATOM     18  O   UNN dAMED       0.968  -0.243   5.188  0.00  0.00    -0.315 OA
BRANCH  18  19
ATOM     19  C   UNN dAMED       0.001  -0.699   6.089  0.00  0.00     0.151 C 
BRANCH  19  20
ATOM     20  C   UNN dAMED       0.276  -0.656   7.597  0.00  0.00     0.033 C 
BRANCH  20  21
ATOM     21  C   UNN dAMED      -0.133   0.572   8.418  0.00  0.00     0.003 C 
ATOM     22  C   UNN dAMED      -1.388   1.364   8.036  0.00  0.00     0.000 C 
ENDBRANCH  20  21
ENDBRANCH  19  20
ENDBRANCH  18  19
ENDBRANCH   2  18
TORSDOF 7
