REMARK  3 active torsions:
REMARK  status: ('A' for Active; 'I' for Inactive)
REMARK    1  A    between atoms: C_2  and  C_8 
REMARK    2  A    between atoms: C_8  and  O_11 
REMARK    3  A    between atoms: O_11  and  C_14 
ROOT
ATOM      1  C   UNN dAMED      -0.551   1.190  -0.819  0.00  0.00     0.206 A 
ATOM      2  C   UNN dAMED       0.037   0.363   0.072  0.00  0.00     0.158 A 
ATOM      3  C   UNN dAMED      -2.020   0.913  -1.088  0.00  0.00     0.055 A 
ATOM      4  C   UNN dAMED      -0.726  -0.752   0.715  0.00  0.00     0.266 A 
ATOM      5  C   UNN dAMED      -2.693  -0.082  -0.510  0.00  0.00     0.040 A 
ATOM      6  N   UNN dAMED      -2.049  -0.894   0.373  0.00  0.00    -0.324 N 
ATOM      7  H   UNN dAMED      -2.583  -1.647   0.795  0.00  0.00     0.169 HD
ATOM      8  O   UNN dAMED      -0.167  -1.501   1.516  0.00  0.00    -0.267 OA
ATOM      9  C   UNN dAMED      -4.146  -0.309  -0.810  0.00  0.00     0.050 C 
ATOM     10  O   UNN dAMED      -0.111   2.173  -1.476  0.00  0.00    -0.286 OA
ENDROOT
BRANCH   2  11
ATOM     11  C   UNN dAMED       1.464   0.571   0.396  0.00  0.00     0.304 C 
ATOM     12  O   UNN dAMED       1.897   1.421   1.156  0.00  0.00    -0.259 OA
BRANCH  11  13
ATOM     13  O   UNN dAMED       2.194  -0.369  -0.243  0.00  0.00    -0.298 OA
BRANCH  13  14
ATOM     14  C   UNN dAMED       1.247  -1.270  -0.738  0.00  0.00     0.152 C 
ATOM     15  C   UNN dAMED       1.683  -2.447  -1.614  0.00  0.00     0.035 C 
ENDBRANCH  13  14
ENDBRANCH  11  13
ENDBRANCH   2  11
TORSDOF 3
