REMARK  0 active torsions:
REMARK  status: ('A' for Active; 'I' for Inactive)
REMARK       I    between atoms: C_12  and  N_16 
REMARK       I    between atoms: C_14  and  N_16 
ROOT
ATOM      1  N   UNN dAMED       1.665   0.902  -0.055  0.00  0.00     0.022 NA
ATOM      2  N   UNN dAMED       0.469  -1.033   0.151  0.00  0.00    -0.039 NA
ATOM      3  N   UNN dAMED       0.339   1.125  -0.113  0.00  0.00    -0.244 N 
ATOM      4  H   UNN dAMED       0.006   2.073  -0.235  0.00  0.00     0.191 HD
ATOM      5  C   UNN dAMED      -2.458  -0.874  -1.019  0.00  0.00     0.003 A 
ATOM      6  C   UNN dAMED      -1.830  -0.110  -0.033  0.00  0.00     0.036 A 
ATOM      7  C   UNN dAMED      -3.849  -0.960  -1.072  0.00  0.00     0.000 A 
ATOM      8  C   UNN dAMED      -4.625  -0.281  -0.135  0.00  0.00     0.000 A 
ATOM      9  C   UNN dAMED      -2.615   0.562   0.906  0.00  0.00     0.003 A 
ATOM     10  C   UNN dAMED      -0.381  -0.035   0.010  0.00  0.00     0.175 A 
ATOM     11  C   UNN dAMED      -4.007   0.480   0.854  0.00  0.00     0.000 A 
ATOM     12  C   UNN dAMED       1.701  -0.427   0.120  0.00  0.00     0.771 A 
ATOM     13  N   UNN dAMED       3.004   0.230   2.086  0.00  0.00    -0.037 NA
ATOM     14  C   UNN dAMED       3.518  -0.857   1.323  0.00  0.00     0.370 C 
ATOM     15  O   UNN dAMED       4.532  -1.405   1.738  0.00  0.00    -0.248 OA
ATOM     16  N   UNN dAMED       2.858  -1.161   0.209  0.00  0.00    -0.004 NA
ENDROOT
TORSDOF 0
