REMARK  3 active torsions:
REMARK  status: ('A' for Active; 'I' for Inactive)
REMARK    1  A    between atoms: C_9  and  C_19 
REMARK    2  A    between atoms: C_13  and  S_18 
REMARK    3  A    between atoms: S_18  and  C_19 
ROOT
ATOM      1  S   UNN dAMED      -0.551   1.697   0.251  0.00  0.00    -0.072 SA
ENDROOT
BRANCH   1   2
ATOM      2  C   UNN dAMED      -2.063   0.812   0.362  0.00  0.00     0.171 A 
ATOM      3  N   UNN dAMED      -2.403   0.361   1.611  0.00  0.00    -0.333 N 
ATOM      4  C   UNN dAMED      -3.603  -0.436   1.727  0.00  0.00     0.074 A 
ATOM      5  H   UNN dAMED      -1.761   0.540   2.378  0.00  0.00     0.168 HD
ATOM      6  C   UNN dAMED      -4.351  -0.614   0.637  0.00  0.00     0.053 A 
ATOM      7  C   UNN dAMED      -3.947  -0.054  -0.679  0.00  0.00     0.278 A 
ATOM      8  C   UNN dAMED      -5.617  -1.416   0.749  0.00  0.00     0.038 C 
ATOM      9  O   UNN dAMED      -4.674  -0.235  -1.652  0.00  0.00    -0.265 OA
ATOM     10  N   UNN dAMED      -2.753   0.638  -0.722  0.00  0.00    -0.185 NA
ENDBRANCH   1   2
BRANCH   1  11
ATOM     11  C   UNN dAMED      -0.547   2.193   1.975  0.00  0.00     0.092 C 
BRANCH  11  12
ATOM     12  C   UNN dAMED       0.370   3.276   2.477  0.00  0.00    -0.000 A 
ATOM     13  C   UNN dAMED       0.152   4.606   2.121  0.00  0.00    -0.002 A 
ATOM     14  C   UNN dAMED       0.946   5.612   2.666  0.00  0.00     0.011 A 
ATOM     15  C   UNN dAMED       1.948   5.282   3.575  0.00  0.00     0.059 A 
ATOM     16 CL   UNN dAMED       2.906   6.527   4.265  0.00  0.00    -0.082 Cl
ATOM     17  C   UNN dAMED       2.170   3.959   3.942  0.00  0.00     0.022 A 
ATOM     18  C   UNN dAMED       1.376   2.961   3.387  0.00  0.00     0.056 A 
ATOM     19 CL   UNN dAMED       1.629   1.325   3.838  0.00  0.00    -0.083 Cl
ENDBRANCH  11  12
ENDBRANCH   1  11
TORSDOF 3
