REMARK  2 active torsions:
REMARK  status: ('A' for Active; 'I' for Inactive)
REMARK    1  A    between atoms: C_10  and  C_17 
REMARK    2  A    between atoms: C_17  and  N_18 
ROOT
ATOM      1  C   UNN dAMED      -0.359  -1.175   0.363  0.00  0.00     0.087 A 
ATOM      2  C   UNN dAMED      -0.978   0.106   0.326  0.00  0.00     0.016 A 
ATOM      3  C   UNN dAMED      -0.238   1.304   0.173  0.00  0.00     0.002 A 
ATOM      4  C   UNN dAMED       1.152   1.276   0.014  0.00  0.00     0.015 A 
ATOM      5  C   UNN dAMED       1.717   0.015   0.019  0.00  0.00     0.093 A 
ATOM      6  C   UNN dAMED       1.017  -1.173   0.199  0.00  0.00     0.134 A 
ATOM      7  N   UNN dAMED      -1.115  -2.327   0.502  0.00  0.00    -0.292 N 
ATOM      8  C   UNN dAMED      -2.475  -2.342   0.360  0.00  0.00     0.261 C 
ATOM      9  C   UNN dAMED      -3.148  -0.980   0.360  0.00  0.00     0.059 C 
ATOM     10  C   UNN dAMED      -2.435   0.152   0.381  0.00  0.00     0.017 C 
ATOM     11  C   UNN dAMED       2.061   2.392  -0.217  0.00  0.00    -0.016 A 
ATOM     12  C   UNN dAMED       3.357   2.141  -0.486  0.00  0.00     0.057 A 
ATOM     13  C   UNN dAMED       3.908   0.717  -0.525  0.00  0.00     0.266 A 
ATOM     14  N   UNN dAMED       3.020  -0.293  -0.225  0.00  0.00    -0.250 N 
ATOM     15  O   UNN dAMED       1.900  -2.240   0.109  0.00  0.00    -0.285 OA
ATOM     16  C   UNN dAMED       3.125  -1.654  -0.169  0.00  0.00     0.211 A 
ATOM     17  O   UNN dAMED       5.054   0.456  -0.856  0.00  0.00    -0.267 OA
ATOM     18  O   UNN dAMED      -3.175  -3.345   0.289  0.00  0.00    -0.267 OA
ATOM     19  C   UNN dAMED       1.550   3.802  -0.136  0.00  0.00     0.031 C 
ATOM     20  C   UNN dAMED      -0.459  -3.534   0.144  0.00  0.00     0.134 C 
ENDROOT
BRANCH  10  21
ATOM     21  C   UNN dAMED      -3.207   1.437   0.347  0.00  0.00     0.277 C 
BRANCH  21  22
ATOM     22  N   UNN dAMED      -4.741   1.461  -0.406  0.00  0.00     0.146 N 
ATOM     23  C   UNN dAMED      -3.214   1.437   0.344  0.00  0.00     0.286 C 
ATOM     24  C   UNN dAMED      -3.215   1.437   0.343  0.00  0.00     0.286 C 
ENDBRANCH  21  22
ENDBRANCH  10  21
TORSDOF 2
