REMARK  4 active torsions:
REMARK  status: ('A' for Active; 'I' for Inactive)
REMARK    1  A    between atoms: C_4  and  N_11 
REMARK    2  A    between atoms: C_7  and  AS_8 
REMARK       I    between atoms: N_11  and  C_12 
REMARK    3  A    between atoms: C_12  and  O_14 
REMARK    4  A    between atoms: O_14  and  C_15 
ROOT
ATOM      1  C   UNN dAMED       0.163  -2.638   0.120  0.00  0.00     0.019 A 
ATOM      2  C   UNN dAMED      -1.218  -2.804   0.234  0.00  0.00     0.002 A 
ATOM      3  C   UNN dAMED       0.733  -1.379  -0.113  0.00  0.00     0.087 A 
ATOM      4  C   UNN dAMED      -0.133  -0.281  -0.203  0.00  0.00     0.019 A 
ATOM      5  C   UNN dAMED      -2.052  -1.697   0.136  0.00  0.00     0.000 A 
ATOM      6  C   UNN dAMED      -1.509  -0.429  -0.088  0.00  0.00     0.002 A 
ENDROOT
BRANCH   3   7
ATOM      7  N   UNN dAMED       2.071  -1.216  -0.155  0.00  0.00    -0.186 NA
ATOM      8  C   UNN dAMED       2.601  -1.378  -1.369  0.00  0.00     0.388 C 
ATOM      9  O   UNN dAMED       2.050  -1.374  -2.467  0.00  0.00    -0.236 OA
BRANCH   8  10
ATOM     10  O   UNN dAMED       3.953  -1.531  -1.263  0.00  0.00    -0.283 OA
BRANCH  10  11
ATOM     11  C   UNN dAMED       4.240  -1.278   0.081  0.00  0.00     0.154 C 
ATOM     12  C   UNN dAMED       4.929   0.029   0.488  0.00  0.00     0.035 C 
ENDBRANCH  10  11
ENDBRANCH   8  10
ENDBRANCH   3   7
BRANCH   6  13
ATOM     13 AS   UNN dAMED      -2.817   0.974  -0.065  0.00  0.00     0.000 As
ATOM     14  O   UNN dAMED      -2.241   2.213   0.746  0.00  0.00     0.000 OA
ATOM     15  O   UNN dAMED      -4.302   0.426   0.705  0.00  0.00     0.000 OA
ATOM     16  O   UNN dAMED      -3.170   1.469  -1.715  0.00  0.00     0.000 OA
ENDBRANCH   6  13
TORSDOF 4
