REMARK  8 active torsions:
REMARK  status: ('A' for Active; 'I' for Inactive)
REMARK    1  A    between atoms: C_3  and  O_29 
REMARK    2  A    between atoms: C_4  and  N_31 
REMARK    3  A    between atoms: C_8  and  O_32 
REMARK    4  A    between atoms: C_10  and  N_28 
REMARK    5  A    between atoms: C_14  and  N_31 
REMARK    6  A    between atoms: C_17  and  C_34 
REMARK    7  A    between atoms: C_20  and  N_28 
REMARK    8  A    between atoms: C_22  and  C_25 
ROOT
ATOM      1  C   UNN dAMED       1.424  -0.111   0.509  0.00  0.00     0.026 A 
ATOM      2  C   UNN dAMED       0.740  -0.915  -0.406  0.00  0.00     0.002 A 
ATOM      3  C   UNN dAMED       2.817  -0.014   0.467  0.00  0.00     0.112 A 
ATOM      4  C   UNN dAMED       3.594  -0.721  -0.462  0.00  0.00     0.103 A 
ATOM      5  C   UNN dAMED       1.493  -1.631  -1.339  0.00  0.00     0.002 A 
ATOM      6  C   UNN dAMED      -0.717  -0.963  -0.425  0.00  0.00     0.002 A 
ATOM      7  C   UNN dAMED      -1.471   0.190  -0.656  0.00  0.00     0.026 A 
ATOM      8  C   UNN dAMED      -2.868   0.147  -0.655  0.00  0.00     0.112 A 
ATOM      9  C   UNN dAMED      -1.402  -2.160  -0.214  0.00  0.00     0.002 A 
ATOM     10  C   UNN dAMED      -3.577  -1.052  -0.467  0.00  0.00     0.103 A 
ATOM     11  C   UNN dAMED       2.886  -1.529  -1.363  0.00  0.00     0.021 A 
ATOM     12  C   UNN dAMED      -2.798  -2.196  -0.241  0.00  0.00     0.021 A 
ENDROOT
BRANCH   3  13
ATOM     13  O   UNN dAMED       3.405   0.868   1.333  0.00  0.00    -0.327 OA
ATOM     14  C   UNN dAMED       4.054   1.798   0.516  0.00  0.00     0.181 C 
ENDBRANCH   3  13
BRANCH   4  15
ATOM     15  N   UNN dAMED       4.929  -0.517  -0.586  0.00  0.00    -0.243 NA
BRANCH  15  16
ATOM     16  C   UNN dAMED       5.705  -1.599  -0.332  0.00  0.00     0.087 A 
ATOM     17  C   UNN dAMED       6.024  -1.951   0.990  0.00  0.00     0.019 A 
ATOM     18  C   UNN dAMED       6.903  -2.994   1.288  0.00  0.00     0.002 A 
ATOM     19  C   UNN dAMED       7.505  -3.708   0.260  0.00  0.00     0.000 A 
ATOM     20  C   UNN dAMED       7.223  -3.378  -1.060  0.00  0.00     0.008 A 
ATOM     21  C   UNN dAMED       6.339  -2.333  -1.362  0.00  0.00     0.082 A 
BRANCH  21  22
ATOM     22  C   UNN dAMED       6.123  -2.014  -2.804  0.00  0.00     0.212 C 
ATOM     23  O   UNN dAMED       6.892  -1.141  -3.309  0.00  0.00    -0.644 OA
ATOM     24  O   UNN dAMED       5.199  -2.654  -3.391  0.00  0.00    -0.644 OA
ENDBRANCH  21  22
ENDBRANCH  15  16
ENDBRANCH   4  15
BRANCH   8  25
ATOM     25  O   UNN dAMED      -3.515   1.340  -0.834  0.00  0.00    -0.327 OA
ATOM     26  C   UNN dAMED      -4.862   1.013  -0.998  0.00  0.00     0.181 C 
ENDBRANCH   8  25
BRANCH  10  27
ATOM     27  N   UNN dAMED      -4.923  -1.173  -0.376  0.00  0.00    -0.243 NA
BRANCH  27  28
ATOM     28  C   UNN dAMED      -5.661  -0.850  -1.469  0.00  0.00     0.087 A 
ATOM     29  C   UNN dAMED      -5.220  -1.114  -2.781  0.00  0.00     0.019 A 
ATOM     30  C   UNN dAMED      -5.975  -0.796  -3.909  0.00  0.00     0.002 A 
ATOM     31  C   UNN dAMED      -7.221  -0.210  -3.756  0.00  0.00     0.000 A 
ATOM     32  C   UNN dAMED      -7.706   0.039  -2.478  0.00  0.00     0.008 A 
ATOM     33  C   UNN dAMED      -6.954  -0.284  -1.335  0.00  0.00     0.082 A 
BRANCH  33  34
ATOM     34  C   UNN dAMED      -7.611  -0.048  -0.001  0.00  0.00     0.212 C 
ATOM     35  O   UNN dAMED      -6.917   0.514   0.901  0.00  0.00    -0.644 OA
ATOM     36  O   UNN dAMED      -8.822  -0.417   0.107  0.00  0.00    -0.644 OA
ENDBRANCH  33  34
ENDBRANCH  27  28
ENDBRANCH  10  27
TORSDOF 8
