REMARK  0 active torsions:
REMARK  status: ('A' for Active; 'I' for Inactive)
ROOT
ATOM      1  N   UNN dAMED       2.568   1.324   0.155  0.00  0.00    -0.244 NA
ATOM      2  N   UNN dAMED      -1.135  -1.758  -0.164  0.00  0.00    -0.244 NA
ATOM      3  C   UNN dAMED      -2.478  -1.925  -0.202  0.00  0.00     0.099 A 
ATOM      4  C   UNN dAMED      -3.391  -0.892  -0.134  0.00  0.00     0.021 A 
ATOM      5  C   UNN dAMED      -2.883   0.391  -0.020  0.00  0.00     0.003 A 
ATOM      6  C   UNN dAMED      -1.508   0.599   0.022  0.00  0.00     0.018 A 
ATOM      7  C   UNN dAMED      -0.639  -0.505  -0.053  0.00  0.00     0.083 A 
ATOM      8  C   UNN dAMED       0.742  -0.249  -0.007  0.00  0.00     0.035 A 
ATOM      9  C   UNN dAMED       1.674  -1.290  -0.075  0.00  0.00     0.005 A 
ATOM     10  C   UNN dAMED       3.036  -1.038  -0.030  0.00  0.00     0.021 A 
ATOM     11  C   UNN dAMED      -1.017   1.893   0.136  0.00  0.00     0.003 A 
ATOM     12  C   UNN dAMED       1.251   1.061   0.109  0.00  0.00     0.083 A 
ATOM     13  C   UNN dAMED       3.426   0.280   0.085  0.00  0.00     0.099 A 
ATOM     14  C   UNN dAMED       0.353   2.111   0.179  0.00  0.00     0.019 A 
ENDROOT
TORSDOF 0
