REMARK  4 active torsions:
REMARK  status: ('A' for Active; 'I' for Inactive)
REMARK    1  A    between atoms: C_3  and  C_12 
REMARK    2  A    between atoms: C_3  and  C_14 
REMARK    3  A    between atoms: C_5  and  C_8 
REMARK    4  A    between atoms: C_5  and  C_11 
ROOT
ATOM      1  C   UNN dAMED       0.055  -0.150   0.058  0.00  0.00     0.005 C 
ATOM      2  C   UNN dAMED       0.029   1.662  -0.659  0.00  0.00     0.001 C 
ATOM      3  C   UNN dAMED       1.764  -0.028   0.058  0.00  0.00     0.061 C 
ATOM      4  C   UNN dAMED       0.055  -0.150   0.058  0.00  0.00     0.005 C 
ATOM      5  C   UNN dAMED      -1.660  -0.117  -0.069  0.00  0.00     0.061 C 
ATOM      6  C   UNN dAMED       0.043  -0.150   0.070  0.00  0.00     0.005 C 
ATOM      7  C   UNN dAMED       0.061  -0.148   0.034  0.00  0.00     0.005 C 
ENDROOT
BRANCH   3   8
ATOM      8  C   UNN dAMED       1.911   1.475   0.236  0.00  0.00     0.185 C 
ATOM      9  O   UNN dAMED       3.171   2.036   0.288  0.00  0.00    -0.221 OA
ENDBRANCH   3   8
BRANCH   3  10
ATOM     10  C   UNN dAMED       1.591  -1.538  -0.013  0.00  0.00     0.185 C 
ATOM     11  O   UNN dAMED       2.102  -2.242  -1.072  0.00  0.00    -0.221 OA
ENDBRANCH   3  10
BRANCH   5  12
ATOM     12  C   UNN dAMED      -1.787  -1.160   1.026  0.00  0.00     0.185 C 
ATOM     13  O   UNN dAMED      -0.636  -1.742   1.485  0.00  0.00    -0.221 OA
ENDBRANCH   5  12
BRANCH   5  14
ATOM     14  C   UNN dAMED      -1.865   0.913  -1.168  0.00  0.00     0.185 C 
ATOM     15  O   UNN dAMED      -2.636   0.667  -2.286  0.00  0.00    -0.221 OA
ENDBRANCH   5  14
TORSDOF 4
