REMARK  3 active torsions:
REMARK  status: ('A' for Active; 'I' for Inactive)
REMARK    1  A    between atoms: N_1  and  C_10 
REMARK    2  A    between atoms: N_2  and  C_5 
REMARK    3  A    between atoms: C_12  and  S_16 
ROOT
ATOM      1  C   UNN dAMED      -1.834  -2.325  -0.125  0.00  0.00     0.021 A 
ATOM      2  C   UNN dAMED      -1.385  -1.019  -0.347  0.00  0.00     0.115 A 
ATOM      3  C   UNN dAMED      -3.183  -2.586   0.117  0.00  0.00    -0.003 A 
ATOM      4  C   UNN dAMED      -2.325   0.014  -0.279  0.00  0.00     0.126 A 
ATOM      5  C   UNN dAMED      -4.099  -1.538   0.158  0.00  0.00    -0.021 A 
ATOM      6  C   UNN dAMED      -3.673  -0.228  -0.033  0.00  0.00     0.010 A 
ATOM      7  C   UNN dAMED      -5.551  -1.824   0.416  0.00  0.00     0.031 C 
ENDROOT
BRANCH   2   8
ATOM      8  N   UNN dAMED      -0.022  -0.770  -0.578  0.00  0.00    -0.147 NA
ATOM      9  N   UNN dAMED       0.288  -1.145  -1.730  0.00  0.00    -0.148 NA
BRANCH   9  10
ATOM     10  C   UNN dAMED       1.622  -0.807  -2.002  0.00  0.00     0.099 A 
ATOM     11  C   UNN dAMED       2.684  -1.479  -1.389  0.00  0.00     0.022 A 
ATOM     12  C   UNN dAMED       4.001  -1.150  -1.703  0.00  0.00     0.016 A 
ATOM     13  C   UNN dAMED       4.263  -0.165  -2.651  0.00  0.00     0.070 A 
ATOM     14  C   UNN dAMED       3.213   0.494  -3.285  0.00  0.00     0.011 A 
ATOM     15  N   UNN dAMED       5.608   0.175  -2.969  0.00  0.00    -0.101 NA
ATOM     16  C   UNN dAMED       1.897   0.171  -2.961  0.00  0.00    -0.001 A 
ATOM     17  C   UNN dAMED       0.762   0.872  -3.651  0.00  0.00     0.033 C 
ENDBRANCH   9  10
ENDBRANCH   2   8
BRANCH   4  18
ATOM     18  S   UNN dAMED      -1.862   1.703  -0.480  0.00  0.00     0.304 S 
ATOM     19  O   UNN dAMED      -1.398   1.818  -1.851  0.00  0.00    -0.197 OA
ATOM     20  O   UNN dAMED      -0.964   1.992   0.623  0.00  0.00    -0.197 OA
ATOM     21  N   UNN dAMED      -3.260   2.667  -0.303  0.00  0.00    -0.043 N 
ENDBRANCH   4  18
TORSDOF 3
