REMARK  4 active torsions:
REMARK  status: ('A' for Active; 'I' for Inactive)
REMARK    1  A    between atoms: C_2  and  C_17 
REMARK    2  A    between atoms: C_3  and  C_13 
REMARK    3  A    between atoms: C_6  and  C_21 
REMARK    4  A    between atoms: C_7  and  C_21 
ROOT
ATOM      1  C   UNN dAMED       3.041  -0.210  -0.322  0.00  0.00     0.136 C 
ATOM      2  C   UNN dAMED       4.338  -0.559   0.144  0.00  0.00     0.111 C 
ATOM      3  C   UNN dAMED       2.683  -0.345  -1.692  0.00  0.00     0.111 C 
ATOM      4  N   UNN dAMED       2.398  -0.451  -2.811  0.00  0.00    -0.191 NA
ATOM      5  N   UNN dAMED       5.389  -0.856   0.535  0.00  0.00    -0.191 NA
ENDROOT
BRANCH   1   6
ATOM      6  C   UNN dAMED       2.171   0.256   0.587  0.00  0.00     0.021 C 
BRANCH   6   7
ATOM      7  C   UNN dAMED       0.662   0.196   0.474  0.00  0.00     0.001 A 
ATOM      8  C   UNN dAMED      -0.016  -0.902   0.981  0.00  0.00    -0.001 A 
ATOM      9  C   UNN dAMED      -1.407  -0.994   0.857  0.00  0.00     0.016 A 
ATOM     10  C   UNN dAMED      -2.194   0.006   0.231  0.00  0.00     0.188 A 
ATOM     11  C   UNN dAMED      -1.448   1.118  -0.249  0.00  0.00     0.016 A 
ATOM     12  O   UNN dAMED      -3.466  -0.080   0.119  0.00  0.00    -0.287 OA
ATOM     13  C   UNN dAMED      -0.054   1.218  -0.130  0.00  0.00    -0.001 A 
BRANCH   9  14
ATOM     14  C   UNN dAMED      -2.042  -2.219   1.465  0.00  0.00     0.022 C 
ATOM     15  C   UNN dAMED      -2.597  -3.302   0.075  0.00  0.00     0.004 C 
ATOM     16  C   UNN dAMED      -2.597  -3.302   0.075  0.00  0.00     0.004 C 
ATOM     17  C   UNN dAMED      -2.597  -3.302   0.074  0.00  0.00     0.004 C 
ENDBRANCH   9  14
BRANCH  11  18
ATOM     18  C   UNN dAMED      -2.155   2.274  -0.911  0.00  0.00     0.022 C 
ATOM     19  C   UNN dAMED      -0.864   3.384  -1.623  0.00  0.00     0.004 C 
ATOM     20  C   UNN dAMED      -0.862   3.387  -1.624  0.00  0.00     0.004 C 
ATOM     21  C   UNN dAMED      -0.866   3.383  -1.622  0.00  0.00     0.004 C 
ENDBRANCH  11  18
ENDBRANCH   6   7
ENDBRANCH   1   6
TORSDOF 4
