REMARK  9 active torsions:
REMARK  status: ('A' for Active; 'I' for Inactive)
REMARK    1  A    between atoms: N_7  and  C_30 
REMARK    2  A    between atoms: C_9  and  N_31 
REMARK    3  A    between atoms: C_14  and  C_15 
REMARK       I    between atoms: C_15  and  N_32 
REMARK    4  A    between atoms: N_17  and  C_34 
REMARK    5  A    between atoms: N_17  and  C_35 
REMARK    6  A    between atoms: N_17  and  C_37 
REMARK    7  A    between atoms: C_30  and  N_31 
REMARK    8  A    between atoms: N_32  and  C_33 
REMARK    9  A    between atoms: C_33  and  C_34 
ROOT
ATOM      1  H   UNN dAMED      -5.218  -0.771  -2.170  0.00  0.00     0.165 HD
ATOM      2  C   UNN dAMED      -4.474   0.026  -0.269  0.00  0.00     0.170 C 
ATOM      3  N   UNN dAMED      -4.465  -0.271  -1.703  0.00  0.00    -0.321 N 
ATOM      4  C   UNN dAMED      -3.297   0.126  -2.355  0.00  0.00     0.311 C 
ATOM      5  O   UNN dAMED      -3.005  -0.120  -3.516  0.00  0.00    -0.253 OA
ATOM      6  O   UNN dAMED      -2.510   0.978   0.875  0.00  0.00    -0.275 OA
ATOM      7  N   UNN dAMED      -2.549   0.812  -1.429  0.00  0.00    -0.111 NA
ATOM      8  C   UNN dAMED      -3.080   0.685  -0.170  0.00  0.00     0.252 C 
ATOM      9  C   UNN dAMED      -5.620   0.987   0.021  0.00  0.00     0.008 A 
ATOM     10  C   UNN dAMED      -6.938   0.511   0.045  0.00  0.00    -0.002 A 
ATOM     11  C   UNN dAMED      -8.007   1.371   0.277  0.00  0.00    -0.000 A 
ATOM     12  C   UNN dAMED      -7.774   2.727   0.473  0.00  0.00    -0.000 A 
ATOM     13  C   UNN dAMED      -6.474   3.222   0.436  0.00  0.00    -0.000 A 
ATOM     14  C   UNN dAMED      -5.407   2.357   0.210  0.00  0.00    -0.002 A 
ATOM     15  C   UNN dAMED      -4.496  -1.222   0.605  0.00  0.00     0.008 A 
ATOM     16  C   UNN dAMED      -4.471  -2.508   0.055  0.00  0.00    -0.002 A 
ATOM     17  C   UNN dAMED      -4.454  -3.639   0.873  0.00  0.00    -0.000 A 
ATOM     18  C   UNN dAMED      -4.457  -3.494   2.258  0.00  0.00    -0.000 A 
ATOM     19  C   UNN dAMED      -4.485  -2.224   2.825  0.00  0.00    -0.000 A 
ATOM     20  C   UNN dAMED      -4.501  -1.100   2.003  0.00  0.00    -0.002 A 
ENDROOT
BRANCH   7  21
ATOM     21  C   UNN dAMED      -1.182   0.395  -1.394  0.00  0.00     0.163 C 
BRANCH  21  22
ATOM     22  N   UNN dAMED      -0.217   0.678  -2.450  0.00  0.00    -0.231 NA
BRANCH  22  23
ATOM     23  C   UNN dAMED       0.447  -0.377  -2.957  0.00  0.00     0.083 A 
ATOM     24  C   UNN dAMED       1.378  -0.242  -3.985  0.00  0.00     0.019 A 
ATOM     25  C   UNN dAMED       2.033  -1.363  -4.504  0.00  0.00     0.006 A 
ATOM     26  C   UNN dAMED       1.733  -2.634  -4.007  0.00  0.00     0.058 A 
ATOM     27  C   UNN dAMED       0.807  -2.781  -2.976  0.00  0.00     0.006 A 
ATOM     28  C   UNN dAMED       0.179  -1.652  -2.457  0.00  0.00     0.019 A 
BRANCH  26  29
ATOM     29  C   UNN dAMED       2.404  -3.851  -4.520  0.00  0.00     0.275 C 
ATOM     30  O   UNN dAMED       2.480  -4.831  -3.789  0.00  0.00    -0.266 OA
ATOM     31  N   UNN dAMED       2.852  -3.768  -5.767  0.00  0.00    -0.232 NA
BRANCH  31  32
ATOM     32  C   UNN dAMED       3.374  -2.509  -6.275  0.00  0.00     0.164 C 
BRANCH  32  33
ATOM     33  C   UNN dAMED       4.812  -2.084  -5.965  0.00  0.00     0.276 C 
BRANCH  33  34
ATOM     34  N   UNN dAMED       5.932  -1.973  -7.124  0.00  0.00     0.139 N 
BRANCH  34  35
ATOM     35  C   UNN dAMED       4.811  -2.080  -5.968  0.00  0.00     0.250 C 
ATOM     36  C   UNN dAMED       5.138  -2.771  -4.641  0.00  0.00     0.037 C 
ENDBRANCH  34  35
BRANCH  34  37
ATOM     37  C   UNN dAMED       4.547  -1.311  -7.212  0.00  0.00     0.250 C 
ATOM     38  C   UNN dAMED       3.338  -2.115  -7.689  0.00  0.00     0.037 C 
ENDBRANCH  34  37
ENDBRANCH  33  34
ENDBRANCH  32  33
ENDBRANCH  31  32
ENDBRANCH  26  29
ENDBRANCH  22  23
ENDBRANCH  21  22
ENDBRANCH   7  21
TORSDOF 9
