REMARK  2 active torsions:
REMARK  status: ('A' for Active; 'I' for Inactive)
REMARK    1  A    between atoms: C_5  and  C_22 
REMARK    2  A    between atoms: N_19  and  C_22 
ROOT
ATOM      1  C   UNN dAMED       0.277  -2.202   1.161  0.00  0.00     0.055 A 
ATOM      2  C   UNN dAMED      -1.097  -2.131   1.103  0.00  0.00     0.014 A 
ATOM      3  C   UNN dAMED      -1.449  -0.875   0.525  0.00  0.00     0.016 A 
ATOM      4  C   UNN dAMED      -3.891  -0.857   0.355  0.00  0.00     0.155 A 
ATOM      5  C   UNN dAMED      -0.259  -0.186   0.286  0.00  0.00     0.044 A 
ATOM      6  C   UNN dAMED      -2.661  -0.241   0.155  0.00  0.00     0.050 A 
ATOM      7  C   UNN dAMED      -0.219   1.081  -0.299  0.00  0.00     0.013 A 
ATOM      8  C   UNN dAMED      -2.668   1.030  -0.435  0.00  0.00     0.087 A 
ATOM      9  C   UNN dAMED      -4.965   0.950  -0.543  0.00  0.00     0.238 A 
ATOM     10  C   UNN dAMED      -1.447   1.653  -0.651  0.00  0.00     0.020 A 
ATOM     11  N   UNN dAMED      -5.055  -0.277   0.012  0.00  0.00    -0.200 NA
ATOM     12  N   UNN dAMED      -3.817   1.627  -0.781  0.00  0.00    -0.214 NA
ATOM     13  N   UNN dAMED       0.741  -0.991   0.750  0.00  0.00    -0.208 NA
ATOM     14  N   UNN dAMED      -6.185   1.591  -0.909  0.00  0.00    -0.060 NA
ATOM     15  N   UNN dAMED      -3.918  -2.155   0.941  0.00  0.00    -0.080 NA
ENDROOT
BRANCH  13  16
ATOM     16  C   UNN dAMED       1.802  -1.124  -0.213  0.00  0.00     0.055 C 
BRANCH  16  17
ATOM     17  C   UNN dAMED       1.686  -1.802  -1.571  0.00  0.00     0.012 A 
ATOM     18  C   UNN dAMED       1.351  -1.052  -2.698  0.00  0.00     0.002 A 
ATOM     19  C   UNN dAMED       1.214  -1.674  -3.936  0.00  0.00     0.014 A 
ATOM     20  C   UNN dAMED       1.417  -3.047  -4.048  0.00  0.00     0.070 A 
ATOM     21  C   UNN dAMED       1.765  -3.797  -2.927  0.00  0.00     0.014 A 
ATOM     22  N   UNN dAMED       1.247  -3.690  -5.305  0.00  0.00    -0.101 NA
ATOM     23  C   UNN dAMED       1.907  -3.173  -1.690  0.00  0.00     0.002 A 
ENDBRANCH  16  17
ENDBRANCH  13  16
TORSDOF 2
