REMARK  4 active torsions:
REMARK  status: ('A' for Active; 'I' for Inactive)
REMARK    1  A    between atoms: C_5  and  S_9 
REMARK    2  A    between atoms: S_9  and  C_10 
REMARK    3  A    between atoms: C_10  and  C_11 
REMARK    4  A    between atoms: C_11  and  C_12 
ROOT
ATOM      1  N   UNN dAMED      -2.998   0.470   0.000  0.00  0.00    -0.219 NA
ATOM      2  N   UNN dAMED      -1.703  -1.543   0.000  0.00  0.00    -0.208 NA
ATOM      3  C   UNN dAMED      -0.597   0.591   0.000  0.00  0.00     0.040 A 
ATOM      4  C   UNN dAMED      -1.847   1.178  -0.000  0.00  0.00     0.064 A 
ATOM      5  C   UNN dAMED      -0.583  -0.789   0.001  0.00  0.00     0.111 A 
ATOM      6  C   UNN dAMED      -2.873  -0.873  -0.000  0.00  0.00     0.238 A 
ATOM      7  C   UNN dAMED      -1.933   2.679  -0.000  0.00  0.00     0.052 C 
ATOM      8  N   UNN dAMED      -4.071  -1.646  -0.000  0.00  0.00    -0.060 NA
ENDROOT
BRANCH   5   9
ATOM      9  S   UNN dAMED       0.975  -1.640  -0.001  0.00  0.00    -0.095 SA
BRANCH   9  10
ATOM     10  C   UNN dAMED       0.301  -3.156  -0.672  0.00  0.00     0.064 C 
BRANCH  10  11
ATOM     11  C   UNN dAMED       1.170  -4.415  -0.736  0.00  0.00     0.012 C 
BRANCH  11  12
ATOM     12  C   UNN dAMED       1.853  -4.937   0.532  0.00  0.00     0.001 C 
ATOM     13  C   UNN dAMED       1.096  -5.874   1.478  0.00  0.00     0.000 C 
ENDBRANCH  11  12
ENDBRANCH  10  11
ENDBRANCH   9  10
ENDBRANCH   5   9
TORSDOF 4
