REMARK  2 active torsions:
REMARK  status: ('A' for Active; 'I' for Inactive)
REMARK    1  A    between atoms: C_4  and  C_20 
REMARK    2  A    between atoms: C_11  and  N_19 
REMARK       I    between atoms: N_19  and  C_20 
ROOT
ATOM      1  N   UNN dAMED       0.384   0.478  -0.586  0.00  0.00    -0.208 NA
ATOM      2  C   UNN dAMED       1.042  -0.389   0.190  0.00  0.00     0.280 C 
ATOM      3  O   UNN dAMED       0.610  -1.283   0.915  0.00  0.00    -0.265 OA
ENDROOT
BRANCH   1   4
ATOM      4  C   UNN dAMED      -0.901   0.721  -0.249  0.00  0.00     0.085 A 
ATOM      5  C   UNN dAMED      -1.308   1.101   1.041  0.00  0.00     0.019 A 
ATOM      6  C   UNN dAMED      -2.632   1.444   1.329  0.00  0.00     0.002 A 
ATOM      7  C   UNN dAMED      -3.587   1.452   0.293  0.00  0.00     0.000 A 
ATOM      8  C   UNN dAMED      -3.021   1.780   2.626  0.00  0.00     0.000 A 
ATOM      9  C   UNN dAMED      -3.201   1.097  -0.996  0.00  0.00     0.002 A 
ATOM     10  C   UNN dAMED      -4.908   1.807   0.569  0.00  0.00     0.000 A 
ATOM     11  C   UNN dAMED      -1.878   0.735  -1.254  0.00  0.00     0.019 A 
ATOM     12  C   UNN dAMED      -5.286   2.138   1.868  0.00  0.00     0.000 A 
ATOM     13  C   UNN dAMED      -4.345   2.122   2.895  0.00  0.00     0.000 A 
ENDBRANCH   1   4
BRANCH   2  14
ATOM     14  C   UNN dAMED       2.510  -0.267   0.078  0.00  0.00     0.069 A 
ATOM     15  C   UNN dAMED       3.165  -1.213  -0.715  0.00  0.00     0.006 A 
ATOM     16  C   UNN dAMED       4.552  -1.177  -0.838  0.00  0.00     0.012 A 
ATOM     17  C   UNN dAMED       5.276  -0.196  -0.168  0.00  0.00     0.059 A 
ATOM     18 CL   UNN dAMED       6.987  -0.170  -0.297  0.00  0.00    -0.082 Cl
ATOM     19  C   UNN dAMED       4.631   0.749   0.626  0.00  0.00     0.023 A 
ATOM     20  C   UNN dAMED       3.243   0.713   0.756  0.00  0.00     0.063 A 
ATOM     21 CL   UNN dAMED       2.504   1.895   1.766  0.00  0.00    -0.082 Cl
ENDBRANCH   2  14
TORSDOF 2
