REMARK  1 active torsions:
REMARK  status: ('A' for Active; 'I' for Inactive)
REMARK    1  A    between atoms: C_2  and  C_7 
ROOT
ATOM      1  C   UNN dAMED      -0.200  -1.008  -0.074  0.00  0.00    -0.015 A 
ATOM      2  C   UNN dAMED       0.174   0.323   0.028  0.00  0.00     0.068 A 
ATOM      3  C   UNN dAMED      -1.550  -1.331  -0.104  0.00  0.00     0.017 A 
ATOM      4  C   UNN dAMED      -0.806   1.298   0.092  0.00  0.00     0.103 A 
ATOM      5  C   UNN dAMED      -2.463  -0.290  -0.030  0.00  0.00     0.099 A 
ATOM      6  N   UNN dAMED      -2.126   1.017   0.067  0.00  0.00    -0.242 NA
ATOM      7  C   UNN dAMED       0.839  -2.090  -0.152  0.00  0.00     0.031 C 
ENDROOT
BRANCH   2   8
ATOM      8  C   UNN dAMED       1.594   0.659   0.049  0.00  0.00     0.268 C 
ATOM      9  O   UNN dAMED       1.984   1.790   0.300  0.00  0.00    -0.271 OA
ATOM     10  N   UNN dAMED       2.552  -0.363  -0.207  0.00  0.00    -0.057 NA
ENDBRANCH   2   8
TORSDOF 1
