REMARK  3 active torsions:
REMARK  status: ('A' for Active; 'I' for Inactive)
REMARK    1  A    between atoms: C_2  and  C_4 
REMARK    2  A    between atoms: C_2  and  C_19 
REMARK    3  A    between atoms: C_12  and  C_18 
ROOT
ATOM      1  C   UNN dAMED       1.126   0.184   0.390  0.00  0.00     0.143 A 
ATOM      2  C   UNN dAMED       1.203  -0.755  -0.559  0.00  0.00     0.124 A 
ATOM      3  C   UNN dAMED       2.493  -1.006  -1.262  0.00  0.00     0.267 A 
ATOM      4  N   UNN dAMED       2.237   0.888   0.704  0.00  0.00    -0.268 N 
ATOM      5  O   UNN dAMED       2.585  -1.866  -2.134  0.00  0.00    -0.267 OA
ATOM      6  N   UNN dAMED       3.551  -0.197  -0.850  0.00  0.00    -0.274 N 
ATOM      7  C   UNN dAMED       3.486   0.790   0.147  0.00  0.00     0.331 A 
ATOM      8  O   UNN dAMED       4.446   1.484   0.477  0.00  0.00    -0.246 OA
ATOM      9  H   UNN dAMED       4.444  -0.334  -1.312  0.00  0.00     0.173 HD
ATOM     10  N   UNN dAMED      -0.105   0.439   1.058  0.00  0.00    -0.081 NA
ATOM     11  C   UNN dAMED       2.078   1.893   1.691  0.00  0.00     0.136 C 
ENDROOT
BRANCH   2  12
ATOM     12  C   UNN dAMED      -0.045  -1.465  -0.876  0.00  0.00     0.203 C 
ATOM     13  O   UNN dAMED      -0.165  -2.670  -0.703  0.00  0.00    -0.286 OA
BRANCH  12  14
ATOM     14  C   UNN dAMED      -1.076  -0.740  -1.690  0.00  0.00     0.042 C 
ATOM     15  C   UNN dAMED      -1.256   0.563  -1.485  0.00  0.00     0.003 C 
BRANCH  15  16
ATOM     16  C   UNN dAMED      -2.230   1.338  -2.320  0.00  0.00     0.000 A 
ATOM     17  C   UNN dAMED      -3.047   0.676  -3.233  0.00  0.00     0.000 A 
ATOM     18  C   UNN dAMED      -3.999   1.391  -3.954  0.00  0.00     0.000 A 
ATOM     19  C   UNN dAMED      -4.135   2.764  -3.758  0.00  0.00     0.000 A 
ATOM     20  C   UNN dAMED      -3.313   3.425  -2.848  0.00  0.00     0.000 A 
ATOM     21  C   UNN dAMED      -2.359   2.711  -2.128  0.00  0.00     0.000 A 
ENDBRANCH  15  16
ENDBRANCH  12  14
ENDBRANCH   2  12
TORSDOF 3
