REMARK  3 active torsions:
REMARK  status: ('A' for Active; 'I' for Inactive)
REMARK    1  A    between atoms: C_9  and  N_18 
REMARK    2  A    between atoms: C_10  and  O_19 
REMARK       I    between atoms: N_18  and  C_21 
REMARK    3  A    between atoms: C_21  and  C_23 
ROOT
ATOM      1  O   UNN dAMED      -2.159  -0.585   1.325  0.00  0.00    -0.280 OA
ATOM      2  O   UNN dAMED      -3.863  -1.854   0.130  0.00  0.00    -0.303 OA
ATOM      3  O   UNN dAMED      -0.788   0.806  -1.163  0.00  0.00    -0.283 OA
ATOM      4  O   UNN dAMED      -0.461  -2.778  -1.253  0.00  0.00    -0.284 OA
ATOM      5  C   UNN dAMED      -3.104  -1.624   1.296  0.00  0.00     0.199 C 
ATOM      6  C   UNN dAMED      -1.441  -2.182  -0.434  0.00  0.00     0.136 C 
ATOM      7  C   UNN dAMED      -1.159  -0.936   0.411  0.00  0.00     0.164 C 
ATOM      8  C   UNN dAMED      -0.343   0.197  -0.200  0.00  0.00     0.241 C 
ATOM      9  C   UNN dAMED       0.822  -0.771  -0.373  0.00  0.00     0.172 C 
ATOM     10  C   UNN dAMED       0.546  -2.275  -0.413  0.00  0.00     0.221 C 
ATOM     11  C   UNN dAMED      -3.062  -2.680   2.366  0.00  0.00     0.046 A 
ATOM     12  C   UNN dAMED      -3.800  -2.512   3.536  0.00  0.00     0.004 A 
ATOM     13  C   UNN dAMED      -3.669  -3.427   4.577  0.00  0.00     0.000 A 
ATOM     14  C   UNN dAMED      -2.798  -4.506   4.449  0.00  0.00     0.000 A 
ATOM     15  C   UNN dAMED      -2.064  -4.677   3.278  0.00  0.00     0.000 A 
ATOM     16  C   UNN dAMED      -2.195  -3.763   2.237  0.00  0.00     0.004 A 
ATOM     17  C   UNN dAMED      -2.889  -2.653  -0.491  0.00  0.00     0.204 C 
ENDROOT
BRANCH   9  18
ATOM     18  N   UNN dAMED       2.183  -0.280  -0.561  0.00  0.00    -0.201 NA
ATOM     19  C   UNN dAMED       2.496   0.460  -1.618  0.00  0.00     0.279 C 
ATOM     20  O   UNN dAMED       2.293   1.659  -1.771  0.00  0.00    -0.265 OA
BRANCH  19  21
ATOM     21  C   UNN dAMED       3.167  -0.278  -2.691  0.00  0.00     0.058 A 
ATOM     22  C   UNN dAMED       2.403  -0.921  -3.663  0.00  0.00     0.005 A 
ATOM     23  C   UNN dAMED       3.052  -1.598  -4.693  0.00  0.00     0.000 A 
ATOM     24  C   UNN dAMED       4.446  -1.615  -4.749  0.00  0.00     0.000 A 
ATOM     25  C   UNN dAMED       5.198  -0.955  -3.777  0.00  0.00     0.000 A 
ATOM     26  C   UNN dAMED       4.559  -0.278  -2.743  0.00  0.00     0.005 A 
ENDBRANCH  19  21
ENDBRANCH   9  18
BRANCH  10  27
ATOM     27  O   UNN dAMED       1.210  -3.160   0.543  0.00  0.00    -0.307 OA
ATOM     28  C   UNN dAMED       0.538  -2.287  -0.421  0.00  0.00     0.184 C 
ENDBRANCH  10  27
TORSDOF 3
