REMARK  3 active torsions:
REMARK  status: ('A' for Active; 'I' for Inactive)
REMARK    1  A    between atoms: N_1  and  S_10 
REMARK    2  A    between atoms: C_2  and  N_13 
REMARK    3  A    between atoms: S_10  and  N_13 
ROOT
ATOM      1  N   UNN dAMED      -0.178   1.131   0.285  0.00  0.00    -0.129 NA
ENDROOT
BRANCH   1   2
ATOM      2  C   UNN dAMED       1.005   0.488   0.239  0.00  0.00     0.175 A 
ATOM      3  C   UNN dAMED       1.123  -0.874  -0.032  0.00  0.00     0.040 A 
ATOM      4  C   UNN dAMED       2.390  -1.433  -0.150  0.00  0.00     0.005 A 
ATOM      5  C   UNN dAMED       3.515  -0.633  -0.020  0.00  0.00     0.021 A 
ATOM      6  C   UNN dAMED       3.314   0.710   0.242  0.00  0.00     0.101 A 
ATOM      7  N   UNN dAMED       2.096   1.285   0.376  0.00  0.00    -0.225 NA
ENDBRANCH   1   2
BRANCH   1   8
ATOM      8  S   UNN dAMED      -1.271   0.752   1.380  0.00  0.00     0.327 S 
ATOM      9  O   UNN dAMED      -1.900  -0.557   1.214  0.00  0.00    -0.186 OA
ATOM     10  O   UNN dAMED      -2.195   1.836   1.702  0.00  0.00    -0.186 OA
BRANCH   8  11
ATOM     11  N   UNN dAMED      -0.313   0.585   2.824  0.00  0.00    -0.159 NA
ATOM     12  C   UNN dAMED       0.681  -0.592   2.932  0.00  0.00     0.108 C 
ATOM     13  C   UNN dAMED       0.681  -0.592   2.932  0.00  0.00     0.108 C 
ENDBRANCH   8  11
ENDBRANCH   1   8
TORSDOF 3
