REMARK  1 active torsions:
REMARK  status: ('A' for Active; 'I' for Inactive)
REMARK    1  A    between atoms: C_18  and  N_19 
ROOT
ATOM      1 BR   UNN dAMED      -7.159   1.939   0.072  0.00  0.00    -0.049 Br
ATOM      2  C   UNN dAMED      -5.501   1.045   0.026  0.00  0.00     0.035 A 
ATOM      3  C   UNN dAMED      -5.471  -0.342  -0.069  0.00  0.00     0.007 A 
ATOM      4  C   UNN dAMED      -4.322   1.780   0.087  0.00  0.00     0.007 A 
ATOM      5  C   UNN dAMED      -4.244  -1.001  -0.102  0.00  0.00     0.003 A 
ATOM      6  C   UNN dAMED      -3.096   1.116   0.052  0.00  0.00     0.003 A 
ATOM      7  C   UNN dAMED      -3.051  -0.277  -0.041  0.00  0.00     0.024 A 
ATOM      8  C   UNN dAMED      -1.785  -0.962  -0.088  0.00  0.00     0.121 A 
ATOM      9  C   UNN dAMED      -0.977  -1.466  -1.082  0.00  0.00     0.126 A 
ATOM     10  O   UNN dAMED      -1.181  -1.216   1.110  0.00  0.00    -0.288 OA
ATOM     11  C   UNN dAMED      -0.023  -1.871   0.773  0.00  0.00     0.182 A 
ATOM     12  N   UNN dAMED       0.141  -2.043  -0.525  0.00  0.00    -0.218 NA
ATOM     13  C   UNN dAMED       0.833  -2.271   1.878  0.00  0.00     0.041 A 
ATOM     14  C   UNN dAMED       0.440  -2.045   3.202  0.00  0.00     0.005 A 
ATOM     15  C   UNN dAMED       2.064  -2.890   1.632  0.00  0.00     0.005 A 
ATOM     16  C   UNN dAMED       1.250  -2.432   4.266  0.00  0.00     0.024 A 
ATOM     17  C   UNN dAMED       2.895  -3.271   2.687  0.00  0.00     0.024 A 
ATOM     18  C   UNN dAMED       2.472  -3.037   3.993  0.00  0.00     0.127 A 
ENDROOT
BRANCH  18  19
ATOM     19  N   UNN dAMED       3.318  -3.432   5.101  0.00  0.00    -0.114 N 
ATOM     20  O   UNN dAMED       3.151  -2.852   6.182  0.00  0.00    -0.532 OA
ATOM     21  O   UNN dAMED       4.149  -4.328   4.896  0.00  0.00    -0.532 OA
ENDBRANCH  18  19
TORSDOF 1
