REMARK  2 active torsions:
REMARK  status: ('A' for Active; 'I' for Inactive)
REMARK    1  A    between atoms: C_9  and  N_15 
REMARK       I    between atoms: C_12  and  N_14 
REMARK    2  A    between atoms: N_14  and  N_15 
ROOT
ATOM      1  C   UNN dAMED      -3.910  -0.336   0.052  0.00  0.00     0.000 A 
ATOM      2  C   UNN dAMED      -4.068   1.183  -0.097  0.00  0.00     0.000 A 
ATOM      3  C   UNN dAMED      -2.466  -0.670  -0.305  0.00  0.00     0.000 A 
ATOM      4  C   UNN dAMED      -1.488  -1.159   0.769  0.00  0.00     0.002 C 
ATOM      5  C   UNN dAMED      -0.177  -1.518   0.079  0.00  0.00     0.026 C 
ATOM      6  C   UNN dAMED      -1.045   0.115   1.424  0.00  0.00     0.002 C 
ATOM      7  C   UNN dAMED      -2.931   1.730  -0.541  0.00  0.00     0.000 A 
ATOM      8  C   UNN dAMED      -1.845   0.658  -0.729  0.00  0.00     0.002 A 
ATOM      9  C   UNN dAMED       0.505  -0.227  -0.453  0.00  0.00     0.125 C 
ATOM     10  C   UNN dAMED      -0.570   0.726   0.121  0.00  0.00     0.024 C 
ENDROOT
BRANCH   9  11
ATOM     11  N   UNN dAMED       1.770   0.001  -0.352  0.00  0.00    -0.173 NA
BRANCH  11  12
ATOM     12  N   UNN dAMED       2.462  -1.142  -0.384  0.00  0.00    -0.098 NA
ATOM     13  C   UNN dAMED       3.666  -0.892  -0.890  0.00  0.00     0.372 C 
ATOM     14  N   UNN dAMED       3.771   0.226  -1.769  0.00  0.00    -0.037 NA
ATOM     15  O   UNN dAMED       4.680  -1.557  -0.712  0.00  0.00    -0.247 OA
ENDBRANCH  11  12
ENDBRANCH   9  11
TORSDOF 2
