REMARK  4 active torsions:
REMARK  status: ('A' for Active; 'I' for Inactive)
REMARK    1  A    between atoms: C_5  and  C_8 
REMARK    2  A    between atoms: C_8  and  C_10 
REMARK    3  A    between atoms: C_10  and  O_11 
REMARK    4  A    between atoms: O_11  and  C_17 
ROOT
ATOM      1  N   UNN dAMED      -3.362   1.130   0.379  0.00  0.00    -0.153 NA
ATOM      2  C   UNN dAMED      -2.286  -0.924   0.037  0.00  0.00     0.153 C 
ATOM      3  C   UNN dAMED      -2.101   1.289   0.116  0.00  0.00     0.191 C 
ATOM      4  N   UNN dAMED      -1.394   0.174  -0.178  0.00  0.00    -0.293 N 
ATOM      5  C   UNN dAMED      -0.037   0.310  -0.197  0.00  0.00     0.095 C 
ATOM      6  S   UNN dAMED      -1.079   2.688   0.191  0.00  0.00    -0.047 SA
ATOM      7  C   UNN dAMED       0.347   1.581  -0.025  0.00  0.00     0.057 C 
ATOM      8  N   UNN dAMED      -3.597  -0.236   0.258  0.00  0.00    -0.080 NA
ATOM      9  C   UNN dAMED      -2.374  -1.775  -1.226  0.00  0.00     0.043 C 
ATOM     10  C   UNN dAMED      -1.898  -1.647   1.326  0.00  0.00     0.043 C 
ENDROOT
BRANCH   5  11
ATOM     11  C   UNN dAMED       0.849  -0.858  -0.235  0.00  0.00     0.190 C 
ATOM     12  N   UNN dAMED       1.157  -1.415  -1.366  0.00  0.00    -0.089 NA
ATOM     13  O   UNN dAMED       1.959  -2.524  -1.303  0.00  0.00    -0.060 OA
BRANCH  11  14
ATOM     14  C   UNN dAMED       1.317  -1.336   1.118  0.00  0.00     0.317 C 
ATOM     15  O   UNN dAMED       2.487  -1.373   1.440  0.00  0.00    -0.257 OA
BRANCH  14  16
ATOM     16  O   UNN dAMED       0.252  -1.641   1.874  0.00  0.00    -0.297 OA
BRANCH  16  17
ATOM     17  C   UNN dAMED      -0.786  -0.849   1.369  0.00  0.00     0.152 C 
ATOM     18  C   UNN dAMED      -0.775   0.670   1.580  0.00  0.00     0.035 C 
ENDBRANCH  16  17
ENDBRANCH  14  16
ENDBRANCH  11  14
ENDBRANCH   5  11
TORSDOF 4
