REMARK  0 active torsions:
REMARK  status: ('A' for Active; 'I' for Inactive)
ROOT
ATOM      1  O   UNN dAMED      16.681   2.182   2.178  0.00  0.00    -0.349 OA
ATOM      2  O   UNN dAMED       5.487  -0.246   2.335  0.00  0.00    -0.349 OA
ATOM      3  C   UNN dAMED       5.302   1.097   2.654  0.00  0.00     0.147 A 
ATOM      4  C   UNN dAMED       5.948   0.626   1.348  0.00  0.00     0.165 A 
ATOM      5  C   UNN dAMED       7.427   0.817   1.137  0.00  0.00     0.007 A 
ATOM      6  C   UNN dAMED       8.259  -0.282   0.948  0.00  0.00    -0.002 A 
ATOM      7  C   UNN dAMED       9.641  -0.107   0.901  0.00  0.00    -0.000 A 
ATOM      8  C   UNN dAMED       7.979   2.089   1.247  0.00  0.00    -0.002 A 
ATOM      9  C   UNN dAMED      10.224   1.161   1.025  0.00  0.00    -0.000 A 
ATOM     10  C   UNN dAMED       9.363   2.254   1.185  0.00  0.00    -0.000 A 
ATOM     11  C   UNN dAMED      11.683   1.331   1.019  0.00  0.00    -0.000 A 
ATOM     12  C   UNN dAMED      12.535   0.282   0.651  0.00  0.00    -0.000 A 
ATOM     13  C   UNN dAMED      13.922   0.425   0.675  0.00  0.00    -0.002 A 
ATOM     14  C   UNN dAMED      12.278   2.539   1.405  0.00  0.00    -0.000 A 
ATOM     15  C   UNN dAMED      14.487   1.635   1.066  0.00  0.00     0.007 A 
ATOM     16  C   UNN dAMED      13.663   2.698   1.422  0.00  0.00    -0.002 A 
ATOM     17  C   UNN dAMED      15.983   1.801   1.032  0.00  0.00     0.165 A 
ATOM     18  C   UNN dAMED      16.611   3.184   1.211  0.00  0.00     0.147 A 
ATOM     19  C   UNN dAMED      15.717   4.407   1.438  0.00  0.00     0.035 C 
ATOM     20  C   UNN dAMED       3.887   1.682   2.653  0.00  0.00     0.035 C 
ENDROOT
TORSDOF 0
