REMARK  3 active torsions:
REMARK  status: ('A' for Active; 'I' for Inactive)
REMARK    1  A    between atoms: C_2  and  C_6 
REMARK    2  A    between atoms: O_4  and  C_6 
REMARK    3  A    between atoms: O_4  and  C_10 
ROOT
ATOM      1  C   UNN dAMED       1.763   1.114  -0.141  0.00  0.00     0.097 A 
ATOM      2  C   UNN dAMED       0.557   0.249  -0.140  0.00  0.00     0.099 A 
ATOM      3  C   UNN dAMED       0.771  -1.068  -0.237  0.00  0.00     0.112 A 
ATOM      4  S   UNN dAMED       1.806   2.784  -0.024  0.00  0.00    -0.070 SA
ATOM      5  S   UNN dAMED       3.245   0.169  -0.293  0.00  0.00    -0.038 SA
ATOM      6  S   UNN dAMED       2.375  -1.675  -0.362  0.00  0.00    -0.035 SA
ATOM      7  N   UNN dAMED      -0.323  -1.978  -0.221  0.00  0.00    -0.093 NA
ENDROOT
BRANCH   2   8
ATOM      8  C   UNN dAMED      -0.844   0.673  -0.010  0.00  0.00     0.299 C 
ATOM      9  O   UNN dAMED      -1.598   0.324   0.883  0.00  0.00    -0.259 OA
BRANCH   8  10
ATOM     10  O   UNN dAMED      -1.178   1.488  -1.037  0.00  0.00    -0.298 OA
BRANCH  10  11
ATOM     11  C   UNN dAMED       0.021   1.707  -1.717  0.00  0.00     0.152 C 
ATOM     12  C   UNN dAMED       1.079   0.601  -1.748  0.00  0.00     0.035 C 
ENDBRANCH  10  11
ENDBRANCH   8  10
ENDBRANCH   2   8
TORSDOF 3
