REMARK  1 active torsions:
REMARK  status: ('A' for Active; 'I' for Inactive)
REMARK    1  A    between atoms: C_2  and  S_11 
ROOT
ATOM      1  C   UNN dAMED      -0.927  -1.609  -0.001  0.00  0.00     0.021 A 
ATOM      2  C   UNN dAMED       2.024   0.395   0.001  0.00  0.00     0.133 A 
ATOM      3  C   UNN dAMED       0.048  -0.590  -0.001  0.00  0.00     0.089 A 
ATOM      4  C   UNN dAMED      -2.280  -1.269   0.000  0.00  0.00     0.013 A 
ATOM      5  C   UNN dAMED      -0.373   0.742  -0.001  0.00  0.00     0.050 A 
ATOM      6  C   UNN dAMED      -2.665   0.064   0.000  0.00  0.00     0.058 A 
ATOM      7  C   UNN dAMED      -1.729   1.098  -0.001  0.00  0.00     0.019 A 
ATOM      8 CL   UNN dAMED      -4.338   0.453   0.000  0.00  0.00    -0.082 Cl
ATOM      9  S   UNN dAMED       1.007   1.770  -0.001  0.00  0.00    -0.060 SA
ATOM     10  N   UNN dAMED       1.422  -0.772   0.001  0.00  0.00    -0.233 NA
ENDROOT
BRANCH   2  11
ATOM     11  S   UNN dAMED       3.770   0.517   0.007  0.00  0.00    -0.116 SA
ATOM     12  H   UNN dAMED       4.037  -0.761   0.316  0.00  0.00     0.109 HD
ENDBRANCH   2  11
TORSDOF 1
