REMARK  5 active torsions:
REMARK  status: ('A' for Active; 'I' for Inactive)
REMARK    1  A    between atoms: C_3  and  O_14 
REMARK    2  A    between atoms: C_5  and  N_11 
REMARK    3  A    between atoms: C_6  and  AS_8 
REMARK    4  A    between atoms: O_14  and  C_15 
REMARK    5  A    between atoms: C_15  and  C_16 
ROOT
ATOM      1  C   UNN dAMED       0.247   1.628   0.978  0.00  0.00     0.026 A 
ATOM      2  C   UNN dAMED       0.797   0.436   0.522  0.00  0.00     0.117 A 
ATOM      3  C   UNN dAMED      -1.121   1.862   0.828  0.00  0.00     0.002 A 
ATOM      4  C   UNN dAMED      -0.034  -0.508  -0.072  0.00  0.00     0.149 A 
ATOM      5  C   UNN dAMED      -1.945   0.904   0.230  0.00  0.00     0.002 A 
ATOM      6  C   UNN dAMED      -1.402  -0.294  -0.222  0.00  0.00     0.026 A 
ENDROOT
BRANCH   2   7
ATOM      7  O   UNN dAMED       2.133   0.232   0.698  0.00  0.00    -0.318 OA
BRANCH   7   8
ATOM      8  C   UNN dAMED       2.511   1.148   1.690  0.00  0.00     0.246 C 
BRANCH   8   9
ATOM      9  C   UNN dAMED       3.959   1.391   2.057  0.00  0.00     0.217 C 
ATOM     10  O   UNN dAMED       4.803   0.507   1.716  0.00  0.00    -0.645 OA
ATOM     11  O   UNN dAMED       4.191   2.434   2.740  0.00  0.00    -0.645 OA
ENDBRANCH   8   9
ENDBRANCH   7   8
ENDBRANCH   2   7
BRANCH   4  12
ATOM     12  N   UNN dAMED       0.487  -1.759  -0.552  0.00  0.00    -0.112 N 
ATOM     13  O   UNN dAMED       0.930  -2.547   0.293  0.00  0.00    -0.532 OA
ATOM     14  O   UNN dAMED       0.426  -1.960  -1.772  0.00  0.00    -0.532 OA
ENDBRANCH   4  12
BRANCH   5  15
ATOM     15 AS   UNN dAMED      -3.836   1.210   0.119  0.00  0.00     0.000 As
ATOM     16  O   UNN dAMED      -4.181   1.872  -1.284  0.00  0.00     0.000 OA
ATOM     17  O   UNN dAMED      -4.335   2.292   1.414  0.00  0.00     0.000 OA
ATOM     18  O   UNN dAMED      -4.707  -0.311   0.274  0.00  0.00     0.000 OA
ENDBRANCH   5  15
TORSDOF 5
