REMARK  2 active torsions:
REMARK  status: ('A' for Active; 'I' for Inactive)
REMARK    1  A    between atoms: C_7  and  C_12 
REMARK    2  A    between atoms: C_9  and  N_11 
REMARK       I    between atoms: N_11  and  C_12 
ROOT
ATOM      1  N   UNN dAMED      -0.385  -0.488   0.052  0.00  0.00    -0.186 NA
ATOM      2  C   UNN dAMED       0.267  -0.935  -1.027  0.00  0.00     0.300 C 
ATOM      3  O   UNN dAMED      -0.163  -1.133  -2.160  0.00  0.00    -0.263 OA
ENDROOT
BRANCH   2   4
ATOM      4  C   UNN dAMED       1.677  -1.145  -0.710  0.00  0.00     0.163 A 
ATOM      5  N   UNN dAMED       2.094  -1.602   0.542  0.00  0.00    -0.163 NA
ATOM      6  N   UNN dAMED       3.412  -1.710   0.618  0.00  0.00    -0.036 NA
ATOM      7  S   UNN dAMED       4.177  -1.309  -0.815  0.00  0.00     0.006 SA
ATOM      8  C   UNN dAMED       2.711  -0.939  -1.604  0.00  0.00     0.075 A 
ENDBRANCH   2   4
BRANCH   1   9
ATOM      9  C   UNN dAMED      -1.753  -0.495  -0.049  0.00  0.00     0.189 A 
ATOM     10  N   UNN dAMED      -2.470   0.690  -0.106  0.00  0.00    -0.148 NA
ATOM     11  N   UNN dAMED      -3.777   0.470  -0.096  0.00  0.00    -0.035 NA
ATOM     12  S   UNN dAMED      -4.159  -1.159   0.014  0.00  0.00     0.007 SA
ATOM     13  C   UNN dAMED      -2.519  -1.636   0.073  0.00  0.00     0.090 A 
ENDBRANCH   1   9
TORSDOF 2
