REMARK  2 active torsions:
REMARK  status: ('A' for Active; 'I' for Inactive)
REMARK    1  A    between atoms: C_4  and  C_7 
REMARK    2  A    between atoms: C_7  and  C_8 
ROOT
ATOM      1  N   UNN dAMED      -2.267   0.740  -0.653  0.00  0.00    -0.127 NA
ATOM      2  N   UNN dAMED      -1.000   1.308  -0.629  0.00  0.00    -0.144 NA
ATOM      3  S   UNN dAMED      -0.814  -0.861   0.735  0.00  0.00    -0.036 SA
ATOM      4  C   UNN dAMED      -0.168   0.559   0.055  0.00  0.00     0.112 A 
ATOM      5  C   UNN dAMED      -2.282  -0.386   0.019  0.00  0.00     0.203 A 
ATOM      6  N   UNN dAMED      -3.477  -1.142   0.179  0.00  0.00    -0.070 NA
ENDROOT
BRANCH   4   7
ATOM      7  C   UNN dAMED       1.241   0.997   0.329  0.00  0.00     0.054 C 
BRANCH   7   8
ATOM      8  C   UNN dAMED       1.676   1.302   1.765  0.00  0.00     0.006 C 
ATOM      9  C   UNN dAMED       1.579   0.208   2.834  0.00  0.00     0.000 C 
ATOM     10  C   UNN dAMED       1.933   2.752   2.188  0.00  0.00     0.000 C 
ENDBRANCH   7   8
ENDBRANCH   4   7
TORSDOF 2
