REMARK  4 active torsions:
REMARK  status: ('A' for Active; 'I' for Inactive)
REMARK    1  A    between atoms: C_3  and  O_19 
REMARK    2  A    between atoms: C_16  and  C_18 
REMARK    3  A    between atoms: C_18  and  O_21 
REMARK    4  A    between atoms: O_21  and  C_22 
ROOT
ATOM      1  C   UNN dAMED      -4.314   1.730  -0.590  0.00  0.00     0.002 A 
ATOM      2  C   UNN dAMED      -4.405   0.363  -0.850  0.00  0.00     0.026 A 
ATOM      3  C   UNN dAMED      -3.440  -0.498  -0.340  0.00  0.00     0.117 A 
ATOM      4  C   UNN dAMED      -3.260   2.235   0.171  0.00  0.00    -0.000 A 
ATOM      5  C   UNN dAMED      -2.381  -0.002   0.408  0.00  0.00     0.120 A 
ATOM      6  C   UNN dAMED      -2.301   1.362   0.674  0.00  0.00     0.025 A 
ATOM      7  C   UNN dAMED      -1.128   1.850   1.469  0.00  0.00     0.127 C 
ATOM      8  O   UNN dAMED      -1.486  -0.854   1.004  0.00  0.00    -0.304 OA
ATOM      9  C   UNN dAMED      -0.199  -0.816   0.514  0.00  0.00     0.115 A 
ATOM     10  N   UNN dAMED       0.221   1.573   1.004  0.00  0.00    -0.368 N 
ATOM     11  H   UNN dAMED       0.864   2.321   0.757  0.00  0.00     0.161 HD
ATOM     12  C   UNN dAMED       0.301  -2.058   0.105  0.00  0.00     0.026 A 
ATOM     13  C   UNN dAMED       0.624   0.320   0.500  0.00  0.00     0.076 A 
ATOM     14  C   UNN dAMED       1.611  -2.179  -0.347  0.00  0.00     0.007 A 
ATOM     15  C   UNN dAMED       1.944   0.176   0.060  0.00  0.00     0.024 A 
ATOM     16  C   UNN dAMED       2.433  -1.058  -0.371  0.00  0.00     0.065 A 
ENDROOT
BRANCH  16  17
ATOM     17  C   UNN dAMED       3.819  -1.213  -0.841  0.00  0.00     0.296 C 
ATOM     18  O   UNN dAMED       4.298  -2.255  -1.254  0.00  0.00    -0.259 OA
BRANCH  17  19
ATOM     19  O   UNN dAMED       4.480  -0.039  -0.745  0.00  0.00    -0.298 OA
BRANCH  19  20
ATOM     20  C   UNN dAMED       3.499   0.893  -0.399  0.00  0.00     0.152 C 
ATOM     21  C   UNN dAMED       2.150   0.885  -1.124  0.00  0.00     0.035 C 
ENDBRANCH  19  20
ENDBRANCH  17  19
ENDBRANCH  16  17
BRANCH   3  22
ATOM     22  O   UNN dAMED      -3.552  -1.833  -0.585  0.00  0.00    -0.326 OA
ATOM     23  C   UNN dAMED      -2.242  -2.320  -0.570  0.00  0.00     0.181 C 
ENDBRANCH   3  22
TORSDOF 4
