REMARK  2 active torsions:
REMARK  status: ('A' for Active; 'I' for Inactive)
REMARK    1  A    between atoms: C_3  and  AS_4 
REMARK    2  A    between atoms: C_7  and  N_9 
REMARK       I    between atoms: N_9  and  C_10 
ROOT
ATOM      1  C   UNN dAMED       1.564  -1.587   0.122  0.00  0.00     0.003 A 
ATOM      2  C   UNN dAMED       0.437  -2.406   0.200  0.00  0.00     0.044 A 
ATOM      3  C   UNN dAMED       1.404  -0.211   0.005  0.00  0.00     0.002 A 
ATOM      4  C   UNN dAMED      -0.888  -1.931   0.164  0.00  0.00     0.211 A 
ATOM      5  C   UNN dAMED      -1.000  -0.520   0.037  0.00  0.00     0.098 A 
ATOM      6  C   UNN dAMED       0.127   0.315  -0.041  0.00  0.00     0.020 A 
ATOM      7  O   UNN dAMED      -1.876  -2.736   0.241  0.00  0.00    -0.285 OA
ENDROOT
BRANCH   5   8
ATOM      8  N   UNN dAMED      -2.284   0.069  -0.019  0.00  0.00    -0.322 N 
ATOM      9  H   UNN dAMED      -3.093  -0.545   0.016  0.00  0.00     0.169 HD
ATOM     10  C   UNN dAMED      -2.477   1.431  -0.103  0.00  0.00     0.235 C 
ATOM     11  O   UNN dAMED      -3.570   1.966  -0.253  0.00  0.00    -0.272 OA
ATOM     12  C   UNN dAMED      -1.274   2.318   0.068  0.00  0.00     0.098 C 
ENDBRANCH   5   8
BRANCH   3  13
ATOM     13 AS   UNN dAMED       3.034   0.798  -0.027  0.00  0.00     0.000 As
ATOM     14  O   UNN dAMED       3.642   0.770  -1.495  0.00  0.00     0.000 OA
ATOM     15  O   UNN dAMED       2.702   2.462   0.438  0.00  0.00     0.000 OA
ATOM     16  O   UNN dAMED       4.190   0.100   1.100  0.00  0.00     0.000 OA
ENDBRANCH   3  13
TORSDOF 2
