REMARK  0 active torsions:
REMARK  status: ('A' for Active; 'I' for Inactive)
ROOT
ATOM      1  H   UNN dAMED       3.606  -1.899  -0.225  0.00  0.00     0.161 HD
ATOM      2  N   UNN dAMED       3.347  -0.933  -0.038  0.00  0.00    -0.371 N 
ATOM      3  N   UNN dAMED       2.233   1.709  -0.238  0.00  0.00    -0.371 N 
ATOM      4  H   UNN dAMED       1.754   2.582  -0.034  0.00  0.00     0.161 HD
ATOM      5  C   UNN dAMED       1.090  -1.820   0.099  0.00  0.00     0.018 A 
ATOM      6  C   UNN dAMED       1.948  -0.726  -0.044  0.00  0.00     0.068 A 
ATOM      7  C   UNN dAMED      -0.292  -1.640   0.141  0.00  0.00     0.002 A 
ATOM      8  C   UNN dAMED       1.405   0.575  -0.068  0.00  0.00     0.068 A 
ATOM      9  C   UNN dAMED      -0.848  -0.361   0.063  0.00  0.00     0.002 A 
ATOM     10  C   UNN dAMED       0.014   0.736  -0.045  0.00  0.00     0.018 A 
ATOM     11  C   UNN dAMED      -2.292  -0.174   0.098  0.00  0.00     0.000 A 
ATOM     12  C   UNN dAMED      -3.003   0.133  -1.068  0.00  0.00     0.000 A 
ATOM     13  C   UNN dAMED      -4.384   0.311  -1.035  0.00  0.00     0.000 A 
ATOM     14  C   UNN dAMED      -2.999  -0.304   1.298  0.00  0.00     0.000 A 
ATOM     15  C   UNN dAMED      -5.074   0.176   0.167  0.00  0.00     0.000 A 
ATOM     16  C   UNN dAMED      -4.382  -0.134   1.334  0.00  0.00     0.000 A 
ATOM     17  C   UNN dAMED       4.212   0.176  -0.383  0.00  0.00     0.122 C 
ATOM     18  C   UNN dAMED       3.661   1.556  -0.053  0.00  0.00     0.122 C 
ENDROOT
TORSDOF 0
