REMARK  2 active torsions:
REMARK  status: ('A' for Active; 'I' for Inactive)
REMARK    1  A    between atoms: N_1  and  C_8 
REMARK    2  A    between atoms: N_2  and  N_3 
ROOT
ATOM      1  N   UNN dAMED       0.241  -1.047  -0.111  0.00  0.00    -0.136 NA
ATOM      2  N   UNN dAMED       1.196  -1.280  -0.879  0.00  0.00    -0.092 NA
ENDROOT
BRANCH   1   3
ATOM      3  C   UNN dAMED      -0.970  -1.201  -0.801  0.00  0.00     0.104 A 
ATOM      4  C   UNN dAMED      -1.626  -2.435  -0.810  0.00  0.00     0.021 A 
ATOM      5  C   UNN dAMED      -2.852  -2.578  -1.456  0.00  0.00     0.002 A 
ATOM      6  C   UNN dAMED      -3.438  -1.483  -2.084  0.00  0.00     0.000 A 
ATOM      7  C   UNN dAMED      -2.802  -0.244  -2.063  0.00  0.00     0.002 A 
ATOM      8  C   UNN dAMED      -1.576  -0.103  -1.417  0.00  0.00     0.021 A 
ENDBRANCH   1   3
BRANCH   2   9
ATOM      9  N   UNN dAMED       2.354  -1.128  -0.206  0.00  0.00    -0.155 NA
ATOM     10  C   UNN dAMED       2.925   0.122  -0.630  0.00  0.00     0.130 C 
ATOM     11  C   UNN dAMED       2.128   1.422  -0.480  0.00  0.00     0.162 C 
ATOM     12  O   UNN dAMED       1.802   1.907   0.798  0.00  0.00    -0.351 OA
ATOM     13  C   UNN dAMED       1.234   0.695   1.227  0.00  0.00     0.162 C 
ATOM     14  C   UNN dAMED       2.021  -0.613   1.095  0.00  0.00     0.130 C 
ENDBRANCH   2   9
TORSDOF 2
