REMARK  4 active torsions:
REMARK  status: ('A' for Active; 'I' for Inactive)
REMARK    1  A    between atoms: C_1  and  C_17 
REMARK    2  A    between atoms: C_11  and  C_15 
REMARK    3  A    between atoms: C_15  and  O_16 
REMARK    4  A    between atoms: O_16  and  C_18 
ROOT
ATOM      1  C   UNN dAMED       0.923  -1.364  -1.558  0.00  0.00     0.131 C 
ATOM      2  C   UNN dAMED       2.110  -1.233  -2.328  0.00  0.00     0.106 C 
ATOM      3  N   UNN dAMED       3.080  -1.124  -2.955  0.00  0.00    -0.191 NA
ATOM      4  C   UNN dAMED       0.614  -0.383  -0.699  0.00  0.00     0.017 C 
ENDROOT
BRANCH   1   5
ATOM      5  C   UNN dAMED       0.212  -2.652  -1.567  0.00  0.00     0.305 C 
ATOM      6  O   UNN dAMED       0.579  -3.648  -0.967  0.00  0.00    -0.258 OA
BRANCH   5   7
ATOM      7  O   UNN dAMED      -0.895  -2.554  -2.334  0.00  0.00    -0.298 OA
BRANCH   7   8
ATOM      8  C   UNN dAMED      -1.084  -1.184  -2.528  0.00  0.00     0.152 C 
ATOM      9  C   UNN dAMED      -2.030  -0.689  -3.627  0.00  0.00     0.035 C 
ENDBRANCH   7   8
ENDBRANCH   5   7
ENDBRANCH   1   5
BRANCH   4  10
ATOM     10  C   UNN dAMED      -0.725  -0.225  -0.022  0.00  0.00     0.019 A 
ATOM     11  C   UNN dAMED      -1.019  -0.558   1.274  0.00  0.00     0.072 A 
ATOM     12  N   UNN dAMED      -2.368  -0.362   1.431  0.00  0.00    -0.352 N 
ATOM     13  C   UNN dAMED      -2.930   0.072   0.248  0.00  0.00     0.057 A 
ATOM     14  H   UNN dAMED      -2.881  -0.527   2.286  0.00  0.00     0.166 HD
ATOM     15  C   UNN dAMED      -1.898   0.192  -0.682  0.00  0.00     0.017 A 
ATOM     16  C   UNN dAMED      -4.262   0.361  -0.065  0.00  0.00     0.017 A 
ATOM     17  C   UNN dAMED      -2.190   0.624  -1.986  0.00  0.00     0.002 A 
ATOM     18  C   UNN dAMED      -3.514   0.917  -2.315  0.00  0.00     0.000 A 
ATOM     19  C   UNN dAMED      -4.528   0.783  -1.371  0.00  0.00     0.002 A 
ENDBRANCH   4  10
TORSDOF 4
