REMARK  3 active torsions:
REMARK  status: ('A' for Active; 'I' for Inactive)
REMARK    1  A    between atoms: N_1  and  S_2 
REMARK    2  A    between atoms: S_2  and  N_14 
REMARK    3  A    between atoms: C_5  and  N_14 
ROOT
ATOM      1  C   UNN dAMED      -0.751   0.465   0.151  0.00  0.00     0.095 A 
ATOM      2  C   UNN dAMED      -1.966   1.108  -0.113  0.00  0.00     0.027 A 
ATOM      3  C   UNN dAMED      -0.797  -0.931   0.282  0.00  0.00     0.020 A 
ATOM      4  C   UNN dAMED      -1.988  -1.651   0.163  0.00  0.00     0.002 A 
ATOM      5  C   UNN dAMED      -3.159   0.398  -0.233  0.00  0.00     0.036 A 
ATOM      6  C   UNN dAMED      -3.179  -0.982  -0.092  0.00  0.00     0.007 A 
ATOM      7 BR   UNN dAMED      -4.758   1.326  -0.584  0.00  0.00    -0.049 Br
ENDROOT
BRANCH   1   8
ATOM      8  N   UNN dAMED       0.358   1.224   0.295  0.00  0.00    -0.149 NA
BRANCH   8   9
ATOM      9  S   UNN dAMED       1.793   0.573   0.513  0.00  0.00     0.326 S 
ATOM     10  O   UNN dAMED       2.417   0.022  -0.687  0.00  0.00    -0.186 OA
ATOM     11  O   UNN dAMED       1.947  -0.230   1.723  0.00  0.00    -0.186 OA
BRANCH   9  12
ATOM     12  N   UNN dAMED       2.717   2.006   0.847  0.00  0.00    -0.159 NA
ATOM     13  C   UNN dAMED       4.007   1.893   1.689  0.00  0.00     0.108 C 
ATOM     14  C   UNN dAMED       4.007   1.893   1.689  0.00  0.00     0.108 C 
ENDBRANCH   9  12
ENDBRANCH   8   9
ENDBRANCH   1   8
TORSDOF 3
