REMARK  2 active torsions:
REMARK  status: ('A' for Active; 'I' for Inactive)
REMARK    1  A    between atoms: N_3  and  C_6 
REMARK    2  A    between atoms: C_10  and  N_11 
ROOT
ATOM      1 CL   UNN dAMED      -3.045   2.273   0.322  0.00  0.00    -0.081 Cl
ATOM      2 CL   UNN dAMED      -4.203  -0.761   0.035  0.00  0.00    -0.082 Cl
ATOM      3  C   UNN dAMED      -0.654   1.131   0.065  0.00  0.00     0.031 A 
ATOM      4  C   UNN dAMED      -2.027   0.900   0.123  0.00  0.00     0.070 A 
ATOM      5  C   UNN dAMED       0.241   0.080  -0.104  0.00  0.00     0.084 A 
ATOM      6  C   UNN dAMED      -2.520  -0.400   0.008  0.00  0.00     0.068 A 
ATOM      7  C   UNN dAMED      -0.256  -1.220  -0.210  0.00  0.00     0.020 A 
ATOM      8  C   UNN dAMED      -1.630  -1.458  -0.153  0.00  0.00     0.014 A 
ENDROOT
BRANCH   5   9
ATOM      9  N   UNN dAMED       1.610   0.315  -0.177  0.00  0.00    -0.232 NA
ATOM     10  C   UNN dAMED       2.129   1.387   0.229  0.00  0.00     0.148 C 
BRANCH  10  11
ATOM     11  N   UNN dAMED       3.760   1.488   0.279  0.00  0.00    -0.233 NA
ATOM     12  C   UNN dAMED       2.144   1.381   0.238  0.00  0.00     0.096 C 
ATOM     13  C   UNN dAMED       2.883   2.710  -0.001  0.00  0.00     0.096 C 
ENDBRANCH  10  11
ENDBRANCH   5   9
TORSDOF 2
