REMARK  2 active torsions:
REMARK  status: ('A' for Active; 'I' for Inactive)
REMARK    1  A    between atoms: N_8  and  C_20 
REMARK    2  A    between atoms: C_19  and  C_20 
ROOT
ATOM      1  O   UNN dAMED      -2.595   0.793  -3.121  0.00  0.00    -0.349 OA
ATOM      2  C   UNN dAMED      -2.335  -0.142  -4.082  0.00  0.00     0.174 C 
ATOM      3  C   UNN dAMED      -2.851   1.727  -2.157  0.00  0.00     0.167 C 
ENDROOT
BRANCH   3   4
ATOM      4  C   UNN dAMED      -2.776   1.353  -0.667  0.00  0.00     0.140 C 
BRANCH   4   5
ATOM      5  N   UNN dAMED      -1.990   0.205  -0.249  0.00  0.00    -0.308 N 
ATOM      6  C   UNN dAMED      -2.630  -1.042  -0.088  0.00  0.00     0.079 A 
ATOM      7  C   UNN dAMED      -4.024  -1.138  -0.221  0.00  0.00     0.019 A 
ATOM      8  C   UNN dAMED      -1.862  -2.177   0.187  0.00  0.00     0.097 A 
ATOM      9  C   UNN dAMED      -4.663  -2.369  -0.081  0.00  0.00     0.002 A 
ATOM     10  C   UNN dAMED      -3.900  -3.501   0.189  0.00  0.00     0.002 A 
ATOM     11  C   UNN dAMED      -2.514  -3.406   0.322  0.00  0.00     0.021 A 
ATOM     12  N   UNN dAMED      -0.457  -2.109   0.334  0.00  0.00    -0.236 NA
ATOM     13  C   UNN dAMED       0.147  -0.965   0.200  0.00  0.00     0.172 A 
ATOM     14  C   UNN dAMED      -0.612   0.292  -0.135  0.00  0.00     0.171 A 
ATOM     15  C   UNN dAMED       1.641  -0.950   0.384  0.00  0.00     0.289 A 
ATOM     16  N   UNN dAMED       0.055   1.394  -0.310  0.00  0.00    -0.173 NA
ATOM     17  C   UNN dAMED       1.435   1.469  -0.224  0.00  0.00     0.358 A 
ATOM     18  O   UNN dAMED       2.003   2.548  -0.431  0.00  0.00    -0.244 OA
ATOM     19  N   UNN dAMED       2.185   0.306   0.106  0.00  0.00    -0.225 N 
ATOM     20  C   UNN dAMED       3.596   0.443   0.174  0.00  0.00     0.071 A 
ATOM     21  C   UNN dAMED       4.183   1.134   1.235  0.00  0.00     0.018 A 
ATOM     22  C   UNN dAMED       4.397  -0.118  -0.821  0.00  0.00     0.018 A 
ATOM     23  C   UNN dAMED       5.568   1.270   1.296  0.00  0.00     0.002 A 
ATOM     24  C   UNN dAMED       6.369   0.693   0.313  0.00  0.00     0.000 A 
ATOM     25  C   UNN dAMED       5.783  -0.007  -0.740  0.00  0.00     0.002 A 
ATOM     26  O   UNN dAMED       2.216  -1.970   0.735  0.00  0.00    -0.265 OA
ENDBRANCH   4   5
ENDBRANCH   3   4
TORSDOF 2
