REMARK  3 active torsions:
REMARK  status: ('A' for Active; 'I' for Inactive)
REMARK    1  A    between atoms: C_4  and  C_18 
REMARK    2  A    between atoms: C_10  and  N_16 
REMARK    3  A    between atoms: C_11  and  C_14 
REMARK       I    between atoms: N_16  and  C_18 
ROOT
ATOM      1  N   UNN dAMED       0.847   2.068  -1.116  0.00  0.00    -0.208 NA
ATOM      2  C   UNN dAMED       0.812   0.963  -0.361  0.00  0.00     0.280 C 
ATOM      3  O   UNN dAMED      -0.144   0.386   0.154  0.00  0.00    -0.265 OA
ENDROOT
BRANCH   1   4
ATOM      4  C   UNN dAMED      -0.365   2.631  -1.324  0.00  0.00     0.089 A 
ATOM      5  C   UNN dAMED      -0.932   3.476  -0.357  0.00  0.00     0.019 A 
ATOM      6  C   UNN dAMED      -2.170   4.092  -0.547  0.00  0.00     0.002 A 
ATOM      7  C   UNN dAMED      -2.869   3.894  -1.733  0.00  0.00     0.000 A 
ATOM      8  C   UNN dAMED      -2.325   3.091  -2.728  0.00  0.00     0.006 A 
ATOM      9  C   UNN dAMED      -1.093   2.473  -2.515  0.00  0.00     0.071 A 
BRANCH   9  10
ATOM     10  C   UNN dAMED      -0.562   1.689  -3.632  0.00  0.00     0.268 C 
ATOM     11  O   UNN dAMED      -0.896   0.524  -3.792  0.00  0.00    -0.271 OA
ATOM     12  N   UNN dAMED       0.264   2.326  -4.601  0.00  0.00    -0.057 NA
ENDBRANCH   9  10
ENDBRANCH   1   4
BRANCH   2  13
ATOM     13  C   UNN dAMED       2.145   0.382  -0.119  0.00  0.00     0.069 A 
ATOM     14  C   UNN dAMED       2.949   0.993   0.846  0.00  0.00     0.006 A 
ATOM     15  C   UNN dAMED       4.208   0.470   1.129  0.00  0.00     0.000 A 
ATOM     16  C   UNN dAMED       4.655  -0.669   0.462  0.00  0.00     0.001 A 
ATOM     17  C   UNN dAMED       3.845  -1.288  -0.488  0.00  0.00     0.012 A 
ATOM     18  C   UNN dAMED       2.587  -0.766  -0.782  0.00  0.00     0.062 A 
ATOM     19 CL   UNN dAMED       1.630  -1.589  -1.952  0.00  0.00    -0.082 Cl
ENDBRANCH   2  13
TORSDOF 3
