REMARK  3 active torsions:
REMARK  status: ('A' for Active; 'I' for Inactive)
REMARK    1  A    between atoms: N_2  and  C_5 
REMARK    2  A    between atoms: N_3  and  C_10 
REMARK    3  A    between atoms: C_12  and  O_17 
ROOT
ATOM      1  N   UNN dAMED      -0.489  -0.496  -0.387  0.00  0.00    -0.145 NA
ATOM      2  N   UNN dAMED      -0.025  -1.428   0.303  0.00  0.00    -0.148 NA
ENDROOT
BRANCH   1   3
ATOM      3  C   UNN dAMED      -1.889  -0.522  -0.342  0.00  0.00     0.134 A 
ATOM      4  C   UNN dAMED      -2.596   0.277   0.549  0.00  0.00     0.171 A 
ATOM      5  N   UNN dAMED      -3.948   0.319   0.598  0.00  0.00    -0.216 NA
ATOM      6  N   UNN dAMED      -1.862   1.100   1.451  0.00  0.00    -0.078 NA
ATOM      7  C   UNN dAMED      -4.626  -0.455  -0.281  0.00  0.00     0.152 A 
ATOM      8  C   UNN dAMED      -4.007  -1.271  -1.213  0.00  0.00     0.035 A 
ATOM      9  N   UNN dAMED      -6.050  -0.412  -0.261  0.00  0.00    -0.080 NA
ATOM     10  C   UNN dAMED      -2.620  -1.292  -1.243  0.00  0.00     0.026 A 
ENDBRANCH   1   3
BRANCH   2  11
ATOM     11  C   UNN dAMED       1.383  -1.487   0.257  0.00  0.00     0.103 A 
ATOM     12  C   UNN dAMED       2.182  -0.567  -0.436  0.00  0.00     0.023 A 
ATOM     13  C   UNN dAMED       3.570  -0.681  -0.445  0.00  0.00     0.026 A 
ATOM     14  C   UNN dAMED       4.164  -1.726   0.249  0.00  0.00     0.094 A 
ATOM     15  C   UNN dAMED       3.402  -2.653   0.947  0.00  0.00     0.026 A 
ATOM     16  C   UNN dAMED       2.014  -2.528   0.946  0.00  0.00     0.023 A 
BRANCH  14  17
ATOM     17  O   UNN dAMED       5.521  -1.845   0.242  0.00  0.00    -0.328 OA
ATOM     18  C   UNN dAMED       5.959  -0.970  -0.756  0.00  0.00     0.181 C 
ENDBRANCH  14  17
ENDBRANCH   2  11
TORSDOF 3
