REMARK  3 active torsions:
REMARK  status: ('A' for Active; 'I' for Inactive)
REMARK    1  A    between atoms: C_4  and  N_18 
REMARK    2  A    between atoms: C_7  and  N_18 
REMARK    3  A    between atoms: C_14  and  O_15 
ROOT
ATOM      1  C   UNN dAMED      -3.097   1.489   0.482  0.00  0.00     0.067 C 
ATOM      2  C   UNN dAMED      -2.259   1.135  -1.055  0.00  0.00     0.066 C 
ATOM      3  N   UNN dAMED      -3.412   0.216   1.101  0.00  0.00    -0.368 N 
ATOM      4  C   UNN dAMED      -1.076   0.244  -0.837  0.00  0.00     0.063 C 
ATOM      5  H   UNN dAMED      -4.356   0.024   1.403  0.00  0.00     0.161 HD
ATOM      6  C   UNN dAMED      -2.559  -0.863   0.892  0.00  0.00     0.110 C 
ATOM      7  C   UNN dAMED      -1.242  -0.707   0.104  0.00  0.00     0.043 C 
ATOM      8  S   UNN dAMED      -2.980  -2.365   1.521  0.00  0.00    -0.060 SA
ATOM      9  C   UNN dAMED      -2.227   1.123  -1.121  0.00  0.00     0.022 C 
ATOM     10  C   UNN dAMED      -2.218   1.117  -1.131  0.00  0.00     0.022 C 
ENDROOT
BRANCH   4  11
ATOM     11  N   UNN dAMED       0.061   0.461  -1.501  0.00  0.00    -0.250 NA
BRANCH  11  12
ATOM     12  C   UNN dAMED       0.891   1.392  -0.991  0.00  0.00     0.081 A 
ATOM     13  C   UNN dAMED       0.681   2.111   0.200  0.00  0.00     0.021 A 
ATOM     14  C   UNN dAMED       1.483   3.205   0.564  0.00  0.00     0.026 A 
ATOM     15  C   UNN dAMED       2.518   3.616  -0.269  0.00  0.00     0.094 A 
ATOM     16  C   UNN dAMED       2.779   2.911  -1.436  0.00  0.00     0.026 A 
ATOM     17  C   UNN dAMED       1.961   1.834  -1.792  0.00  0.00     0.021 A 
BRANCH  15  18
ATOM     18  O   UNN dAMED       3.277   4.716   0.004  0.00  0.00    -0.328 OA
ATOM     19  C   UNN dAMED       2.619   5.410   1.020  0.00  0.00     0.181 C 
ENDBRANCH  15  18
ENDBRANCH  11  12
ENDBRANCH   4  11
TORSDOF 3
