REMARK  3 active torsions:
REMARK  status: ('A' for Active; 'I' for Inactive)
REMARK    1  A    between atoms: C_9  and  N_11 
REMARK    2  A    between atoms: N_12  and  C_13 
REMARK    3  A    between atoms: C_16  and  N_20 
ROOT
ATOM      1  N   UNN dAMED      -0.283   0.153  -0.439  0.00  0.00    -0.148 NA
ATOM      2  N   UNN dAMED       0.364  -0.816   0.013  0.00  0.00    -0.148 NA
ENDROOT
BRANCH   1   3
ATOM      3  C   UNN dAMED      -1.637   0.044  -0.085  0.00  0.00     0.103 A 
ATOM      4  C   UNN dAMED      -2.059   0.204   1.235  0.00  0.00     0.022 A 
ATOM      5  C   UNN dAMED      -3.416   0.163   1.554  0.00  0.00     0.021 A 
ATOM      6  C   UNN dAMED      -4.388  -0.002   0.578  0.00  0.00     0.082 A 
ATOM      7  N   UNN dAMED      -5.691  -0.020   0.907  0.00  0.00    -0.244 NA
ATOM      8  C   UNN dAMED      -3.958  -0.138  -0.755  0.00  0.00     0.019 A 
ATOM      9  C   UNN dAMED      -6.593  -0.167  -0.092  0.00  0.00     0.099 A 
ATOM     10  C   UNN dAMED      -6.263  -0.301  -1.428  0.00  0.00     0.021 A 
ATOM     11  C   UNN dAMED      -4.915  -0.286  -1.754  0.00  0.00     0.003 A 
ATOM     12  C   UNN dAMED      -2.600  -0.115  -1.080  0.00  0.00     0.022 A 
ENDBRANCH   1   3
BRANCH   2  13
ATOM     13  C   UNN dAMED       1.717  -0.704  -0.345  0.00  0.00     0.099 A 
ATOM     14  C   UNN dAMED       2.528   0.304   0.187  0.00  0.00    -0.001 A 
ATOM     15  C   UNN dAMED       3.881   0.373  -0.140  0.00  0.00     0.014 A 
ATOM     16  C   UNN dAMED       1.925   1.344   1.088  0.00  0.00     0.033 C 
ATOM     17  C   UNN dAMED       4.445  -0.579  -0.988  0.00  0.00     0.056 A 
ATOM     18  C   UNN dAMED       3.646  -1.597  -1.507  0.00  0.00     0.018 A 
ATOM     19  C   UNN dAMED       2.291  -1.661  -1.184  0.00  0.00     0.022 A 
BRANCH  17  20
ATOM     20  N   UNN dAMED       5.812  -0.513  -1.315  0.00  0.00    -0.344 N 
ATOM     21  C   UNN dAMED       6.664   0.461  -0.662  0.00  0.00     0.126 C 
ATOM     22  C   UNN dAMED       6.392  -1.506  -2.198  0.00  0.00     0.126 C 
ENDBRANCH  17  20
ENDBRANCH   2  13
TORSDOF 3
