REMARK  5 active torsions:
REMARK  status: ('A' for Active; 'I' for Inactive)
REMARK    1  A    between atoms: C_3  and  C_7 
REMARK    2  A    between atoms: C_7  and  C_8 
REMARK    3  A    between atoms: C_8  and  C_10 
REMARK    4  A    between atoms: C_10  and  O_12 
REMARK    5  A    between atoms: O_12  and  C_13 
ROOT
ATOM      1  C   UNN dAMED      -0.228  -1.682   0.264  0.00  0.00     0.069 C 
ENDROOT
BRANCH   1   2
ATOM      2  C   UNN dAMED      -1.407  -0.747   0.211  0.00  0.00     0.106 A 
ATOM      3  N   UNN dAMED      -2.627  -1.271  -0.037  0.00  0.00    -0.148 NA
ATOM      4  N   UNN dAMED      -3.708  -0.449  -0.105  0.00  0.00    -0.146 NA
ATOM      5  C   UNN dAMED      -3.539   0.877   0.073  0.00  0.00     0.122 A 
ATOM      6  C   UNN dAMED      -2.306   1.446   0.317  0.00  0.00     0.024 A 
ATOM      7  C   UNN dAMED      -1.206   0.610   0.386  0.00  0.00     0.023 A 
ENDBRANCH   1   2
BRANCH   1   8
ATOM      8  C   UNN dAMED       0.236  -2.323   1.547  0.00  0.00     0.260 C 
ATOM      9  O   UNN dAMED      -0.565  -2.804   2.333  0.00  0.00    -0.281 OA
BRANCH   8  10
ATOM     10  C   UNN dAMED       1.695  -2.628   1.696  0.00  0.00     0.335 C 
ATOM     11  O   UNN dAMED       2.534  -1.897   1.208  0.00  0.00    -0.256 OA
BRANCH  10  12
ATOM     12  O   UNN dAMED       1.882  -3.806   2.300  0.00  0.00    -0.296 OA
BRANCH  12  13
ATOM     13  C   UNN dAMED       3.244  -4.078   2.154  0.00  0.00     0.152 C 
ATOM     14  C   UNN dAMED       3.700  -5.327   1.393  0.00  0.00     0.035 C 
ENDBRANCH  12  13
ENDBRANCH  10  12
ENDBRANCH   8  10
ENDBRANCH   1   8
TORSDOF 5
