REMARK  7 active torsions:
REMARK  status: ('A' for Active; 'I' for Inactive)
REMARK    1  A    between atoms: C_3  and  S_6 
REMARK    2  A    between atoms: C_4  and  C_11 
REMARK    3  A    between atoms: C_5  and  C_9 
REMARK    4  A    between atoms: C_9  and  O_13 
REMARK    5  A    between atoms: C_11  and  O_16 
REMARK    6  A    between atoms: O_13  and  C_14 
REMARK    7  A    between atoms: O_16  and  C_17 
ROOT
ATOM      1  N   UNN dAMED      -0.574  -1.118   0.276  0.00  0.00    -0.204 NA
ATOM      2  N   UNN dAMED       1.619  -0.990   0.127  0.00  0.00    -0.221 NA
ATOM      3  C   UNN dAMED       0.595  -1.800   0.209  0.00  0.00     0.151 C 
ATOM      4  C   UNN dAMED       1.065   0.274   0.041  0.00  0.00     0.162 C 
ATOM      5  C   UNN dAMED      -0.325   0.212   0.057  0.00  0.00     0.129 C 
ATOM      6  C   UNN dAMED      -1.459  -1.606  -0.724  0.00  0.00     0.102 C 
ENDROOT
BRANCH   4   7
ATOM      7  C   UNN dAMED       1.918   1.428  -0.093  0.00  0.00     0.315 C 
ATOM      8  O   UNN dAMED       1.640   2.444  -0.716  0.00  0.00    -0.257 OA
BRANCH   7   9
ATOM      9  O   UNN dAMED       3.126   1.238   0.501  0.00  0.00    -0.297 OA
BRANCH   9  10
ATOM     10  C   UNN dAMED       3.906   2.296   0.039  0.00  0.00     0.152 C 
ATOM     11  C   UNN dAMED       3.214   3.579  -0.429  0.00  0.00     0.035 C 
ENDBRANCH   9  10
ENDBRANCH   7   9
ENDBRANCH   4   7
BRANCH   5  12
ATOM     12  C   UNN dAMED      -1.349   1.209  -0.068  0.00  0.00     0.308 C 
ATOM     13  O   UNN dAMED      -2.376   1.286   0.593  0.00  0.00    -0.258 OA
BRANCH  12  14
ATOM     14  O   UNN dAMED      -1.043   2.059  -1.080  0.00  0.00    -0.298 OA
BRANCH  14  15
ATOM     15  C   UNN dAMED       0.307   1.807  -1.348  0.00  0.00     0.152 C 
ATOM     16  C   UNN dAMED       1.399   2.719  -0.775  0.00  0.00     0.035 C 
ENDBRANCH  14  15
ENDBRANCH  12  14
ENDBRANCH   5  12
BRANCH   3  17
ATOM     17  S   UNN dAMED       0.634  -3.518   0.257  0.00  0.00    -0.082 SA
ATOM     18  C   UNN dAMED      -1.078  -3.696   0.740  0.00  0.00     0.077 C 
ENDBRANCH   3  17
TORSDOF 7
