REMARK  0 active torsions:
REMARK  status: ('A' for Active; 'I' for Inactive)
ROOT
ATOM      1  C   UNN dAMED      -3.631  -3.350   0.041  0.00  0.00     0.000 A 
ATOM      2  C   UNN dAMED      -3.792  -1.963   0.057  0.00  0.00     0.000 A 
ATOM      3  C   UNN dAMED      -4.128   0.956   0.099  0.00  0.00     0.000 A 
ATOM      4  C   UNN dAMED      -4.287   2.343   0.112  0.00  0.00     0.000 A 
ATOM      5  C   UNN dAMED      -2.690  -1.101   0.010  0.00  0.00     0.002 A 
ATOM      6  C   UNN dAMED      -2.860   0.369   0.029  0.00  0.00     0.002 A 
ATOM      7  C   UNN dAMED      -2.356  -3.906  -0.022  0.00  0.00     0.000 A 
ATOM      8  C   UNN dAMED      -3.173   3.176   0.058  0.00  0.00     0.000 A 
ATOM      9  C   UNN dAMED      -1.416  -1.699  -0.056  0.00  0.00     0.019 A 
ATOM     10  C   UNN dAMED      -1.238  -3.080  -0.072  0.00  0.00     0.002 A 
ATOM     11  C   UNN dAMED      -1.756   1.243  -0.024  0.00  0.00     0.019 A 
ATOM     12  C   UNN dAMED      -1.897   2.628  -0.009  0.00  0.00     0.002 A 
ATOM     13  C   UNN dAMED      -0.434   0.658  -0.096  0.00  0.00     0.101 A 
ATOM     14  C   UNN dAMED      -0.262  -0.826  -0.108  0.00  0.00     0.101 A 
ATOM     15  N   UNN dAMED       1.006  -1.099  -0.150  0.00  0.00    -0.225 NA
ATOM     16  C   UNN dAMED       1.692   0.155  -0.204  0.00  0.00     0.166 A 
ATOM     17  C   UNN dAMED       3.158   0.327   0.111  0.00  0.00     0.075 A 
ATOM     18  C   UNN dAMED       4.061   0.460  -0.962  0.00  0.00     0.199 A 
ATOM     19  C   UNN dAMED       3.562   0.367   1.452  0.00  0.00     0.006 A 
ATOM     20  C   UNN dAMED       5.402   0.635  -0.580  0.00  0.00     0.042 A 
ATOM     21  C   UNN dAMED       4.901   0.543   1.771  0.00  0.00     0.000 A 
ATOM     22  C   UNN dAMED       5.828   0.679   0.750  0.00  0.00     0.003 A 
ATOM     23  N   UNN dAMED       0.736   1.217  -0.134  0.00  0.00    -0.225 NA
ATOM     24  O   UNN dAMED       3.693   0.424  -2.181  0.00  0.00    -0.286 OA
ENDROOT
TORSDOF 0
