REMARK  4 active torsions:
REMARK  status: ('A' for Active; 'I' for Inactive)
REMARK    1  A    between atoms: S_1  and  C_2 
REMARK    2  A    between atoms: C_5  and  C_7 
REMARK       I    between atoms: C_7  and  N_17 
REMARK    3  A    between atoms: C_9  and  N_17 
REMARK    4  A    between atoms: C_14  and  N_18 
ROOT
ATOM      1  C   UNN dAMED      -0.934  -2.100   0.118  0.00  0.00     0.288 C 
ATOM      2  O   UNN dAMED       0.154  -2.158  -0.449  0.00  0.00    -0.265 OA
ATOM      3  N   UNN dAMED      -1.342  -2.950   1.071  0.00  0.00    -0.207 NA
ENDROOT
BRANCH   1   4
ATOM      4  C   UNN dAMED      -1.864  -0.994  -0.074  0.00  0.00     0.120 A 
ATOM      5  S   UNN dAMED      -1.755   0.029  -1.452  0.00  0.00    -0.054 SA
ATOM      6  C   UNN dAMED      -3.094   0.935  -0.875  0.00  0.00     0.138 A 
ATOM      7  N   UNN dAMED      -3.622   0.531   0.258  0.00  0.00    -0.218 NA
ATOM      8  C   UNN dAMED      -2.910  -0.552   0.708  0.00  0.00     0.163 A 
ATOM      9  N   UNN dAMED      -3.267  -1.227   1.906  0.00  0.00    -0.079 NA
BRANCH   6  10
ATOM     10  S   UNN dAMED      -3.753   2.319  -1.724  0.00  0.00    -0.087 SA
ATOM     11  C   UNN dAMED      -2.388   2.488  -2.869  0.00  0.00     0.076 C 
ENDBRANCH   6  10
ENDBRANCH   1   4
BRANCH   3  12
ATOM     12  C   UNN dAMED      -2.103  -3.966   0.604  0.00  0.00     0.085 A 
ATOM     13  C   UNN dAMED      -1.565  -5.017  -0.156  0.00  0.00     0.021 A 
ATOM     14  C   UNN dAMED      -2.359  -6.066  -0.619  0.00  0.00     0.025 A 
ATOM     15  C   UNN dAMED      -3.712  -6.065  -0.298  0.00  0.00     0.127 A 
ATOM     16  C   UNN dAMED      -4.280  -5.069   0.486  0.00  0.00     0.025 A 
ATOM     17  C   UNN dAMED      -3.463  -4.040   0.946  0.00  0.00     0.021 A 
BRANCH  15  18
ATOM     18  N   UNN dAMED      -4.568  -7.091  -0.851  0.00  0.00    -0.114 N 
ATOM     19  O   UNN dAMED      -4.264  -7.549  -1.961  0.00  0.00    -0.532 OA
ATOM     20  O   UNN dAMED      -5.553  -7.433  -0.183  0.00  0.00    -0.532 OA
ENDBRANCH  15  18
ENDBRANCH   3  12
TORSDOF 4
