REMARK  3 active torsions:
REMARK  status: ('A' for Active; 'I' for Inactive)
REMARK    1  A    between atoms: N_2  and  C_7 
REMARK    2  A    between atoms: C_7  and  C_8 
REMARK    3  A    between atoms: C_7  and  C_11 
ROOT
ATOM      1  C   UNN dAMED      -0.773   0.322   0.191  0.00  0.00     0.103 C 
ENDROOT
BRANCH   1   2
ATOM      2  N   UNN dAMED      -0.508   1.747   1.096  0.00  0.00    -0.242 NA
ATOM      3  C   UNN dAMED      -0.767   0.328   0.197  0.00  0.00     0.109 C 
ATOM      4  C   UNN dAMED      -1.972  -0.558   0.533  0.00  0.00     0.160 C 
ATOM      5  O   UNN dAMED      -3.283   0.041   0.788  0.00  0.00    -0.351 OA
ATOM      6  C   UNN dAMED      -1.975  -0.560   0.531  0.00  0.00     0.160 C 
ATOM      7  C   UNN dAMED      -0.772   0.332   0.191  0.00  0.00     0.109 C 
ENDBRANCH   1   2
BRANCH   1   8
ATOM      8  C   UNN dAMED      -0.120   0.230  -1.165  0.00  0.00     0.222 C 
ATOM      9  O   UNN dAMED      -0.892   0.230  -2.169  0.00  0.00    -0.643 OA
ATOM     10  O   UNN dAMED       1.146   0.156  -1.184  0.00  0.00    -0.643 OA
ENDBRANCH   1   8
BRANCH   1  11
ATOM     11  C   UNN dAMED      -0.939  -1.008   0.972  0.00  0.00     0.040 C 
ATOM     12  C   UNN dAMED       0.075  -1.706   1.504  0.00  0.00     0.116 C 
ATOM     13 CL   UNN dAMED       1.651  -1.034   1.704  0.00  0.00    -0.070 Cl
ATOM     14 CL   UNN dAMED      -0.094  -3.412   1.713  0.00  0.00    -0.070 Cl
ENDBRANCH   1  11
TORSDOF 3
