REMARK  8 active torsions:
REMARK  status: ('A' for Active; 'I' for Inactive)
REMARK    1  A    between atoms: C_6  and  C_17 
REMARK    2  A    between atoms: C_17  and  N_18 
REMARK    3  A    between atoms: N_18  and  C_19 
REMARK    4  A    between atoms: C_19  and  C_20 
REMARK    5  A    between atoms: C_20  and  O_21 
REMARK    6  A    between atoms: C_20  and  O_24 
REMARK    7  A    between atoms: O_21  and  C_22 
REMARK    8  A    between atoms: O_24  and  C_25 
ROOT
ATOM      1  H   UNN dAMED      -4.175   2.108  -0.623  0.00  0.00     0.166 HD
ATOM      2  N   UNN dAMED      -3.717   1.251  -0.346  0.00  0.00    -0.354 N 
ATOM      3  C   UNN dAMED      -1.323   1.976  -0.567  0.00  0.00    -0.006 A 
ATOM      4  C   UNN dAMED      -2.356   1.080  -0.282  0.00  0.00     0.052 A 
ATOM      5  C   UNN dAMED      -0.011   1.528  -0.428  0.00  0.00    -0.005 A 
ATOM      6  C   UNN dAMED       0.261   0.228  -0.008  0.00  0.00     0.009 A 
ATOM      7  C   UNN dAMED      -2.120  -0.230   0.136  0.00  0.00     0.013 A 
ATOM      8  C   UNN dAMED      -0.786  -0.658   0.275  0.00  0.00    -0.022 A 
ATOM      9  C   UNN dAMED      -3.392  -0.850   0.326  0.00  0.00     0.017 A 
ATOM     10  C   UNN dAMED      -5.739  -0.171   0.088  0.00  0.00     0.017 A 
ATOM     11  C   UNN dAMED      -4.369   0.097   0.016  0.00  0.00     0.057 A 
ATOM     12  C   UNN dAMED      -6.116  -1.452   0.496  0.00  0.00     0.002 A 
ATOM     13  C   UNN dAMED      -5.168  -2.418   0.812  0.00  0.00     0.000 A 
ATOM     14  C   UNN dAMED      -3.803  -2.134   0.732  0.00  0.00     0.002 A 
ATOM     15  C   UNN dAMED      -1.619   3.370  -1.039  0.00  0.00     0.033 C 
ATOM     16  C   UNN dAMED      -0.486  -2.069   0.695  0.00  0.00     0.031 C 
ENDROOT
BRANCH   6  17
ATOM     17  C   UNN dAMED       1.685  -0.258   0.056  0.00  0.00     0.317 C 
BRANCH  17  18
ATOM     18  N   UNN dAMED       2.522  -0.022   1.248  0.00  0.00     0.349 N 
BRANCH  18  19
ATOM     19  C   UNN dAMED       1.194   0.357   1.760  0.00  0.00     0.351 C 
BRANCH  19  20
ATOM     20  C   UNN dAMED       0.984   0.595   3.260  0.00  0.00     0.273 C 
BRANCH  20  21
ATOM     21  O   UNN dAMED       1.432   1.847   3.872  0.00  0.00    -0.329 OA
BRANCH  21  22
ATOM     22  C   UNN dAMED       0.984   0.596   3.261  0.00  0.00     0.145 C 
ATOM     23  C   UNN dAMED      -0.285   0.587   2.400  0.00  0.00     0.035 C 
ENDBRANCH  21  22
ENDBRANCH  20  21
BRANCH  20  24
ATOM     24  O   UNN dAMED       0.519  -0.477   4.091  0.00  0.00    -0.329 OA
BRANCH  24  25
ATOM     25  C   UNN dAMED       1.785   0.166   3.897  0.00  0.00     0.145 C 
ATOM     26  C   UNN dAMED       2.772   0.282   5.064  0.00  0.00     0.035 C 
ENDBRANCH  24  25
ENDBRANCH  20  24
ENDBRANCH  19  20
ENDBRANCH  18  19
ENDBRANCH  17  18
ENDBRANCH   6  17
TORSDOF 8
