REMARK  3 active torsions:
REMARK  status: ('A' for Active; 'I' for Inactive)
REMARK    1  A    between atoms: C_2  and  C_8 
REMARK    2  A    between atoms: N_10  and  C_11 
REMARK    3  A    between atoms: C_11  and  C_12 
ROOT
ATOM      1  O   UNN dAMED      -1.487  -1.290  -0.012  0.00  0.00    -0.329 OA
ATOM      2  C   UNN dAMED      -0.840  -0.064   0.307  0.00  0.00     0.134 C 
ATOM      3  C   UNN dAMED      -1.914   0.925   0.680  0.00  0.00     0.038 C 
ATOM      4  C   UNN dAMED      -2.893   0.424   1.733  0.00  0.00     0.027 C 
ATOM      5  C   UNN dAMED      -3.133  -1.057   1.775  0.00  0.00    -0.020 C 
ATOM      6  C   UNN dAMED      -2.156  -1.741   1.154  0.00  0.00     0.108 C 
ATOM      7  C   UNN dAMED      -3.893  -2.004   2.652  0.00  0.00     0.029 C 
ATOM      8  C   UNN dAMED       0.223   0.308  -0.873  0.00  0.00     0.036 C 
ENDROOT
BRANCH   2   9
ATOM      9  C   UNN dAMED       0.243   0.297  -0.865  0.00  0.00     0.094 C 
ATOM     10  N   UNN dAMED       0.120   1.336  -1.556  0.00  0.00    -0.267 NA
BRANCH  10  11
ATOM     11  C   UNN dAMED       1.405   0.705  -1.786  0.00  0.00     0.147 C 
BRANCH  11  12
ATOM     12  C   UNN dAMED       1.479  -0.606  -2.461  0.00  0.00    -0.020 C 
ATOM     13  C   UNN dAMED       1.524  -1.918  -3.168  0.00  0.00     0.028 C 
ATOM     14  C   UNN dAMED       2.572  -1.115  -1.840  0.00  0.00    -0.007 C 
ENDBRANCH  11  12
ENDBRANCH  10  11
ENDBRANCH   2   9
TORSDOF 3
