REMARK  3 active torsions:
REMARK  status: ('A' for Active; 'I' for Inactive)
REMARK    1  A    between atoms: C_9  and  S_11 
REMARK    2  A    between atoms: S_11  and  C_12 
REMARK    3  A    between atoms: C_12  and  C_13 
ROOT
ATOM      1  N   UNN dAMED       0.818  -1.063   0.128  0.00  0.00    -0.218 NA
ATOM      2  N   UNN dAMED      -1.441  -1.904   0.483  0.00  0.00    -0.205 NA
ATOM      3  H   UNN dAMED      -3.970  -0.741   0.171  0.00  0.00     0.191 HD
ATOM      4  N   UNN dAMED      -3.115  -0.236  -0.026  0.00  0.00    -0.260 N 
ATOM      5  N   UNN dAMED      -3.206   1.037  -0.452  0.00  0.00    -0.170 NA
ATOM      6  C   UNN dAMED      -1.832  -0.684   0.084  0.00  0.00     0.162 A 
ATOM      7  C   UNN dAMED      -1.021   0.371  -0.297  0.00  0.00     0.080 A 
ATOM      8  C   UNN dAMED      -1.930   1.402  -0.615  0.00  0.00     0.125 A 
ATOM      9  C   UNN dAMED       0.355   0.147  -0.266  0.00  0.00     0.113 A 
ATOM     10  C   UNN dAMED      -0.095  -2.002   0.473  0.00  0.00     0.201 A 
ENDROOT
BRANCH   9  11
ATOM     11  S   UNN dAMED       1.477   1.421  -0.734  0.00  0.00    -0.095 SA
BRANCH  11  12
ATOM     12  C   UNN dAMED       0.211   2.672  -0.920  0.00  0.00     0.064 C 
BRANCH  12  13
ATOM     13  C   UNN dAMED      -0.852   2.840   0.170  0.00  0.00     0.012 C 
ATOM     14  C   UNN dAMED      -0.424   3.019   1.629  0.00  0.00     0.001 C 
ENDBRANCH  12  13
ENDBRANCH  11  12
ENDBRANCH   9  11
TORSDOF 3
