REMARK  4 active torsions:
REMARK  status: ('A' for Active; 'I' for Inactive)
REMARK    1  A    between atoms: C_11  and  C_23 
REMARK    2  A    between atoms: C_12  and  S_22 
REMARK    3  A    between atoms: C4*_20  and  C5*_25 
REMARK    4  A    between atoms: S_22  and  C_23 
ROOT
ATOM      1  N   UNN dAMED      -0.795   1.725  -0.579  0.00  0.00    -0.207 NA
ATOM      2  N   UNN dAMED       1.529   1.446   0.062  0.00  0.00    -0.201 NA
ATOM      3  O4* UNN dAMED       4.218  -1.006   1.404  0.00  0.00    -0.313 OA
ATOM      4  N   UNN dAMED      -0.249  -1.298   1.496  0.00  0.00    -0.227 NA
ATOM      5  N   UNN dAMED       1.812  -0.503   1.480  0.00  0.00    -0.171 NA
ATOM      6  C   UNN dAMED      -1.166   0.604   0.085  0.00  0.00     0.130 A 
ATOM      7  C   UNN dAMED      -0.201  -0.130   0.768  0.00  0.00     0.135 A 
ATOM      8  C   UNN dAMED       1.096   0.356   0.709  0.00  0.00     0.149 A 
ATOM      9  C   UNN dAMED       1.000  -1.539   1.843  0.00  0.00     0.156 C 
ATOM     10  C   UNN dAMED       0.515   2.089  -0.561  0.00  0.00     0.239 A 
ATOM     11  C1* UNN dAMED       2.946  -1.006   0.768  0.00  0.00     0.228 A 
ATOM     12  C2* UNN dAMED       2.991  -1.144  -0.765  0.00  0.00     0.245 A 
ATOM     13  C3* UNN dAMED       4.469  -1.242  -1.052  0.00  0.00     0.163 A 
ATOM     14  C4* UNN dAMED       5.122  -1.142   0.320  0.00  0.00     0.130 A 
ATOM     15  N   UNN dAMED       0.850   3.289  -1.254  0.00  0.00    -0.060 NA
ATOM     16  O3* UNN dAMED       5.033  -0.613  -2.131  0.00  0.00    -0.190 OA
ATOM     17  O2* UNN dAMED       2.116  -1.961  -1.442  0.00  0.00    -0.212 OA
ENDROOT
BRANCH   6  18
ATOM     18  S   UNN dAMED      -2.833   0.041   0.055  0.00  0.00    -0.087 SA
BRANCH  18  19
ATOM     19  C   UNN dAMED      -2.425  -1.619   0.603  0.00  0.00     0.109 C 
BRANCH  19  20
ATOM     20  C   UNN dAMED      -3.157  -2.820   0.066  0.00  0.00     0.070 A 
ATOM     21  N   UNN dAMED      -4.225  -3.279   0.760  0.00  0.00    -0.247 NA
ATOM     22  C   UNN dAMED      -4.841  -4.379   0.275  0.00  0.00     0.099 A 
ATOM     23  C   UNN dAMED      -4.446  -5.050  -0.870  0.00  0.00     0.021 A 
ATOM     24  C   UNN dAMED      -3.343  -4.558  -1.554  0.00  0.00     0.003 A 
ATOM     25  C   UNN dAMED      -2.680  -3.430  -1.086  0.00  0.00     0.016 A 
ENDBRANCH  19  20
ENDBRANCH  18  19
ENDBRANCH   6  18
BRANCH  14  26
ATOM     26  C5* UNN dAMED       6.537  -1.690   0.548  0.00  0.00     0.235 C 
ATOM     27  O5* UNN dAMED       6.747  -3.038   0.648  0.00  0.00    -0.213 OA
ENDBRANCH  14  26
TORSDOF 4
