REMARK  3 active torsions:
REMARK  status: ('A' for Active; 'I' for Inactive)
REMARK    1  A    between atoms: C_4  and  N_18 
REMARK    2  A    between atoms: C_7  and  AS_15 
REMARK    3  A    between atoms: C_10  and  C_19 
REMARK       I    between atoms: N_18  and  C_19 
ROOT
ATOM      1  C   UNN dAMED      -0.927   1.702  -1.428  0.00  0.00     0.213 A 
ATOM      2  C   UNN dAMED      -2.292   1.995  -1.241  0.00  0.00     0.044 A 
ATOM      3  C   UNN dAMED      -0.417   0.626  -0.627  0.00  0.00     0.123 A 
ATOM      4  C   UNN dAMED      -1.284  -0.099   0.221  0.00  0.00     0.022 A 
ATOM      5  C   UNN dAMED      -3.133   1.281  -0.393  0.00  0.00     0.003 A 
ATOM      6  C   UNN dAMED      -2.621   0.209   0.342  0.00  0.00     0.002 A 
ATOM      7  O   UNN dAMED      -0.239   2.375  -2.270  0.00  0.00    -0.285 OA
ENDROOT
BRANCH   3   8
ATOM      8  N   UNN dAMED       0.864   0.186  -0.715  0.00  0.00    -0.205 NA
ATOM      9  C   UNN dAMED       1.759   0.915  -0.037  0.00  0.00     0.279 C 
ATOM     10  O   UNN dAMED       1.622   1.997   0.532  0.00  0.00    -0.265 OA
BRANCH   9  11
ATOM     11  C   UNN dAMED       3.106   0.318  -0.031  0.00  0.00     0.058 A 
ATOM     12  C   UNN dAMED       3.730  -0.017  -1.234  0.00  0.00     0.005 A 
ATOM     13  C   UNN dAMED       4.997  -0.592  -1.211  0.00  0.00     0.000 A 
ATOM     14  C   UNN dAMED       5.643  -0.801   0.005  0.00  0.00     0.000 A 
ATOM     15  C   UNN dAMED       5.025  -0.440   1.202  0.00  0.00     0.000 A 
ATOM     16  C   UNN dAMED       3.748   0.116   1.189  0.00  0.00     0.005 A 
ENDBRANCH   9  11
ENDBRANCH   3   8
BRANCH   6  17
ATOM     17 AS   UNN dAMED      -4.134  -0.889   0.778  0.00  0.00     0.000 As
ATOM     18  O   UNN dAMED      -5.148  -0.093   1.707  0.00  0.00     0.000 OA
ATOM     19  O   UNN dAMED      -4.951  -1.359  -0.708  0.00  0.00     0.000 OA
ATOM     20  O   UNN dAMED      -3.598  -2.339   1.618  0.00  0.00     0.000 OA
ENDBRANCH   6  17
TORSDOF 3
