REMARK  4 active torsions:
REMARK  status: ('A' for Active; 'I' for Inactive)
REMARK    1  A    between atoms: S_1  and  C_2 
REMARK    2  A    between atoms: S_1  and  C_21 
REMARK    3  A    between atoms: C_5  and  C_7 
REMARK       I    between atoms: C_7  and  N_9 
REMARK    4  A    between atoms: C_15  and  C_21 
ROOT
ATOM      1  C   UNN dAMED      -0.920  -0.913   0.491  0.00  0.00     0.138 A 
ATOM      2  N   UNN dAMED      -0.127  -1.710   1.170  0.00  0.00    -0.218 NA
ATOM      3  S   UNN dAMED      -0.174   0.430  -0.275  0.00  0.00    -0.055 SA
ATOM      4  C   UNN dAMED       1.341  -0.070   0.351  0.00  0.00     0.113 A 
ATOM      5  C   UNN dAMED       1.152  -1.221   1.083  0.00  0.00     0.162 A 
ATOM      6  N   UNN dAMED       2.238  -1.868   1.736  0.00  0.00    -0.079 NA
ENDROOT
BRANCH   1   7
ATOM      7  S   UNN dAMED      -2.645  -1.197   0.406  0.00  0.00    -0.084 SA
BRANCH   7   8
ATOM      8  C   UNN dAMED      -3.080   0.500   0.793  0.00  0.00     0.090 C 
BRANCH   8   9
ATOM      9  C   UNN dAMED      -3.994   0.837   1.941  0.00  0.00    -0.011 A 
ATOM     10  C   UNN dAMED      -5.253   1.375   1.680  0.00  0.00    -0.003 A 
ATOM     11  C   UNN dAMED      -6.046   1.834   2.728  0.00  0.00    -0.000 A 
ATOM     12  C   UNN dAMED      -5.580   1.762   4.038  0.00  0.00    -0.000 A 
ATOM     13  C   UNN dAMED      -4.319   1.232   4.301  0.00  0.00    -0.000 A 
ATOM     14  C   UNN dAMED      -3.523   0.777   3.253  0.00  0.00    -0.003 A 
ENDBRANCH   8   9
ENDBRANCH   7   8
ENDBRANCH   1   7
BRANCH   4  15
ATOM     15  C   UNN dAMED       2.547   0.681   0.090  0.00  0.00     0.245 C 
ATOM     16  N   UNN dAMED       3.668   0.108   0.656  0.00  0.00    -0.219 NA
ATOM     17  C   UNN dAMED       4.096   0.978   1.716  0.00  0.00     0.080 C 
ATOM     18  C   UNN dAMED       3.238  -1.123   1.256  0.00  0.00     0.080 C 
ATOM     19  C   UNN dAMED       5.131   0.450   2.716  0.00  0.00     0.018 C 
ATOM     20  C   UNN dAMED       4.823  -0.937   3.263  0.00  0.00     0.003 C 
ATOM     21  C   UNN dAMED       4.191  -1.843   2.215  0.00  0.00     0.018 C 
ATOM     22  O   UNN dAMED       2.598   1.725  -0.557  0.00  0.00    -0.273 OA
ENDBRANCH   4  15
TORSDOF 4
