REMARK  0 active torsions:
REMARK  status: ('A' for Active; 'I' for Inactive)
ROOT
ATOM      1  N   UNN dAMED      -1.344  -1.348  -0.507  0.00  0.00    -0.399 N 
ATOM      2  H   UNN dAMED      -0.999  -2.307  -0.443  0.00  0.00     0.154 HD
ATOM      3  N   UNN dAMED      -1.943   1.391   0.154  0.00  0.00    -0.399 N 
ATOM      4  H   UNN dAMED      -2.100   2.395   0.043  0.00  0.00     0.154 HD
ATOM      5  C   UNN dAMED       0.455   1.796   0.373  0.00  0.00     0.014 C 
ATOM      6  C   UNN dAMED       1.714   0.961   0.613  0.00  0.00    -0.004 C 
ATOM      7  C   UNN dAMED      -0.632   1.052  -0.383  0.00  0.00     0.111 C 
ATOM      8  C   UNN dAMED      -0.259  -0.425  -0.197  0.00  0.00     0.111 C 
ATOM      9  C   UNN dAMED       1.675  -0.314   1.716  0.00  0.00     0.020 C 
ATOM     10  C   UNN dAMED       0.186  -0.595   1.264  0.00  0.00     0.009 C 
ATOM     11  C   UNN dAMED      -3.025   0.464  -0.124  0.00  0.00     0.117 C 
ATOM     12  C   UNN dAMED      -2.662  -1.013  -0.014  0.00  0.00     0.117 C 
ATOM     13  C   UNN dAMED       1.715   0.965   0.609  0.00  0.00    -0.006 C 
ENDROOT
TORSDOF 0
