REMARK  3 active torsions:
REMARK  status: ('A' for Active; 'I' for Inactive)
REMARK    1  A    between atoms: P_3  and  O_5 
REMARK    2  A    between atoms: O_5  and  C_8 
REMARK    3  A    between atoms: C_9  and  N_15 
ROOT
ATOM      1  C   UNN dAMED      -0.814   0.783  -2.167  0.00  0.00     0.026 A 
ATOM      2  C   UNN dAMED       0.112   0.996  -3.183  0.00  0.00     0.026 A 
ATOM      3  C   UNN dAMED      -0.440   0.046  -1.044  0.00  0.00     0.103 A 
ATOM      4  C   UNN dAMED       1.393   0.469  -3.037  0.00  0.00     0.127 A 
ATOM      5  C   UNN dAMED       0.850  -0.458  -0.899  0.00  0.00     0.026 A 
ATOM      6  C   UNN dAMED       1.778  -0.262  -1.915  0.00  0.00     0.026 A 
ENDROOT
BRANCH   3   7
ATOM      7  O   UNN dAMED      -1.315  -0.093  -0.007  0.00  0.00    -0.265 OA
BRANCH   7   8
ATOM      8  P   UNN dAMED      -2.531  -1.170  -0.084  0.00  0.00     0.394 P 
ATOM      9  O   UNN dAMED      -3.708  -0.240  -0.711  0.00  0.00    -0.287 OA
ATOM     10  C   UNN dAMED      -4.010   0.642   0.332  0.00  0.00     0.184 C 
ATOM     11  C   UNN dAMED      -4.345   0.098   1.733  0.00  0.00     0.182 C 
ATOM     12  O   UNN dAMED      -3.410  -0.647   2.472  0.00  0.00    -0.320 OA
ATOM     13  C   UNN dAMED      -3.026  -1.665   1.591  0.00  0.00     0.205 C 
ATOM     14  O   UNN dAMED      -2.225  -2.357  -0.962  0.00  0.00    -0.251 OA
ENDBRANCH   7   8
ENDBRANCH   3   7
BRANCH   4  15
ATOM     15  N   UNN dAMED       2.331   0.605  -4.125  0.00  0.00    -0.114 N 
ATOM     16  O   UNN dAMED       1.888   0.476  -5.274  0.00  0.00    -0.532 OA
ATOM     17  O   UNN dAMED       3.514   0.826  -3.832  0.00  0.00    -0.532 OA
ENDBRANCH   4  15
TORSDOF 3
