REMARK  2 active torsions:
REMARK  status: ('A' for Active; 'I' for Inactive)
REMARK    1  A    between atoms: C_4  and  N_15 
REMARK    2  A    between atoms: C_14  and  N_19 
ROOT
ATOM      1  C   UNN dAMED      -3.440  -0.699   0.058  0.00  0.00     0.058 C 
ATOM      2  C   UNN dAMED      -4.519  -0.005   0.423  0.00  0.00     0.013 C 
ATOM      3  N   UNN dAMED      -2.413  -0.099  -0.728  0.00  0.00    -0.172 NA
ATOM      4  C   UNN dAMED      -1.237  -0.747  -0.533  0.00  0.00     0.209 A 
ATOM      5  C   UNN dAMED      -4.533   1.508   0.203  0.00  0.00     0.004 C 
ATOM      6  C   UNN dAMED      -2.220   1.198  -0.361  0.00  0.00     0.131 A 
ATOM      7  C   UNN dAMED      -3.351   2.092   0.041  0.00  0.00     0.032 C 
ATOM      8  C   UNN dAMED      -0.331   0.232  -0.209  0.00  0.00     0.184 A 
ATOM      9  N   UNN dAMED       1.050   0.156   0.044  0.00  0.00    -0.274 N 
ATOM     10  C   UNN dAMED       1.867  -0.939  -0.044  0.00  0.00     0.128 A 
ATOM     11  N   UNN dAMED      -0.960   1.455  -0.089  0.00  0.00    -0.213 NA
ATOM     12  C   UNN dAMED       1.861   1.210   0.402  0.00  0.00     0.126 A 
ATOM     13  N   UNN dAMED       3.127  -0.678   0.216  0.00  0.00    -0.208 NA
ATOM     14  C   UNN dAMED       3.118   0.659   0.492  0.00  0.00     0.227 A 
ATOM     15  C   UNN dAMED       1.370  -2.313  -0.383  0.00  0.00     0.072 C 
ENDROOT
BRANCH   4  16
ATOM     16  N   UNN dAMED      -1.138  -2.140  -0.706  0.00  0.00    -0.099 N 
ATOM     17  O   UNN dAMED      -1.027  -2.545  -1.867  0.00  0.00    -0.531 OA
ATOM     18  O   UNN dAMED      -1.190  -2.827   0.320  0.00  0.00    -0.531 OA
ENDBRANCH   4  16
BRANCH  14  19
ATOM     19  N   UNN dAMED       4.330   1.320   0.823  0.00  0.00    -0.093 N 
ATOM     20  O   UNN dAMED       4.322   2.556   0.797  0.00  0.00    -0.530 OA
ATOM     21  O   UNN dAMED       5.297   0.605   1.113  0.00  0.00    -0.530 OA
ENDBRANCH  14  19
TORSDOF 2
