REMARK  6 active torsions:
REMARK  status: ('A' for Active; 'I' for Inactive)
REMARK    1  A    between atoms: N_1  and  P_2 
REMARK    2  A    between atoms: P_2  and  N_6 
REMARK    3  A    between atoms: P_2  and  O_4 
REMARK    4  A    between atoms: O_4  and  C_11 
REMARK    5  A    between atoms: C_8  and  C_19 
REMARK    6  A    between atoms: C_10  and  C_17 
ROOT
ATOM      1  P   UNN dAMED       0.480  -0.949  -1.611  0.00  0.00     0.355 P 
ATOM      2  O   UNN dAMED      -0.052  -2.172  -2.316  0.00  0.00    -0.254 OA
ENDROOT
BRANCH   1   3
ATOM      3  N   UNN dAMED      -0.025   0.501  -2.246  0.00  0.00    -0.197 NA
ATOM      4  C   UNN dAMED      -1.443   0.804  -2.284  0.00  0.00     0.098 A 
ATOM      5  C   UNN dAMED      -0.484   1.551  -1.355  0.00  0.00     0.083 A 
BRANCH   5   6
ATOM      6  C   UNN dAMED      -0.122   3.009  -1.653  0.00  0.00     0.018 C 
ATOM      7  C   UNN dAMED       0.026   3.479  -3.103  0.00  0.00     0.002 C 
ENDBRANCH   5   6
ENDBRANCH   1   3
BRANCH   1   8
ATOM      8  N   UNN dAMED       2.137  -0.848  -1.565  0.00  0.00    -0.197 NA
ATOM      9  C   UNN dAMED       2.840  -1.163  -0.336  0.00  0.00     0.098 A 
ATOM     10  C   UNN dAMED       2.933  -2.062  -1.571  0.00  0.00     0.083 A 
BRANCH  10  11
ATOM     11  C   UNN dAMED       4.235  -2.110  -2.376  0.00  0.00     0.018 C 
ATOM     12  C   UNN dAMED       5.058  -3.401  -2.421  0.00  0.00     0.002 C 
ENDBRANCH  10  11
ENDBRANCH   1   8
BRANCH   1  13
ATOM     13  O   UNN dAMED       0.035  -0.945  -0.040  0.00  0.00    -0.267 OA
BRANCH  13  14
ATOM     14  C   UNN dAMED      -1.272  -0.734   0.299  0.00  0.00     0.103 A 
ATOM     15  C   UNN dAMED      -1.654   0.527   0.749  0.00  0.00     0.026 A 
ATOM     16  C   UNN dAMED      -2.979   0.750   1.111  0.00  0.00     0.013 A 
ATOM     17  C   UNN dAMED      -3.898  -0.293   1.032  0.00  0.00     0.058 A 
ATOM     18 CL   UNN dAMED      -5.534  -0.010   1.466  0.00  0.00    -0.082 Cl
ATOM     19  C   UNN dAMED      -3.507  -1.560   0.604  0.00  0.00     0.013 A 
ATOM     20  C   UNN dAMED      -2.182  -1.785   0.242  0.00  0.00     0.026 A 
ENDBRANCH  13  14
ENDBRANCH   1  13
TORSDOF 6
