REMARK  1 active torsions:
REMARK  status: ('A' for Active; 'I' for Inactive)
REMARK       I    between atoms: N_1  and  C_16 
REMARK    1  A    between atoms: C_16  and  C_18 
ROOT
ATOM      1  N   UNN dAMED       1.255   0.265  -0.348  0.00  0.00    -0.288 N 
ATOM      2  N   UNN dAMED      -0.406  -2.038  -0.054  0.00  0.00    -0.322 N 
ATOM      3  H   UNN dAMED      -1.020  -2.848  -0.066  0.00  0.00     0.169 HD
ATOM      4  O   UNN dAMED       1.547  -3.276   0.023  0.00  0.00    -0.270 OA
ATOM      5  C   UNN dAMED      -0.696   1.680  -0.131  0.00  0.00     0.014 A 
ATOM      6  C   UNN dAMED      -2.077   1.820  -0.043  0.00  0.00    -0.024 A 
ATOM      7  C   UNN dAMED      -0.124   0.405  -0.142  0.00  0.00     0.078 A 
ATOM      8  C   UNN dAMED      -0.941  -0.735  -0.048  0.00  0.00     0.074 A 
ATOM      9  C   UNN dAMED      -2.891   0.690   0.021  0.00  0.00    -0.024 A 
ATOM     10  C   UNN dAMED      -2.326  -0.586   0.024  0.00  0.00     0.014 A 
ATOM     11  C   UNN dAMED       1.737  -0.945   0.224  0.00  0.00     0.197 C 
ATOM     12  C   UNN dAMED       0.957  -2.204  -0.006  0.00  0.00     0.257 C 
ATOM     13  C   UNN dAMED      -2.692   3.189  -0.012  0.00  0.00     0.031 C 
ATOM     14  C   UNN dAMED      -4.386   0.845   0.083  0.00  0.00     0.031 C 
ATOM     15  C   UNN dAMED       2.192   1.254  -0.213  0.00  0.00     0.254 C 
ATOM     16  O   UNN dAMED       2.546   1.735   0.857  0.00  0.00    -0.271 OA
ENDROOT
BRANCH  15  17
ATOM     17  C   UNN dAMED       2.964   1.643  -1.447  0.00  0.00     0.183 C 
ATOM     18 CL   UNN dAMED       2.406   2.952  -2.472  0.00  0.00    -0.103 Cl
ENDBRANCH  15  17
TORSDOF 1
