REMARK  0 active torsions:
REMARK  status: ('A' for Active; 'I' for Inactive)
ROOT
ATOM      1 CL   UNN dAMED      -3.203   1.514  -0.542  0.00  0.00    -0.081 Cl
ATOM      2 CL   UNN dAMED      -3.069  -1.613   0.006  0.00  0.00    -0.081 Cl
ATOM      3  C   UNN dAMED      -1.677   0.726  -0.272  0.00  0.00     0.081 A 
ATOM      4  C   UNN dAMED      -1.614  -0.660  -0.029  0.00  0.00     0.081 A 
ATOM      5  C   UNN dAMED      -0.373  -1.295   0.189  0.00  0.00     0.087 A 
ATOM      6  C   UNN dAMED      -0.498   1.487  -0.299  0.00  0.00     0.089 A 
ATOM      7 CL   UNN dAMED      -0.417   3.175  -0.581  0.00  0.00    -0.080 Cl
ATOM      8 CL   UNN dAMED      -0.200  -2.983   0.494  0.00  0.00    -0.080 Cl
ATOM      9  C   UNN dAMED       0.742   0.869  -0.084  0.00  0.00     0.127 A 
ATOM     10  C   UNN dAMED       0.771  -0.498   0.153  0.00  0.00     0.101 A 
ATOM     11  H   UNN dAMED       2.561  -1.650   0.508  0.00  0.00     0.184 HD
ATOM     12  N   UNN dAMED       2.025   1.352  -0.054  0.00  0.00    -0.156 NA
ATOM     13  N   UNN dAMED       2.103  -0.766   0.316  0.00  0.00    -0.278 N 
ATOM     14  N   UNN dAMED       2.848   0.341   0.192  0.00  0.00     0.003 NA
ENDROOT
TORSDOF 0
