REMARK  2 active torsions:
REMARK  status: ('A' for Active; 'I' for Inactive)
REMARK    1  A    between atoms: C_7  and  N_14 
REMARK    2  A    between atoms: C_11  and  N_17 
REMARK       I    between atoms: N_14  and  C_15 
REMARK       I    between atoms: C_15  and  N_17 
ROOT
ATOM      1  N   UNN dAMED      -0.900   0.217   1.198  0.00  0.00    -0.189 NA
ATOM      2  C   UNN dAMED       0.258   0.175   0.493  0.00  0.00     0.370 C 
ATOM      3  O   UNN dAMED       0.390  -0.162  -0.682  0.00  0.00    -0.242 OA
ATOM      4  N   UNN dAMED       1.277   0.601   1.272  0.00  0.00    -0.170 NA
ENDROOT
BRANCH   1   5
ATOM      5  C   UNN dAMED      -2.017   0.080   0.451  0.00  0.00     0.116 A 
ATOM      6  C   UNN dAMED      -2.503  -1.173   0.041  0.00  0.00     0.158 A 
ATOM      7  F   UNN dAMED      -1.812  -2.285   0.339  0.00  0.00    -0.203 F 
ATOM      8  C   UNN dAMED      -3.684  -1.310  -0.689  0.00  0.00     0.034 A 
ATOM      9  C   UNN dAMED      -4.423  -0.183  -1.023  0.00  0.00     0.032 A 
ATOM     10  C   UNN dAMED      -3.967   1.065  -0.618  0.00  0.00     0.142 A 
ATOM     11  F   UNN dAMED      -4.671   2.158  -0.939  0.00  0.00    -0.204 F 
ATOM     12  C   UNN dAMED      -2.786   1.200   0.112  0.00  0.00     0.051 A 
ENDBRANCH   1   5
BRANCH   4  13
ATOM     13  C   UNN dAMED       2.083  -0.444   1.664  0.00  0.00     0.195 A 
ATOM     14  N   UNN dAMED       1.919  -1.041   2.854  0.00  0.00    -0.107 NA
ATOM     15  O   UNN dAMED       2.878  -2.045   2.896  0.00  0.00    -0.214 OA
ATOM     16  C   UNN dAMED       3.612  -1.993   1.762  0.00  0.00     0.106 A 
ATOM     17  C   UNN dAMED       3.166  -0.998   0.937  0.00  0.00     0.064 A 
ATOM     18  C   UNN dAMED       4.690  -2.974   1.417  0.00  0.00     0.061 C 
ENDBRANCH   4  13
TORSDOF 2
