REMARK  1 active torsions:
REMARK  status: ('A' for Active; 'I' for Inactive)
REMARK    1  A    between atoms: N_6  and  C_12 
ROOT
ATOM      1  N   UNN dAMED      -2.594   0.392   0.268  0.00  0.00    -0.213 NA
ATOM      2  S   UNN dAMED      -2.952  -2.321   0.172  0.00  0.00    -0.056 SA
ATOM      3  N   UNN dAMED      -0.461   1.440  -0.107  0.00  0.00    -0.326 N 
ATOM      4  H   UNN dAMED       0.119   2.269  -0.193  0.00  0.00     0.168 HD
ATOM      5  N   UNN dAMED       0.123  -2.021  -0.423  0.00  0.00    -0.226 NA
ATOM      6  N   UNN dAMED       1.303  -0.141  -0.618  0.00  0.00    -0.201 NA
ATOM      7  C   UNN dAMED      -2.107  -0.890   0.084  0.00  0.00     0.157 A 
ATOM      8  C   UNN dAMED      -0.694  -0.934  -0.216  0.00  0.00     0.137 A 
ATOM      9  C   UNN dAMED       0.041   0.217  -0.299  0.00  0.00     0.123 A 
ATOM     10  C   UNN dAMED       1.332  -1.512  -0.597  0.00  0.00     0.154 A 
ATOM     11  C   UNN dAMED      -1.898   1.450   0.191  0.00  0.00     0.177 A 
ENDROOT
BRANCH   6  12
ATOM     12  C   UNN dAMED       2.181   0.344   0.391  0.00  0.00     0.069 C 
ATOM     13  C   UNN dAMED       1.604   1.006   1.646  0.00  0.00     0.018 C 
ATOM     14  C   UNN dAMED       3.670  -0.013   0.337  0.00  0.00     0.018 C 
ENDBRANCH   6  12
TORSDOF 1
