REMARK  3 active torsions:
REMARK  status: ('A' for Active; 'I' for Inactive)
REMARK    1  A    between atoms: C_7  and  S_19 
REMARK    2  A    between atoms: C_12  and  C_25 
REMARK    3  A    between atoms: C_15  and  C_25 
ROOT
ATOM      1 CL   UNN dAMED      -4.430   2.311   0.799  0.00  0.00    -0.082 Cl
ATOM      2  N   UNN dAMED       0.552   1.337   0.653  0.00  0.00    -0.343 N 
ATOM      3  H   UNN dAMED       0.580   2.175   1.228  0.00  0.00     0.167 HD
ATOM      4  N   UNN dAMED       1.632  -0.532  -0.578  0.00  0.00    -0.268 N 
ATOM      5  H   UNN dAMED       1.909  -0.383  -1.558  0.00  0.00     0.180 HD
ATOM      6  C   UNN dAMED      -2.280  -0.937  -0.224  0.00  0.00     0.028 A 
ATOM      7  C   UNN dAMED      -3.349  -0.082   0.016  0.00  0.00     0.118 A 
ATOM      8  C   UNN dAMED      -0.985  -0.485   0.028  0.00  0.00     0.120 A 
ATOM      9  C   UNN dAMED      -0.743   0.803   0.521  0.00  0.00     0.071 A 
ATOM     10  C   UNN dAMED      -3.147   1.206   0.500  0.00  0.00     0.071 A 
ATOM     11  C   UNN dAMED      -1.844   1.641   0.739  0.00  0.00     0.030 A 
ATOM     12  C   UNN dAMED       1.751   0.575   0.351  0.00  0.00     0.103 C 
ATOM     13  S   UNN dAMED       0.323  -1.609  -0.345  0.00  0.00     0.267 S 
ATOM     14  O   UNN dAMED       0.551  -2.387   0.856  0.00  0.00    -0.200 OA
ATOM     15  O   UNN dAMED       0.009  -2.232  -1.615  0.00  0.00    -0.200 OA
ENDROOT
BRANCH  12  16
ATOM     16  C   UNN dAMED       3.106   1.280   0.474  0.00  0.00     0.062 C 
BRANCH  16  17
ATOM     17  C   UNN dAMED       4.305   0.567   1.108  0.00  0.00     0.007 A 
ATOM     18  C   UNN dAMED       5.676   1.234   1.235  0.00  0.00     0.000 A 
ATOM     19  C   UNN dAMED       6.447   0.491   2.331  0.00  0.00     0.000 A 
ATOM     20  C   UNN dAMED       5.510  -0.559   2.943  0.00  0.00     0.000 A 
ATOM     21  C   UNN dAMED       4.156  -0.461   2.231  0.00  0.00     0.000 A 
ENDBRANCH  16  17
ENDBRANCH  12  16
BRANCH   7  22
ATOM     22  S   UNN dAMED      -4.967  -0.671  -0.350  0.00  0.00     0.303 S 
ATOM     23  N   UNN dAMED      -6.085   0.573  -0.004  0.00  0.00    -0.043 N 
ATOM     24  O   UNN dAMED      -4.974  -0.908  -1.782  0.00  0.00    -0.197 OA
ATOM     25  O   UNN dAMED      -5.197  -1.766   0.574  0.00  0.00    -0.197 OA
ENDBRANCH   7  22
TORSDOF 3
