REMARK  4 active torsions:
REMARK  status: ('A' for Active; 'I' for Inactive)
REMARK       I    between atoms: N_1  and  C_17 
REMARK    1  A    between atoms: N_2  and  C_22 
REMARK    2  A    between atoms: C_7  and  C_22 
REMARK    3  A    between atoms: C_17  and  O_19 
REMARK    4  A    between atoms: O_19  and  C_20 
ROOT
ATOM      1  C   UNN dAMED       0.635   0.994   2.810  0.00  0.00     0.280 C 
ENDROOT
BRANCH   1   2
ATOM      2  N   UNN dAMED      -0.760   1.948   2.839  0.00  0.00     0.144 N 
ATOM      3  C   UNN dAMED       0.659   1.025   2.795  0.00  0.00     0.268 C 
ATOM      4  C   UNN dAMED       1.070   0.282   4.077  0.00  0.00     0.117 C 
ATOM      5  N   UNN dAMED       0.285  -0.927   4.506  0.00  0.00    -0.195 NA
ATOM      6  C   UNN dAMED       1.149   0.177   3.993  0.00  0.00     0.117 C 
ATOM      7  C   UNN dAMED       0.923  -1.458   5.592  0.00  0.00     0.343 C 
ATOM      8  C   UNN dAMED       0.676   1.008   2.798  0.00  0.00     0.268 C 
ATOM      9  O   UNN dAMED       1.501  -2.539   5.621  0.00  0.00    -0.245 OA
BRANCH   7  10
ATOM     10  O   UNN dAMED       0.824  -0.641   6.672  0.00  0.00    -0.289 OA
BRANCH  10  11
ATOM     11  C   UNN dAMED      -0.494  -0.180   6.657  0.00  0.00     0.153 C 
ATOM     12  C   UNN dAMED      -1.656  -1.177   6.711  0.00  0.00     0.035 C 
ENDBRANCH  10  11
ENDBRANCH   7  10
ENDBRANCH   1   2
BRANCH   1  13
ATOM     13  C   UNN dAMED       1.168   0.475   1.489  0.00  0.00     0.050 A 
ATOM     14  C   UNN dAMED       0.358  -0.252   0.590  0.00  0.00     0.194 A 
ATOM     15  C   UNN dAMED       0.992  -0.606  -0.615  0.00  0.00     0.042 A 
ATOM     16  O   UNN dAMED      -0.856  -0.567   0.833  0.00  0.00    -0.287 OA
ATOM     17  C   UNN dAMED       2.318  -0.292  -0.928  0.00  0.00     0.003 A 
ATOM     18  C   UNN dAMED       3.088   0.399  -0.008  0.00  0.00    -0.000 A 
ATOM     19  C   UNN dAMED       2.502   0.781   1.213  0.00  0.00     0.001 A 
ATOM     20  C   UNN dAMED       4.422   0.710  -0.261  0.00  0.00    -0.000 A 
ATOM     21  C   UNN dAMED       3.253   1.465   2.162  0.00  0.00    -0.000 A 
ATOM     22  C   UNN dAMED       4.586   1.766   1.905  0.00  0.00    -0.000 A 
ATOM     23  C   UNN dAMED       5.172   1.392   0.696  0.00  0.00    -0.000 A 
ENDBRANCH   1  13
TORSDOF 4
