REMARK  2 active torsions:
REMARK  status: ('A' for Active; 'I' for Inactive)
REMARK    1  A    between atoms: C_4  and  N_8 
REMARK       I    between atoms: N_8  and  C_9 
REMARK       I    between atoms: C_9  and  N_11 
REMARK    2  A    between atoms: N_11  and  C_12 
ROOT
ATOM      1 CL   UNN dAMED      -3.346   2.263   0.096  0.00  0.00    -0.082 Cl
ATOM      2  C   UNN dAMED      -1.802  -1.945  -0.032  0.00  0.00     0.019 A 
ATOM      3  C   UNN dAMED      -3.173  -1.705  -0.132  0.00  0.00     0.002 A 
ATOM      4  C   UNN dAMED      -0.880  -0.893   0.071  0.00  0.00     0.087 A 
ATOM      5  C   UNN dAMED      -1.387   0.413   0.103  0.00  0.00     0.031 A 
ATOM      6  C   UNN dAMED      -3.654  -0.400  -0.098  0.00  0.00     0.011 A 
ATOM      7  C   UNN dAMED      -2.757   0.654   0.015  0.00  0.00     0.059 A 
ENDROOT
BRANCH   4   8
ATOM      8  N   UNN dAMED       0.439  -1.122   0.237  0.00  0.00    -0.191 NA
ATOM      9  C   UNN dAMED       1.105  -1.450  -0.891  0.00  0.00     0.368 C 
ATOM     10  O   UNN dAMED       0.690  -1.385  -2.046  0.00  0.00    -0.243 OA
ATOM     11  N   UNN dAMED       2.344  -1.856  -0.575  0.00  0.00    -0.200 NA
BRANCH  11  12
ATOM     12  C   UNN dAMED       2.841  -1.675   0.779  0.00  0.00     0.042 C 
ATOM     13  C   UNN dAMED       2.518  -0.386   1.542  0.00  0.00     0.048 C 
ATOM     14  C   UNN dAMED       3.957  -2.588   1.297  0.00  0.00     0.048 C 
ENDBRANCH  11  12
ENDBRANCH   4   8
TORSDOF 2
