REMARK  6 active torsions:
REMARK  status: ('A' for Active; 'I' for Inactive)
REMARK    1  A    between atoms: C_12  and  C_13 
REMARK    2  A    between atoms: C_12  and  O_17 
REMARK    3  A    between atoms: C_13  and  C_14 
REMARK    4  A    between atoms: C_14  and  O_15 
REMARK    5  A    between atoms: O_15  and  C_16 
REMARK    6  A    between atoms: O_17  and  C_18 
ROOT
ATOM      1  C   UNN dAMED       2.628  -1.154   1.709  0.00  0.00     0.065 C 
ENDROOT
BRANCH   1   2
ATOM      2  C   UNN dAMED       2.675  -1.982   0.421  0.00  0.00     0.151 C 
BRANCH   2   3
ATOM      3  O   UNN dAMED       2.901  -1.354  -0.800  0.00  0.00    -0.329 OA
BRANCH   3   4
ATOM      4  C   UNN dAMED       3.788  -0.283  -0.877  0.00  0.00     0.117 C 
ATOM      5  C   UNN dAMED       4.728  -0.133   0.048  0.00  0.00     0.068 A 
ATOM      6  C   UNN dAMED       5.655   1.023  -0.034  0.00  0.00     0.294 A 
ATOM      7  C   UNN dAMED       5.066  -0.914   1.244  0.00  0.00     0.067 A 
ATOM      8  O   UNN dAMED       6.532   1.002   1.025  0.00  0.00    -0.298 OA
ATOM      9  O   UNN dAMED       5.630   1.866  -0.915  0.00  0.00    -0.259 OA
ATOM     10  C   UNN dAMED       6.219  -0.130   1.802  0.00  0.00     0.157 A 
ENDBRANCH   3   4
ENDBRANCH   2   3
ENDBRANCH   1   2
BRANCH   1  11
ATOM     11  C   UNN dAMED       1.300  -0.949   2.443  0.00  0.00     0.151 C 
BRANCH  11  12
ATOM     12  O   UNN dAMED       0.227  -0.371   1.785  0.00  0.00    -0.329 OA
BRANCH  12  13
ATOM     13  C   UNN dAMED      -0.988  -0.868   1.340  0.00  0.00     0.117 C 
ATOM     14  C   UNN dAMED      -1.046  -2.074   0.789  0.00  0.00     0.068 A 
ATOM     15  C   UNN dAMED      -2.356  -2.613   0.348  0.00  0.00     0.294 A 
ATOM     16  C   UNN dAMED      -0.013  -3.080   0.510  0.00  0.00     0.067 A 
ATOM     17  O   UNN dAMED      -3.415  -2.017   0.450  0.00  0.00    -0.259 OA
ATOM     18  O   UNN dAMED      -2.196  -3.872  -0.182  0.00  0.00    -0.298 OA
ATOM     19  C   UNN dAMED      -0.825  -4.183  -0.106  0.00  0.00     0.157 A 
ENDBRANCH  12  13
ENDBRANCH  11  12
ENDBRANCH   1  11
TORSDOF 6
