REMARK  2 active torsions:
REMARK  status: ('A' for Active; 'I' for Inactive)
REMARK    1  A    between atoms: C_13  and  C_17 
REMARK    2  A    between atoms: C_14  and  O_18 
ROOT
ATOM      1  C   UNN dAMED      -1.549  -0.310  -1.491  0.00  0.00     0.192 A 
ATOM      2  C   UNN dAMED      -0.317  -0.367  -0.642  0.00  0.00     0.021 A 
ATOM      3  C   UNN dAMED      -0.721  -0.122   0.778  0.00  0.00     0.056 A 
ATOM      4  C   UNN dAMED      -2.200   0.068   0.731  0.00  0.00    -0.015 A 
ATOM      5  C   UNN dAMED      -2.673  -0.043  -0.580  0.00  0.00     0.035 A 
ATOM      6  O   UNN dAMED      -1.600  -0.452  -2.694  0.00  0.00    -0.287 OA
ATOM      7  C   UNN dAMED      -4.009   0.083  -0.900  0.00  0.00     0.003 A 
ATOM      8  C   UNN dAMED      -4.888   0.330   0.155  0.00  0.00     0.000 A 
ATOM      9  C   UNN dAMED      -4.421   0.445   1.476  0.00  0.00    -0.000 A 
ATOM     10  C   UNN dAMED      -3.064   0.313   1.778  0.00  0.00    -0.004 A 
ATOM     11  C   UNN dAMED       0.861  -0.602  -1.214  0.00  0.00     0.001 C 
ENDROOT
BRANCH  11  12
ATOM     12  C   UNN dAMED       2.134  -0.612  -0.407  0.00  0.00     0.022 A 
ATOM     13  C   UNN dAMED       2.510  -1.743   0.314  0.00  0.00     0.002 A 
ATOM     14  C   UNN dAMED       3.712  -1.751   1.020  0.00  0.00     0.000 A 
ATOM     15  C   UNN dAMED       4.546  -0.633   0.998  0.00  0.00     0.002 A 
ATOM     16  C   UNN dAMED       4.179   0.498   0.273  0.00  0.00     0.024 A 
ATOM     17  C   UNN dAMED       2.977   0.494  -0.422  0.00  0.00     0.094 A 
BRANCH  17  18
ATOM     18  O   UNN dAMED       2.610   1.598  -1.131  0.00  0.00    -0.328 OA
ATOM     19  C   UNN dAMED       1.349   1.292  -1.649  0.00  0.00     0.181 C 
ENDBRANCH  17  18
ENDBRANCH  11  12
TORSDOF 2
