REMARK  2 active torsions:
REMARK  status: ('A' for Active; 'I' for Inactive)
REMARK    1  A    between atoms: C_3  and  N_15 
REMARK    2  A    between atoms: C_8  and  C_13 
ROOT
ATOM      1  C   UNN dAMED      -0.395  -0.256   1.229  0.00  0.00     0.153 C 
ATOM      2  S   UNN dAMED       0.987   0.681   0.961  0.00  0.00    -0.056 SA
ATOM      3  N   UNN dAMED      -0.479  -1.353   1.992  0.00  0.00    -0.233 NA
ENDROOT
BRANCH   1   4
ATOM      4  C   UNN dAMED      -1.641   0.052   0.496  0.00  0.00     0.109 A 
ATOM      5  N   UNN dAMED      -2.557   0.768   1.188  0.00  0.00    -0.242 NA
ATOM      6  C   UNN dAMED      -3.703   1.050   0.532  0.00  0.00     0.099 A 
ATOM      7  C   UNN dAMED      -3.968   0.661  -0.771  0.00  0.00     0.021 A 
ATOM      8  C   UNN dAMED      -2.993  -0.067  -1.445  0.00  0.00     0.003 A 
ATOM      9  C   UNN dAMED      -1.801  -0.391  -0.810  0.00  0.00     0.021 A 
ENDBRANCH   1   4
BRANCH   3  10
ATOM     10  C   UNN dAMED      -0.353  -1.146   3.326  0.00  0.00     0.082 A 
ATOM     11  C   UNN dAMED      -0.937  -0.068   4.011  0.00  0.00     0.019 A 
ATOM     12  C   UNN dAMED      -0.770   0.115   5.382  0.00  0.00     0.002 A 
ATOM     13  C   UNN dAMED      -0.041  -0.811   6.117  0.00  0.00     0.000 A 
ATOM     14  C   UNN dAMED       0.516  -1.912   5.477  0.00  0.00     0.002 A 
ATOM     15  C   UNN dAMED       0.361  -2.069   4.100  0.00  0.00     0.019 A 
ENDBRANCH   3  10
TORSDOF 2
