REMARK  4 active torsions:
REMARK  status: ('A' for Active; 'I' for Inactive)
REMARK    1  A    between atoms: O_1  and  C_7 
REMARK    2  A    between atoms: O_1  and  C_23 
REMARK    3  A    between atoms: C_16  and  N_22 
REMARK    4  A    between atoms: C_19  and  S_20 
REMARK       I    between atoms: N_22  and  C_23 
ROOT
ATOM      1  C   UNN dAMED      -2.854   2.042  -2.852  0.00  0.00     0.000 C 
ATOM      2  C   UNN dAMED      -3.079   0.802  -1.972  0.00  0.00     0.003 C 
ATOM      3  C   UNN dAMED      -3.448   2.018  -4.262  0.00  0.00     0.000 C 
ATOM      4  C   UNN dAMED      -4.808   1.339  -4.360  0.00  0.00     0.000 C 
ATOM      5  C   UNN dAMED      -2.553   0.750  -0.532  0.00  0.00     0.030 C 
ATOM      6  C   UNN dAMED      -1.042   0.768  -0.305  0.00  0.00     0.126 C 
ATOM      7  C   UNN dAMED      -0.272   1.796  -1.131  0.00  0.00     0.030 C 
ATOM      8  C   UNN dAMED      -5.147   0.463  -3.158  0.00  0.00     0.000 C 
ATOM      9  C   UNN dAMED      -0.701   1.904  -2.594  0.00  0.00     0.003 C 
ATOM     10  C   UNN dAMED      -2.145   1.493  -2.911  0.00  0.00     0.000 C 
ATOM     11  C   UNN dAMED      -2.557   0.029  -2.671  0.00  0.00     0.000 C 
ATOM     12  C   UNN dAMED      -4.029  -0.413  -2.580  0.00  0.00     0.000 C 
ENDROOT
BRANCH   6  13
ATOM     13  O   UNN dAMED      -0.416  -0.406   0.121  0.00  0.00    -0.286 OA
BRANCH  13  14
ATOM     14  C   UNN dAMED       0.632  -0.597  -0.729  0.00  0.00     0.388 C 
ATOM     15  N   UNN dAMED       0.474   0.130  -1.836  0.00  0.00    -0.186 NA
ATOM     16  O   UNN dAMED       1.574  -1.319  -0.413  0.00  0.00    -0.236 OA
BRANCH  15  17
ATOM     17  C   UNN dAMED       0.778  -0.555  -2.958  0.00  0.00     0.087 A 
ATOM     18  C   UNN dAMED       2.036  -0.422  -3.560  0.00  0.00     0.019 A 
ATOM     19  C   UNN dAMED       2.355  -1.092  -4.739  0.00  0.00     0.002 A 
ATOM     20  C   UNN dAMED       1.404  -1.901  -5.351  0.00  0.00     0.006 A 
ATOM     21  C   UNN dAMED       0.140  -2.041  -4.784  0.00  0.00     0.027 A 
ATOM     22  C   UNN dAMED      -0.167  -1.365  -3.602  0.00  0.00     0.025 A 
BRANCH  21  23
ATOM     23  S   UNN dAMED      -1.075  -3.066  -5.564  0.00  0.00    -0.113 SA
ATOM     24  C   UNN dAMED      -2.452  -2.421  -4.620  0.00  0.00     0.074 C 
ENDBRANCH  21  23
ENDBRANCH  15  17
ENDBRANCH  13  14
ENDBRANCH   6  13
TORSDOF 4
