REMARK  0 active torsions:
REMARK  status: ('A' for Active; 'I' for Inactive)
ROOT
ATOM      1  C   UNN dAMED      -0.103  -1.859   1.774  0.00  0.00    -0.059 C 
ATOM      2  N   UNN dAMED      -0.636  -0.236   0.081  0.00  0.00    -0.362 N 
ATOM      3  C   UNN dAMED       0.277  -0.593   1.155  0.00  0.00     0.115 C 
ATOM      4  C   UNN dAMED       1.704  -0.706   0.583  0.00  0.00     0.033 C 
ATOM      5  C   UNN dAMED       2.778   0.277   1.063  0.00  0.00     0.003 C 
ATOM      6  C   UNN dAMED       0.267   0.521   2.216  0.00  0.00     0.033 C 
ATOM      7  C   UNN dAMED       2.330   1.723   1.260  0.00  0.00     0.000 C 
ATOM      8  C   UNN dAMED       0.944   1.853   1.879  0.00  0.00     0.003 C 
ATOM      9  C   UNN dAMED      -1.663  -1.193  -0.331  0.00  0.00     0.098 C 
ATOM     10  C   UNN dAMED      -2.485  -0.905  -1.592  0.00  0.00     0.024 C 
ATOM     11  C   UNN dAMED      -3.013   0.518  -1.694  0.00  0.00     0.004 C 
ATOM     12  C   UNN dAMED      -2.018   1.546  -1.175  0.00  0.00     0.024 C 
ATOM     13  C   UNN dAMED      -1.230   1.102   0.063  0.00  0.00     0.098 C 
ATOM     14  C   UNN dAMED      -0.409  -2.900   2.288  0.00  0.00    -0.012 C 
ENDROOT
TORSDOF 0
