REMARK  4 active torsions:
REMARK  status: ('A' for Active; 'I' for Inactive)
REMARK    1  A    between atoms: C_1  and  C_8 
REMARK    2  A    between atoms: C_2  and  C_21 
REMARK    3  A    between atoms: C_11  and  C_21 
REMARK    4  A    between atoms: C_17  and  C_21 
ROOT
ATOM      1  C   UNN dAMED       0.975  -0.135   0.913  0.00  0.00     0.217 C 
ATOM      2  O   UNN dAMED       1.475   0.969   1.443  0.00  0.00    -0.203 OA
ENDROOT
BRANCH   1   3
ATOM      3  C   UNN dAMED      -0.451   0.162   0.607  0.00  0.00    -0.049 C 
ATOM      4  C   UNN dAMED      -1.603   0.411   0.365  0.00  0.00    -0.061 C 
BRANCH   4   5
ATOM      5  C   UNN dAMED      -2.966   0.722   0.087  0.00  0.00     0.042 A 
ATOM      6  C   UNN dAMED      -3.557   0.268  -1.090  0.00  0.00     0.008 A 
ATOM      7  C   UNN dAMED      -4.884   0.589  -1.369  0.00  0.00     0.001 A 
ATOM      8  C   UNN dAMED      -5.617   1.365  -0.474  0.00  0.00     0.000 A 
ATOM      9  C   UNN dAMED      -5.025   1.818   0.703  0.00  0.00     0.001 A 
ATOM     10  C   UNN dAMED      -3.699   1.497   0.984  0.00  0.00     0.008 A 
ENDBRANCH   4   5
ENDBRANCH   1   3
BRANCH   1  11
ATOM     11  C   UNN dAMED       1.124  -1.241   1.968  0.00  0.00     0.020 A 
ATOM     12  C   UNN dAMED       0.036  -1.666   2.746  0.00  0.00    -0.001 A 
ATOM     13  C   UNN dAMED       0.180  -2.656   3.716  0.00  0.00    -0.000 A 
ATOM     14  C   UNN dAMED       1.423  -3.241   3.930  0.00  0.00    -0.000 A 
ATOM     15  C   UNN dAMED       2.519  -2.839   3.174  0.00  0.00    -0.000 A 
ATOM     16  C   UNN dAMED       2.369  -1.849   2.204  0.00  0.00    -0.001 A 
ENDBRANCH   1  11
BRANCH   1  17
ATOM     17  C   UNN dAMED       1.695  -0.495  -0.397  0.00  0.00     0.020 A 
ATOM     18  C   UNN dAMED       1.265  -1.608  -1.139  0.00  0.00    -0.001 A 
ATOM     19  C   UNN dAMED       1.890  -1.970  -2.332  0.00  0.00    -0.000 A 
ATOM     20  C   UNN dAMED       2.964  -1.224  -2.807  0.00  0.00    -0.000 A 
ATOM     21  C   UNN dAMED       3.412  -0.120  -2.090  0.00  0.00    -0.000 A 
ATOM     22  C   UNN dAMED       2.783   0.236  -0.899  0.00  0.00    -0.001 A 
ENDBRANCH   1  17
TORSDOF 4
