REMARK  2 active torsions:
REMARK  status: ('A' for Active; 'I' for Inactive)
REMARK    1  A    between atoms: C_7  and  C_18 
REMARK    2  A    between atoms: C_11  and  C_18 
ROOT
ATOM      1  N   UNN dAMED      -2.481  -1.094   0.781  0.00  0.00    -0.234 NA
ATOM      2  C   UNN dAMED      -3.447   1.069  -0.028  0.00  0.00     0.011 A 
ATOM      3  C   UNN dAMED      -3.075   2.283  -0.608  0.00  0.00     0.001 A 
ATOM      4  C   UNN dAMED      -2.430   0.139   0.202  0.00  0.00     0.040 A 
ATOM      5  C   UNN dAMED      -1.085   0.362  -0.126  0.00  0.00     0.014 A 
ATOM      6  C   UNN dAMED      -1.752   2.551  -0.936  0.00  0.00     0.000 A 
ATOM      7  C   UNN dAMED      -0.352  -0.837   0.193  0.00  0.00     0.046 A 
ATOM      8  C   UNN dAMED      -1.285  -1.712   0.705  0.00  0.00     0.021 A 
ATOM      9  C   UNN dAMED      -0.751   1.602  -0.708  0.00  0.00     0.001 A 
ATOM     10  C   UNN dAMED      -3.483  -1.887   0.159  0.00  0.00     0.099 C 
ATOM     11  C   UNN dAMED      -1.112  -3.201   0.680  0.00  0.00     0.044 C 
ENDROOT
BRANCH   7  12
ATOM     12  C   UNN dAMED       1.044  -1.200   0.015  0.00  0.00     0.196 C 
ATOM     13  O   UNN dAMED       1.505  -2.282   0.370  0.00  0.00    -0.286 OA
BRANCH  12  14
ATOM     14  C   UNN dAMED       1.966  -0.250  -0.609  0.00  0.00     0.039 A 
ATOM     15  C   UNN dAMED       2.425  -0.513  -1.898  0.00  0.00     0.003 A 
ATOM     16  C   UNN dAMED       3.396   0.315  -2.454  0.00  0.00     0.000 A 
ATOM     17  C   UNN dAMED       3.901   1.389  -1.722  0.00  0.00     0.000 A 
ATOM     18  C   UNN dAMED       3.446   1.631  -0.426  0.00  0.00     0.000 A 
ATOM     19  C   UNN dAMED       2.489   0.798   0.146  0.00  0.00     0.003 A 
ENDBRANCH  12  14
ENDBRANCH   7  12
TORSDOF 2
