REMARK  2 active torsions:
REMARK  status: ('A' for Active; 'I' for Inactive)
REMARK    1  A    between atoms: C_1  and  C_19 
REMARK    2  A    between atoms: C_7  and  C_13 
ROOT
ATOM      1  C   UNN dAMED      -0.139   0.840  -2.552  0.00  0.00     0.132 C 
ATOM      2  C   UNN dAMED      -0.294   2.177  -3.110  0.00  0.00     0.079 C 
ATOM      3  N   UNN dAMED      -0.414   3.240  -3.558  0.00  0.00    -0.196 NA
ENDROOT
BRANCH   1   4
ATOM      4  C   UNN dAMED      -1.132   0.274  -1.568  0.00  0.00    -0.007 A 
ATOM      5  C   UNN dAMED      -0.708  -0.037  -0.266  0.00  0.00    -0.008 A 
ATOM      6  C   UNN dAMED       0.664   0.233   0.184  0.00  0.00    -0.008 A 
ATOM      7  C   UNN dAMED      -1.646  -0.619   0.600  0.00  0.00    -0.026 A 
ATOM      8  C   UNN dAMED       1.719   0.410  -0.724  0.00  0.00    -0.007 A 
ATOM      9  C   UNN dAMED       0.966   0.312   1.551  0.00  0.00    -0.026 A 
ATOM     10  C   UNN dAMED       3.016   0.684  -0.283  0.00  0.00    -0.004 A 
ATOM     11  C   UNN dAMED       3.291   0.754   1.078  0.00  0.00    -0.005 A 
ATOM     12  C   UNN dAMED       2.265   0.562   1.995  0.00  0.00    -0.026 A 
ATOM     13  C   UNN dAMED       2.556   0.600   3.468  0.00  0.00     0.031 C 
ATOM     14  C   UNN dAMED      -0.126   0.087   2.558  0.00  0.00     0.031 C 
ATOM     15  C   UNN dAMED      -2.952  -0.885   0.187  0.00  0.00    -0.026 A 
ATOM     16  C   UNN dAMED      -1.242  -0.936   2.012  0.00  0.00     0.031 C 
ATOM     17  C   UNN dAMED      -3.345  -0.586  -1.112  0.00  0.00    -0.005 A 
ATOM     18  C   UNN dAMED      -3.937  -1.477   1.154  0.00  0.00     0.031 C 
ATOM     19  C   UNN dAMED      -2.434  -0.012  -1.990  0.00  0.00    -0.004 A 
BRANCH   8  20
ATOM     20  C   UNN dAMED       1.438   0.360  -2.204  0.00  0.00     0.132 C 
ATOM     21  C   UNN dAMED       1.894  -0.753  -3.026  0.00  0.00     0.079 C 
ATOM     22  N   UNN dAMED       2.250  -1.636  -3.688  0.00  0.00    -0.196 NA
ENDBRANCH   8  20
ENDBRANCH   1   4
TORSDOF 2
