REMARK  4 active torsions:
REMARK  status: ('A' for Active; 'I' for Inactive)
REMARK    1  A    between atoms: C_8  and  S_11 
REMARK    2  A    between atoms: S_11  and  C_12 
REMARK    3  A    between atoms: C_12  and  C_13 
REMARK    4  A    between atoms: C_13  and  C_14 
ROOT
ATOM      1  N   UNN dAMED       0.139  -1.198  -0.052  0.00  0.00    -0.218 NA
ATOM      2  N   UNN dAMED      -2.267  -1.524   0.147  0.00  0.00    -0.205 NA
ATOM      3  H   UNN dAMED      -4.416   0.267   0.310  0.00  0.00     0.191 HD
ATOM      4  N   UNN dAMED      -3.457   0.580   0.234  0.00  0.00    -0.260 N 
ATOM      5  N   UNN dAMED      -3.216   1.903   0.212  0.00  0.00    -0.170 NA
ATOM      6  C   UNN dAMED      -2.331  -0.183   0.146  0.00  0.00     0.162 A 
ATOM      7  C   UNN dAMED      -1.272   0.704   0.056  0.00  0.00     0.080 A 
ATOM      8  C   UNN dAMED       0.003   0.150  -0.044  0.00  0.00     0.113 A 
ATOM      9  C   UNN dAMED      -1.885   1.974   0.103  0.00  0.00     0.125 A 
ATOM     10  C   UNN dAMED      -0.988  -1.942   0.043  0.00  0.00     0.201 A 
ENDROOT
BRANCH   8  11
ATOM     11  S   UNN dAMED       1.417   1.193  -0.143  0.00  0.00    -0.095 SA
BRANCH  11  12
ATOM     12  C   UNN dAMED       2.469  -0.038  -0.903  0.00  0.00     0.064 C 
BRANCH  12  13
ATOM     13  C   UNN dAMED       3.966   0.239  -1.059  0.00  0.00     0.012 C 
BRANCH  13  14
ATOM     14  C   UNN dAMED       4.807   0.572   0.177  0.00  0.00     0.001 C 
ATOM     15  C   UNN dAMED       5.365  -0.558   1.047  0.00  0.00     0.000 C 
ENDBRANCH  13  14
ENDBRANCH  12  13
ENDBRANCH  11  12
ENDBRANCH   8  11
TORSDOF 4
