REMARK  6 active torsions:
REMARK  status: ('A' for Active; 'I' for Inactive)
REMARK    1  A    between atoms: P_2  and  N_10 
REMARK    2  A    between atoms: P_2  and  O_11 
REMARK    3  A    between atoms: P_2  and  O_14 
REMARK    4  A    between atoms: C_4  and  N_10 
REMARK    5  A    between atoms: O_11  and  C_12 
REMARK    6  A    between atoms: O_14  and  C_15 
ROOT
ATOM      1  P   UNN dAMED       1.117  -1.685  -0.742  0.00  0.00     0.460 P 
ATOM      2  O   UNN dAMED       0.215  -2.186  -1.834  0.00  0.00    -0.232 OA
ENDROOT
BRANCH   1   3
ATOM      3  N   UNN dAMED       0.233  -1.189   0.633  0.00  0.00    -0.158 NA
BRANCH   3   4
ATOM      4  C   UNN dAMED      -0.944  -0.623   0.324  0.00  0.00     0.168 A 
ATOM      5  N   UNN dAMED      -2.034  -1.414   0.487  0.00  0.00    -0.225 NA
ATOM      6  C   UNN dAMED      -3.237  -0.889   0.165  0.00  0.00     0.096 A 
ATOM      7  C   UNN dAMED      -3.412   0.398  -0.305  0.00  0.00    -0.003 A 
ATOM      8  C   UNN dAMED      -2.291   1.200  -0.448  0.00  0.00     0.000 A 
ATOM      9  C   UNN dAMED      -4.764   0.877  -0.748  0.00  0.00     0.033 C 
ATOM     10  C   UNN dAMED      -1.039   0.691  -0.123  0.00  0.00     0.039 A 
ENDBRANCH   3   4
ENDBRANCH   1   3
BRANCH   1  11
ATOM     11  O   UNN dAMED       2.061  -0.442  -1.168  0.00  0.00    -0.278 OA
BRANCH  11  12
ATOM     12  C   UNN dAMED       2.226  -0.561  -2.550  0.00  0.00     0.153 C 
ATOM     13  C   UNN dAMED       3.341  -1.446  -3.116  0.00  0.00     0.035 C 
ENDBRANCH  11  12
ENDBRANCH   1  11
BRANCH   1  14
ATOM     14  O   UNN dAMED       2.187  -2.780  -0.222  0.00  0.00    -0.278 OA
BRANCH  14  15
ATOM     15  C   UNN dAMED       3.179  -2.041   0.428  0.00  0.00     0.153 C 
ATOM     16  C   UNN dAMED       4.237  -2.759   1.271  0.00  0.00     0.035 C 
ENDBRANCH  14  15
ENDBRANCH   1  14
TORSDOF 6
