REMARK  6 active torsions:
REMARK  status: ('A' for Active; 'I' for Inactive)
REMARK    1  A    between atoms: C_1  and  N_28 
REMARK    2  A    between atoms: C_3  and  C_24 
REMARK    3  A    between atoms: C_4  and  O_18 
REMARK    4  A    between atoms: C_8  and  O_20 
REMARK    5  A    between atoms: C_11  and  O_22 
REMARK    6  A    between atoms: C_17  and  O_26 
REMARK       I    between atoms: N_28  and  C_29 
ROOT
ATOM      1  C   UNN dAMED       1.897   1.807   0.231  0.00  0.00     0.158 C 
ATOM      2  O   UNN dAMED       4.769  -1.150   1.339  0.00  0.00    -0.284 OA
ATOM      3  C   UNN dAMED      -2.748   1.138  -0.693  0.00  0.00     0.063 A 
ATOM      4  C   UNN dAMED      -3.583   0.035  -0.545  0.00  0.00     0.121 A 
ATOM      5  C   UNN dAMED      -1.397   1.063  -0.319  0.00  0.00    -0.015 A 
ATOM      6  C   UNN dAMED      -0.548   2.262  -0.602  0.00  0.00     0.028 C 
ATOM      7  C   UNN dAMED       0.616   2.625   0.303  0.00  0.00     0.025 C 
ATOM      8  C   UNN dAMED      -3.084  -1.148  -0.036  0.00  0.00     0.139 A 
ATOM      9  C   UNN dAMED      -0.868  -0.127   0.183  0.00  0.00     0.020 A 
ATOM     10  C   UNN dAMED       1.696   0.417   0.719  0.00  0.00    -0.005 C 
ATOM     11  C   UNN dAMED      -1.742  -1.227   0.317  0.00  0.00     0.118 A 
ATOM     12  C   UNN dAMED       0.522  -0.401   0.552  0.00  0.00    -0.001 C 
ATOM     13  C   UNN dAMED       2.677  -0.087   1.476  0.00  0.00     0.041 C 
ATOM     14  C   UNN dAMED       0.682  -1.677   0.920  0.00  0.00     0.002 C 
ATOM     15  C   UNN dAMED       3.585  -1.219   1.041  0.00  0.00     0.217 C 
ATOM     16  C   UNN dAMED       1.719  -2.600   0.264  0.00  0.00     0.028 C 
ATOM     17  C   UNN dAMED       3.033  -2.419   0.389  0.00  0.00     0.133 C 
ENDROOT
BRANCH   1  18
ATOM     18  N   UNN dAMED       2.361   1.742  -1.142  0.00  0.00    -0.245 NA
ATOM     19  C   UNN dAMED       1.846   2.758  -1.824  0.00  0.00     0.252 C 
ATOM     20  O   UNN dAMED       2.405   3.387  -2.713  0.00  0.00    -0.271 OA
ATOM     21  C   UNN dAMED       0.413   3.116  -1.528  0.00  0.00     0.100 C 
ENDBRANCH   1  18
BRANCH   3  22
ATOM     22  C   UNN dAMED      -3.288   2.417  -1.278  0.00  0.00     0.236 C 
ATOM     23  O   UNN dAMED      -3.462   2.528  -2.459  0.00  0.00    -0.283 OA
ENDBRANCH   3  22
BRANCH  17  24
ATOM     24  O   UNN dAMED       3.909  -3.274  -0.232  0.00  0.00    -0.325 OA
ATOM     25  C   UNN dAMED       4.196  -4.252   0.722  0.00  0.00     0.181 C 
ENDBRANCH  17  24
BRANCH  11  26
ATOM     26  O   UNN dAMED      -1.269  -2.421   0.799  0.00  0.00    -0.326 OA
ATOM     27  C   UNN dAMED      -2.381  -3.264   0.842  0.00  0.00     0.181 C 
ENDBRANCH  11  26
BRANCH   4  28
ATOM     28  O   UNN dAMED      -4.885   0.127  -0.935  0.00  0.00    -0.326 OA
ATOM     29  C   UNN dAMED      -5.249   1.452  -0.692  0.00  0.00     0.181 C 
ENDBRANCH   4  28
BRANCH   8  30
ATOM     30  O   UNN dAMED      -3.897  -2.233   0.104  0.00  0.00    -0.324 OA
ATOM     31  C   UNN dAMED      -3.082  -3.226   0.654  0.00  0.00     0.182 C 
ENDBRANCH   8  30
TORSDOF 6
