REMARK  2 active torsions:
REMARK  status: ('A' for Active; 'I' for Inactive)
REMARK    1  A    between atoms: C_9  and  C_20 
REMARK    2  A    between atoms: C_10  and  C_20 
ROOT
ATOM      1  O   UNN dAMED       1.376  -2.591   0.343  0.00  0.00    -0.265 OA
ATOM      2  N   UNN dAMED      -0.107  -2.823  -1.195  0.00  0.00    -0.193 NA
ATOM      3  N   UNN dAMED      -2.142  -1.657  -0.836  0.00  0.00    -0.231 NA
ATOM      4  C   UNN dAMED      -0.056  -0.981   0.035  0.00  0.00     0.076 C 
ATOM      5  C   UNN dAMED      -1.353  -0.717  -0.205  0.00  0.00     0.086 C 
ATOM      6  C   UNN dAMED       0.455  -2.273  -0.316  0.00  0.00     0.282 C 
ATOM      7  C   UNN dAMED      -1.933   0.580   0.193  0.00  0.00     0.007 A 
ATOM      8  C   UNN dAMED      -1.353   1.326   1.227  0.00  0.00     0.001 A 
ATOM      9  C   UNN dAMED      -1.874   2.561   1.609  0.00  0.00    -0.000 A 
ATOM     10  C   UNN dAMED      -3.003   3.061   0.971  0.00  0.00    -0.001 A 
ATOM     11  C   UNN dAMED      -3.075   1.097  -0.436  0.00  0.00     0.028 A 
ATOM     12  C   UNN dAMED      -3.607   2.327  -0.045  0.00  0.00    -0.012 A 
ATOM     13  C   UNN dAMED      -1.482  -2.679  -1.303  0.00  0.00     0.143 C 
ATOM     14  C   UNN dAMED      -2.227  -3.678  -2.145  0.00  0.00     0.074 C 
ENDROOT
BRANCH   4  15
ATOM     15  C   UNN dAMED       0.804   0.026   0.761  0.00  0.00     0.009 C 
BRANCH  15  16
ATOM     16  C   UNN dAMED       1.975   0.759   0.137  0.00  0.00     0.039 A 
ATOM     17  C   UNN dAMED       2.865   1.407   1.015  0.00  0.00     0.196 A 
ATOM     18  C   UNN dAMED       3.917   2.093   0.385  0.00  0.00     0.042 A 
ATOM     19  O   UNN dAMED       2.723   1.373   2.280  0.00  0.00    -0.287 OA
ATOM     20  C   UNN dAMED       4.088   2.141  -1.001  0.00  0.00     0.003 A 
ATOM     21  C   UNN dAMED       3.183   1.492  -1.826  0.00  0.00     0.000 A 
ATOM     22  C   UNN dAMED       2.121   0.805  -1.256  0.00  0.00     0.003 A 
ENDBRANCH  15  16
ENDBRANCH   4  15
TORSDOF 2
