REMARK  1 active torsions:
REMARK  status: ('A' for Active; 'I' for Inactive)
REMARK       I    between atoms: C_1  and  N_9 
REMARK    1  A    between atoms: C_3  and  N_9 
REMARK       I    between atoms: N_11  and  C_12 
ROOT
ATOM      1  C   UNN dAMED      -1.815   0.314  -1.489  0.00  0.00     0.023 A 
ATOM      2  C   UNN dAMED      -0.810   0.026  -0.564  0.00  0.00     0.100 A 
ATOM      3  C   UNN dAMED      -3.162   0.323  -1.112  0.00  0.00     0.044 A 
ATOM      4  C   UNN dAMED      -1.216  -0.274   0.736  0.00  0.00     0.023 A 
ATOM      5  C   UNN dAMED      -3.602   0.025   0.187  0.00  0.00     0.196 A 
ATOM      6  C   UNN dAMED      -2.569  -0.265   1.090  0.00  0.00     0.044 A 
ATOM      7  O   UNN dAMED      -4.832   0.014   0.516  0.00  0.00    -0.287 OA
ENDROOT
BRANCH   2   8
ATOM      8  N   UNN dAMED       0.484  -0.098  -0.931  0.00  0.00    -0.058 NA
ATOM      9  C   UNN dAMED       1.153   1.030  -0.972  0.00  0.00     0.771 C 
ATOM     10  N   UNN dAMED       1.839   1.408   0.078  0.00  0.00     0.062 N 
ATOM     11  N   UNN dAMED       1.211   1.761  -2.059  0.00  0.00    -0.023 NA
ATOM     12  C   UNN dAMED       1.748   1.079  -3.070  0.00  0.00     0.274 C 
ATOM     13  N   UNN dAMED       1.866  -0.336  -2.954  0.00  0.00    -0.058 NA
ATOM     14  N   UNN dAMED       1.509   1.608  -4.263  0.00  0.00    -0.110 N 
ENDBRANCH   2   8
TORSDOF 1
