REMARK  3 active torsions:
REMARK  status: ('A' for Active; 'I' for Inactive)
REMARK    1  A    between atoms: C_4  and  C_10 
REMARK    2  A    between atoms: C_13  and  C_14 
REMARK    3  A    between atoms: C_16  and  C_17 
ROOT
ATOM      1  O   UNN dAMED      -2.229   3.775   0.261  0.00  0.00    -0.291 OA
ATOM      2  C   UNN dAMED      -2.233   0.176  -1.210  0.00  0.00     0.040 C 
ATOM      3  C   UNN dAMED      -2.346   1.951  -1.194  0.00  0.00     0.072 C 
ATOM      4  C   UNN dAMED      -1.120  -0.210  -0.247  0.00  0.00     0.161 C 
ATOM      5  C   UNN dAMED      -1.381   0.375   1.089  0.00  0.00    -0.010 C 
ATOM      6  C   UNN dAMED      -1.913   2.610   0.065  0.00  0.00     0.173 C 
ATOM      7  C   UNN dAMED      -1.760   1.661   1.234  0.00  0.00     0.032 C 
ATOM      8  C   UNN dAMED      -2.311   2.040  -1.187  0.00  0.00     0.004 C 
ATOM      9  C   UNN dAMED      -2.302   2.039  -1.188  0.00  0.00     0.004 C 
ATOM     10  C   UNN dAMED      -1.545  -0.540   2.273  0.00  0.00     0.029 C 
ATOM     11  O   UNN dAMED      -1.094  -1.513  -0.109  0.00  0.00    -0.217 OA
ENDROOT
BRANCH   4  12
ATOM     12  C   UNN dAMED       0.202   0.315  -0.834  0.00  0.00     0.007 C 
ATOM     13  C   UNN dAMED       1.290   0.489  -0.063  0.00  0.00    -0.006 C 
BRANCH  13  14
ATOM     14  C   UNN dAMED       2.209   1.628  -0.226  0.00  0.00    -0.016 C 
ATOM     15  C   UNN dAMED       3.629   1.468  -0.815  0.00  0.00     0.031 C 
ATOM     16  C   UNN dAMED       3.016   2.690  -0.376  0.00  0.00     0.066 C 
BRANCH  16  17
ATOM     17  C   UNN dAMED       4.527   2.602  -0.179  0.00  0.00     0.211 C 
ATOM     18  O   UNN dAMED       5.212   3.593  -0.578  0.00  0.00    -0.644 OA
ATOM     19  O   UNN dAMED       4.980   1.562   0.383  0.00  0.00    -0.644 OA
ENDBRANCH  16  17
ENDBRANCH  13  14
ENDBRANCH   4  12
TORSDOF 3
