REMARK  4 active torsions:
REMARK  status: ('A' for Active; 'I' for Inactive)
REMARK    1  A    between atoms: C_6  and  C_21 
REMARK    2  A    between atoms: C_9  and  C_19 
REMARK    3  A    between atoms: C_13  and  N_23 
REMARK    4  A    between atoms: C_14  and  N_18 
REMARK       I    between atoms: N_18  and  C_19 
REMARK       I    between atoms: C_21  and  N_23 
ROOT
ATOM      1  C   UNN dAMED      -0.760  -2.264   2.341  0.00  0.00     0.005 A 
ATOM      2  C   UNN dAMED      -0.966  -3.640   2.239  0.00  0.00     0.058 A 
ATOM      3  C   UNN dAMED      -1.400  -1.405   1.453  0.00  0.00     0.005 A 
ATOM      4  C   UNN dAMED      -1.828  -4.159   1.268  0.00  0.00     0.005 A 
ATOM      5  C   UNN dAMED      -2.261  -1.921   0.481  0.00  0.00     0.058 A 
ATOM      6  C   UNN dAMED      -2.468  -3.297   0.376  0.00  0.00     0.005 A 
ENDROOT
BRANCH   2   7
ATOM      7  C   UNN dAMED      -0.328  -4.513   3.250  0.00  0.00     0.281 C 
ATOM      8  O   UNN dAMED      -0.475  -4.194   4.429  0.00  0.00    -0.265 OA
ATOM      9  N   UNN dAMED       0.353  -5.538   2.726  0.00  0.00    -0.183 NA
BRANCH   9  10
ATOM     10  C   UNN dAMED       0.890  -6.397   3.631  0.00  0.00     0.197 A 
ATOM     11  N   UNN dAMED       0.302  -6.899   4.703  0.00  0.00    -0.225 NA
ATOM     12  C   UNN dAMED       1.162  -7.776   5.324  0.00  0.00     0.068 A 
ATOM     13  C   UNN dAMED       2.375  -7.961   4.721  0.00  0.00     0.053 A 
ATOM     14  C   UNN dAMED       0.801  -8.485   6.596  0.00  0.00     0.053 C 
ATOM     15  S   UNN dAMED       2.487  -6.991   3.331  0.00  0.00    -0.047 SA
ENDBRANCH   9  10
ENDBRANCH   2   7
BRANCH   5  16
ATOM     16  C   UNN dAMED      -2.906  -1.001  -0.481  0.00  0.00     0.281 C 
ATOM     17  N   UNN dAMED      -3.549   0.019   0.088  0.00  0.00    -0.183 NA
ATOM     18  O   UNN dAMED      -2.673  -1.159  -1.676  0.00  0.00    -0.265 OA
BRANCH  17  19
ATOM     19  C   UNN dAMED      -4.907   0.042   0.022  0.00  0.00     0.197 A 
ATOM     20  S   UNN dAMED      -5.898  -1.312  -0.426  0.00  0.00    -0.047 SA
ATOM     21  C   UNN dAMED      -7.294  -0.390  -0.120  0.00  0.00     0.053 A 
ATOM     22  C   UNN dAMED      -6.940   0.861   0.303  0.00  0.00     0.068 A 
ATOM     23  N   UNN dAMED      -5.593   1.117   0.373  0.00  0.00    -0.225 NA
ATOM     24  C   UNN dAMED      -7.958   1.908   0.648  0.00  0.00     0.053 C 
ENDBRANCH  17  19
ENDBRANCH   5  16
TORSDOF 4
