REMARK  3 active torsions:
REMARK  status: ('A' for Active; 'I' for Inactive)
REMARK    1  A    between atoms: C_3  and  C_8 
REMARK    2  A    between atoms: C_3  and  N_14 
REMARK    3  A    between atoms: C_6  and  N_14 
ROOT
ATOM      1  N   UNN dAMED       0.883  -1.616  -0.748  0.00  0.00    -0.205 NA
ATOM      2  N   UNN dAMED       3.319  -1.567  -0.696  0.00  0.00    -0.211 NA
ATOM      3  C   UNN dAMED       3.166  -0.297  -0.289  0.00  0.00     0.145 A 
ATOM      4  C   UNN dAMED       1.975   0.378  -0.078  0.00  0.00     0.086 A 
ATOM      5  C   UNN dAMED       0.801  -0.329  -0.330  0.00  0.00     0.164 A 
ATOM      6  C   UNN dAMED       2.119  -2.151  -0.900  0.00  0.00     0.201 A 
ATOM      7  C   UNN dAMED       2.381   1.653   0.379  0.00  0.00     0.120 C 
ATOM      8  N   UNN dAMED       3.710   1.760   0.491  0.00  0.00    -0.188 NA
ATOM      9  N   UNN dAMED       4.148   0.608  -0.036  0.00  0.00    -0.138 NA
ATOM     10  C   UNN dAMED       5.104   0.030   0.843  0.00  0.00     0.123 C 
ENDROOT
BRANCH   5  11
ATOM     11  N   UNN dAMED      -0.402   0.227  -0.153  0.00  0.00    -0.248 NA
BRANCH  11  12
ATOM     12  C   UNN dAMED      -0.499   1.621   0.260  0.00  0.00     0.154 C 
BRANCH  12  13
ATOM     13  C   UNN dAMED      -1.346   2.031   1.437  0.00  0.00     0.002 A 
ATOM     14  C   UNN dAMED      -0.841   1.929   2.732  0.00  0.00    -0.002 A 
ATOM     15  C   UNN dAMED      -1.588   2.399   3.810  0.00  0.00    -0.000 A 
ATOM     16  C   UNN dAMED      -2.838   2.975   3.594  0.00  0.00    -0.000 A 
ATOM     17  C   UNN dAMED      -3.342   3.080   2.299  0.00  0.00    -0.000 A 
ATOM     18  C   UNN dAMED      -2.595   2.611   1.221  0.00  0.00    -0.002 A 
ENDBRANCH  12  13
ENDBRANCH  11  12
ENDBRANCH   5  11
TORSDOF 3
