REMARK  3 active torsions:
REMARK  status: ('A' for Active; 'I' for Inactive)
REMARK    1  A    between atoms: C_9  and  N_17 
REMARK    2  A    between atoms: C_11  and  N_17 
REMARK    3  A    between atoms: C_16  and  N_18 
ROOT
ATOM      1 CL   UNN dAMED       4.463   2.792   0.965  0.00  0.00    -0.041 Cl
ATOM      2  N   UNN dAMED       2.169   2.008   0.032  0.00  0.00    -0.198 NA
ATOM      3  N   UNN dAMED       3.798   0.301   0.663  0.00  0.00    -0.203 NA
ATOM      4  N   UNN dAMED       2.935  -1.928   0.291  0.00  0.00    -0.138 NA
ATOM      5  N   UNN dAMED       1.930  -2.549  -0.343  0.00  0.00    -0.188 NA
ATOM      6  C   UNN dAMED       3.353   1.565   0.512  0.00  0.00     0.226 A 
ATOM      7  C   UNN dAMED       2.867  -0.572   0.247  0.00  0.00     0.146 A 
ATOM      8  C   UNN dAMED       1.622  -0.281  -0.287  0.00  0.00     0.086 A 
ATOM      9  C   UNN dAMED       1.280   1.073  -0.399  0.00  0.00     0.169 A 
ATOM     10  C   UNN dAMED       1.080  -1.548  -0.604  0.00  0.00     0.120 C 
ATOM     11  C   UNN dAMED       4.173  -2.353  -0.265  0.00  0.00     0.123 C 
ENDROOT
BRANCH   9  12
ATOM     12  N   UNN dAMED       0.097   1.464  -0.900  0.00  0.00    -0.227 NA
BRANCH  12  13
ATOM     13  C   UNN dAMED       0.081   1.770  -2.222  0.00  0.00     0.083 A 
ATOM     14  C   UNN dAMED       1.174   1.636  -3.101  0.00  0.00     0.021 A 
ATOM     15  C   UNN dAMED       1.084   1.937  -4.458  0.00  0.00     0.025 A 
ATOM     16  C   UNN dAMED      -0.128   2.393  -4.956  0.00  0.00     0.127 A 
ATOM     17  C   UNN dAMED      -1.237   2.554  -4.134  0.00  0.00     0.025 A 
ATOM     18  C   UNN dAMED      -1.119   2.236  -2.781  0.00  0.00     0.021 A 
BRANCH  16  19
ATOM     19  N   UNN dAMED      -0.235   2.720  -6.364  0.00  0.00    -0.114 N 
ATOM     20  O   UNN dAMED       0.818   2.857  -7.001  0.00  0.00    -0.532 OA
ATOM     21  O   UNN dAMED      -1.372   2.843  -6.839  0.00  0.00    -0.532 OA
ENDBRANCH  16  19
ENDBRANCH  12  13
ENDBRANCH   9  12
TORSDOF 3
