REMARK  2 active torsions:
REMARK  status: ('A' for Active; 'I' for Inactive)
REMARK    1  A    between atoms: C_16  and  N_18 
REMARK       I    between atoms: N_18  and  C_19 
REMARK    2  A    between atoms: C_19  and  C_21 
ROOT
ATOM      1 CL   UNN dAMED      -7.951  -0.054   0.041  0.00  0.00    -0.082 Cl
ATOM      2  N   UNN dAMED      -1.344  -1.061   0.117  0.00  0.00    -0.229 NA
ATOM      3  N   UNN dAMED       0.079   1.442  -0.103  0.00  0.00    -0.237 NA
ATOM      4  N   UNN dAMED       0.930  -1.912   0.180  0.00  0.00    -0.135 NA
ATOM      5  N   UNN dAMED       2.186  -1.500  -0.046  0.00  0.00    -0.169 NA
ATOM      6  C   UNN dAMED      -4.136  -0.449   1.135  0.00  0.00     0.002 A 
ATOM      7  C   UNN dAMED      -5.531  -0.502   1.133  0.00  0.00     0.011 A 
ATOM      8  C   UNN dAMED      -3.432   0.104   0.058  0.00  0.00     0.019 A 
ATOM      9  C   UNN dAMED      -4.167   0.607  -1.023  0.00  0.00     0.002 A 
ATOM     10  C   UNN dAMED      -1.972   0.137   0.051  0.00  0.00     0.102 A 
ATOM     11  C   UNN dAMED      -1.270   1.338  -0.039  0.00  0.00     0.118 A 
ATOM     12  C   UNN dAMED      -6.236   0.011   0.050  0.00  0.00     0.058 A 
ATOM     13  C   UNN dAMED      -5.562   0.570  -1.029  0.00  0.00     0.011 A 
ATOM     14  C   UNN dAMED      -0.006  -0.937   0.073  0.00  0.00     0.160 A 
ATOM     15  C   UNN dAMED       0.709   0.241  -0.054  0.00  0.00     0.148 A 
ATOM     16  C   UNN dAMED       2.070  -0.163  -0.143  0.00  0.00     0.199 C 
ATOM     17  C   UNN dAMED       0.614  -2.965  -0.721  0.00  0.00     0.123 C 
ENDROOT
BRANCH  16  18
ATOM     18  N   UNN dAMED       3.169   0.657  -0.304  0.00  0.00    -0.183 NA
ATOM     19  C   UNN dAMED       3.915   0.364  -1.376  0.00  0.00     0.352 C 
ATOM     20  O   UNN dAMED       3.554  -0.102  -2.456  0.00  0.00    -0.261 OA
BRANCH  19  21
ATOM     21  C   UNN dAMED       5.367   0.710  -1.147  0.00  0.00     0.474 C 
ATOM     22  F   UNN dAMED       6.026  -0.275  -0.484  0.00  0.00    -0.162 F 
ATOM     23  F   UNN dAMED       5.547   1.855  -0.438  0.00  0.00    -0.162 F 
ATOM     24  F   UNN dAMED       6.024   0.886  -2.325  0.00  0.00    -0.162 F 
ENDBRANCH  19  21
ENDBRANCH  16  18
TORSDOF 2
