REMARK  3 active torsions:
REMARK  status: ('A' for Active; 'I' for Inactive)
REMARK    1  A    between atoms: C_1  and  C_7 
REMARK    2  A    between atoms: C_2  and  N_10 
REMARK    3  A    between atoms: N_10  and  C_11 
ROOT
ATOM      1  C   UNN dAMED      -0.561   0.685  -0.210  0.00  0.00     0.082 A 
ATOM      2  C   UNN dAMED       0.451  -0.246   0.094  0.00  0.00     0.082 A 
ATOM      3  C   UNN dAMED      -0.241   2.031  -0.435  0.00  0.00     0.008 A 
ATOM      4  C   UNN dAMED       1.769   0.224   0.162  0.00  0.00     0.019 A 
ATOM      5  C   UNN dAMED       1.077   2.469  -0.364  0.00  0.00     0.000 A 
ATOM      6  C   UNN dAMED       2.085   1.563  -0.065  0.00  0.00     0.002 A 
ENDROOT
BRANCH   1   7
ATOM      7  C   UNN dAMED      -1.996   0.288  -0.302  0.00  0.00     0.212 C 
ATOM      8  O   UNN dAMED      -2.473   0.167  -1.471  0.00  0.00    -0.644 OA
ATOM      9  O   UNN dAMED      -2.606   0.118   0.797  0.00  0.00    -0.644 OA
ENDBRANCH   1   7
BRANCH   2  10
ATOM     10  N   UNN dAMED       0.206  -1.548   0.326  0.00  0.00    -0.271 NA
BRANCH  10  11
ATOM     11  C   UNN dAMED      -1.147  -2.067   0.217  0.00  0.00     0.126 C 
ATOM     12  C   UNN dAMED      -1.396  -3.576   0.310  0.00  0.00     0.028 C 
ENDBRANCH  10  11
ENDBRANCH   2  10
TORSDOF 3
