REMARK  2 active torsions:
REMARK  status: ('A' for Active; 'I' for Inactive)
REMARK    1  A    between atoms: C_15  and  C_18 
REMARK    2  A    between atoms: C_18  and  C_20 
ROOT
ATOM      1  C   UNN dAMED       0.980  -3.689  -0.243  0.00  0.00     0.019 C 
ATOM      2  C   UNN dAMED      -0.237  -3.160  -0.142  0.00  0.00     0.083 C 
ATOM      3  O   UNN dAMED      -2.693  -2.234  -0.337  0.00  0.00    -0.267 OA
ATOM      4  N   UNN dAMED      -0.454  -1.751  -0.089  0.00  0.00    -0.273 N 
ATOM      5  C   UNN dAMED      -1.781  -1.426  -0.207  0.00  0.00     0.266 A 
ATOM      6  C   UNN dAMED       2.181  -2.853   0.177  0.00  0.00     0.003 C 
ATOM      7  C   UNN dAMED      -4.227   0.374  -1.208  0.00  0.00     0.019 A 
ATOM      8  C   UNN dAMED      -5.447   1.040  -1.200  0.00  0.00     0.003 A 
ATOM      9  C   UNN dAMED      -2.006   0.047  -0.167  0.00  0.00     0.074 A 
ATOM     10  C   UNN dAMED       0.641  -0.962   0.096  0.00  0.00     0.070 A 
ATOM     11  C   UNN dAMED      -3.334   0.646  -0.182  0.00  0.00     0.086 A 
ATOM     12  C   UNN dAMED       2.026  -1.533   0.201  0.00  0.00     0.018 C 
ATOM     13  C   UNN dAMED      -5.730   1.962  -0.200  0.00  0.00     0.021 A 
ATOM     14  C   UNN dAMED      -0.967   0.871   0.025  0.00  0.00     0.011 A 
ATOM     15  C   UNN dAMED       0.442   0.359   0.182  0.00  0.00     0.055 A 
ATOM     16  N   UNN dAMED      -3.574   1.540   0.804  0.00  0.00    -0.244 NA
ATOM     17  C   UNN dAMED      -4.766   2.175   0.771  0.00  0.00     0.099 A 
ENDROOT
BRANCH  15  18
ATOM     18  C   UNN dAMED       1.576   1.295   0.313  0.00  0.00     0.198 C 
ATOM     19  O   UNN dAMED       2.542   1.255  -0.438  0.00  0.00    -0.286 OA
BRANCH  18  20
ATOM     20  C   UNN dAMED       1.458   2.357   1.327  0.00  0.00     0.058 A 
ATOM     21  C   UNN dAMED       0.238   2.918   1.688  0.00  0.00     0.006 A 
ATOM     22  C   UNN dAMED       0.208   3.950   2.621  0.00  0.00     0.021 A 
ATOM     23  C   UNN dAMED       1.417   4.400   3.132  0.00  0.00     0.099 A 
ATOM     24  N   UNN dAMED       2.622   3.900   2.779  0.00  0.00    -0.242 NA
ATOM     25  C   UNN dAMED       2.613   2.887   1.885  0.00  0.00     0.102 A 
ENDBRANCH  18  20
ENDBRANCH  15  18
TORSDOF 2
