REMARK  1 active torsions:
REMARK  status: ('A' for Active; 'I' for Inactive)
REMARK    1  A    between atoms: C_17  and  C_18 
ROOT
ATOM      1  O   UNN dAMED       0.858   2.207   0.584  0.00  0.00    -0.287 OA
ATOM      2  N   UNN dAMED      -1.924  -2.327  -0.617  0.00  0.00    -0.209 NA
ATOM      3  S   UNN dAMED      -3.501  -1.784  -0.657  0.00  0.00     0.013 SA
ATOM      4  C   UNN dAMED      -3.154  -0.141  -0.294  0.00  0.00     0.049 A 
ATOM      5  C   UNN dAMED      -1.781  -0.047  -0.146  0.00  0.00     0.029 A 
ATOM      6  C   UNN dAMED      -3.980   0.979  -0.147  0.00  0.00     0.008 A 
ATOM      7  C   UNN dAMED      -1.130  -1.295  -0.334  0.00  0.00     0.090 A 
ATOM      8  C   UNN dAMED       0.321  -1.343  -0.215  0.00  0.00     0.022 A 
ATOM      9  C   UNN dAMED       0.996  -2.551  -0.398  0.00  0.00     0.002 A 
ATOM     10  C   UNN dAMED       2.381  -2.597  -0.299  0.00  0.00     0.000 A 
ATOM     11  C   UNN dAMED      -3.355   2.201   0.156  0.00  0.00     0.001 A 
ATOM     12  C   UNN dAMED      -1.182   1.177   0.155  0.00  0.00     0.041 A 
ATOM     13  C   UNN dAMED       1.038  -0.147   0.079  0.00  0.00     0.046 A 
ATOM     14  C   UNN dAMED       3.093  -1.434  -0.027  0.00  0.00     0.006 A 
ATOM     15  C   UNN dAMED      -1.973   2.311   0.308  0.00  0.00     0.003 A 
ATOM     16  C   UNN dAMED       0.292   1.163   0.292  0.00  0.00     0.196 A 
ATOM     17  C   UNN dAMED       2.442  -0.207   0.163  0.00  0.00     0.068 A 
ENDROOT
BRANCH  17  18
ATOM     18  C   UNN dAMED       3.307   0.975   0.425  0.00  0.00     0.211 C 
ATOM     19  O   UNN dAMED       3.654   1.165   1.630  0.00  0.00    -0.644 OA
ATOM     20  O   UNN dAMED       3.624   1.675  -0.585  0.00  0.00    -0.644 OA
ENDBRANCH  17  18
TORSDOF 1
