REMARK  8 active torsions:
REMARK  status: ('A' for Active; 'I' for Inactive)
REMARK    1  A    between atoms: C_4  and  C_14 
REMARK    2  A    between atoms: C_7  and  C_18 
REMARK    3  A    between atoms: C_8  and  N_19 
REMARK       I    between atoms: C_14  and  N_16 
REMARK    4  A    between atoms: N_16  and  N_17 
REMARK    5  A    between atoms: N_19  and  C_20 
REMARK    6  A    between atoms: N_19  and  C_23 
REMARK    7  A    between atoms: C_20  and  C_21 
REMARK    8  A    between atoms: C_23  and  C_24 
ROOT
ATOM      1  C   UNN dAMED      -0.833  -4.383  -0.136  0.00  0.00     0.003 A 
ATOM      2  C   UNN dAMED      -0.179  -5.544  -0.532  0.00  0.00     0.017 A 
ATOM      3  C   UNN dAMED      -1.924  -3.906  -0.862  0.00  0.00     0.021 A 
ATOM      4  C   UNN dAMED      -0.607  -6.237  -1.662  0.00  0.00     0.056 A 
ATOM      5  C   UNN dAMED      -2.356  -4.596  -1.993  0.00  0.00     0.003 A 
ATOM      6  C   UNN dAMED      -1.696  -5.758  -2.390  0.00  0.00     0.017 A 
ENDROOT
BRANCH   3   7
ATOM      7  C   UNN dAMED      -2.673  -2.676  -0.403  0.00  0.00     0.122 C 
ATOM      8  N   UNN dAMED      -2.579  -2.270   0.781  0.00  0.00    -0.143 NA
BRANCH   8   9
ATOM      9  N   UNN dAMED      -3.384  -1.313   1.251  0.00  0.00    -0.105 NA
ATOM     10  C   UNN dAMED      -3.582  -0.383   0.319  0.00  0.00     0.304 C 
ATOM     11  O   UNN dAMED      -2.724   0.361  -0.150  0.00  0.00    -0.263 OA
BRANCH  10  12
ATOM     12  C   UNN dAMED      -4.981  -0.310  -0.045  0.00  0.00     0.103 A 
ATOM     13  S   UNN dAMED      -5.428   0.012  -1.673  0.00  0.00    -0.066 SA
ATOM     14  C   UNN dAMED      -7.058  -0.034  -1.201  0.00  0.00     0.088 A 
ATOM     15  N   UNN dAMED      -7.331  -0.285   0.054  0.00  0.00    -0.247 NA
ATOM     16  C   UNN dAMED      -8.153   0.216  -2.198  0.00  0.00     0.059 C 
ATOM     17  C   UNN dAMED      -6.132  -0.435   0.711  0.00  0.00     0.070 A 
ATOM     18  C   UNN dAMED      -6.086  -0.829   2.160  0.00  0.00     0.053 C 
ENDBRANCH  10  12
ENDBRANCH   8   9
ENDBRANCH   3   7
BRANCH   4  19
ATOM     19  N   UNN dAMED       0.021  -7.438  -2.029  0.00  0.00    -0.345 N 
BRANCH  19  20
ATOM     20  C   UNN dAMED      -0.479  -8.702  -1.521  0.00  0.00     0.119 C 
BRANCH  20  21
ATOM     21  C   UNN dAMED      -1.577  -8.721  -0.450  0.00  0.00     0.119 C 
ATOM     22 CL   UNN dAMED      -1.145  -8.739   1.251  0.00  0.00    -0.112 Cl
ENDBRANCH  20  21
ENDBRANCH  19  20
BRANCH  19  23
ATOM     23  C   UNN dAMED       1.059  -7.454  -3.043  0.00  0.00     0.119 C 
BRANCH  23  24
ATOM     24  C   UNN dAMED       1.667  -8.786  -3.510  0.00  0.00     0.119 C 
ATOM     25 CL   UNN dAMED       2.064 -10.054  -2.358  0.00  0.00    -0.112 Cl
ENDBRANCH  23  24
ENDBRANCH  19  23
ENDBRANCH   4  19
TORSDOF 8
