REMARK  7 active torsions:
REMARK  status: ('A' for Active; 'I' for Inactive)
REMARK    1  A    between atoms: O_1  and  C_2 
REMARK    2  A    between atoms: O_1  and  C_17 
REMARK    3  A    between atoms: C_2  and  C_4 
REMARK    4  A    between atoms: C_7  and  C_19 
REMARK    5  A    between atoms: O_11  and  C_15 
REMARK    6  A    between atoms: O_11  and  C_19 
REMARK    7  A    between atoms: C_15  and  C_20 
ROOT
ATOM      1  C   UNN dAMED      -4.746  -0.221   0.732  0.00  0.00     0.151 A 
ATOM      2  N   UNN dAMED      -3.438  -0.330   0.294  0.00  0.00    -0.231 NA
ATOM      3  O   UNN dAMED      -0.477  -1.357   1.518  0.00  0.00    -0.307 OA
ATOM      4  C   UNN dAMED       0.821  -1.057   1.279  0.00  0.00     0.108 A 
ATOM      5  C   UNN dAMED      -1.207  -0.247   1.186  0.00  0.00     0.123 A 
ATOM      6  C   UNN dAMED      -2.625  -0.185   1.318  0.00  0.00     0.134 A 
ATOM      7  C   UNN dAMED      -0.351   0.732   0.711  0.00  0.00     0.029 A 
ATOM      8  S   UNN dAMED      -3.368   0.079   2.843  0.00  0.00    -0.064 SA
ATOM      9  C   UNN dAMED       0.961   0.202   0.755  0.00  0.00     0.025 A 
ATOM     10  C   UNN dAMED      -4.886   0.001   2.082  0.00  0.00     0.061 A 
ENDROOT
BRANCH   4  11
ATOM     11  C   UNN dAMED       1.918  -2.081   1.300  0.00  0.00     0.203 C 
BRANCH  11  12
ATOM     12  O   UNN dAMED       1.606  -3.443   1.355  0.00  0.00    -0.291 OA
BRANCH  12  13
ATOM     13  C   UNN dAMED       2.731  -4.079   0.967  0.00  0.00     0.296 C 
ATOM     14  O   UNN dAMED       3.822  -3.580   0.771  0.00  0.00    -0.259 OA
BRANCH  13  15
ATOM     15  C   UNN dAMED       2.422  -5.494   0.812  0.00  0.00     0.063 A 
ATOM     16  C   UNN dAMED       2.028  -5.967  -0.437  0.00  0.00     0.005 A 
ATOM     17  C   UNN dAMED       1.778  -7.327  -0.593  0.00  0.00     0.000 A 
ATOM     18  C   UNN dAMED       1.931  -8.196   0.487  0.00  0.00     0.000 A 
ATOM     19  C   UNN dAMED       2.335  -7.707   1.730  0.00  0.00     0.000 A 
ATOM     20  C   UNN dAMED       2.588  -6.349   1.898  0.00  0.00     0.005 A 
ENDBRANCH  13  15
ENDBRANCH  12  13
ENDBRANCH  11  12
ENDBRANCH   4  11
BRANCH   1  21
ATOM     21  C   UNN dAMED      -5.842  -0.315  -0.194  0.00  0.00     0.314 C 
ATOM     22  O   UNN dAMED      -6.400   0.653  -0.691  0.00  0.00    -0.257 OA
BRANCH  21  23
ATOM     23  O   UNN dAMED      -6.171  -1.603  -0.468  0.00  0.00    -0.297 OA
BRANCH  23  24
ATOM     24  C   UNN dAMED      -7.277  -1.520  -1.318  0.00  0.00     0.152 C 
ATOM     25  C   UNN dAMED      -7.942  -0.165  -1.580  0.00  0.00     0.035 C 
ENDBRANCH  23  24
ENDBRANCH  21  23
ENDBRANCH   1  21
TORSDOF 7
