REMARK  2 active torsions:
REMARK  status: ('A' for Active; 'I' for Inactive)
REMARK    1  A    between atoms: C_10  and  C_19 
REMARK    2  A    between atoms: C_15  and  C_19 
ROOT
ATOM      1  C   UNN dAMED       3.917  -0.801  -0.724  0.00  0.00     0.003 A 
ATOM      2  C   UNN dAMED       5.287  -0.743  -0.440  0.00  0.00     0.042 A 
ATOM      3  C   UNN dAMED       2.979  -0.167   0.094  0.00  0.00     0.000 A 
ATOM      4  C   UNN dAMED       5.818  -0.065   0.666  0.00  0.00     0.196 A 
ATOM      5  C   UNN dAMED       3.479   0.516   1.202  0.00  0.00     0.003 A 
ATOM      6  C   UNN dAMED       1.540  -0.223  -0.196  0.00  0.00     0.000 A 
ATOM      7  C   UNN dAMED       1.065  -0.757  -1.402  0.00  0.00     0.000 A 
ATOM      8  C   UNN dAMED      -0.299  -0.850  -1.672  0.00  0.00     0.003 A 
ATOM      9  C   UNN dAMED       0.586   0.236   0.725  0.00  0.00     0.000 A 
ATOM     10  C   UNN dAMED      -1.223  -0.390  -0.737  0.00  0.00     0.039 A 
ATOM     11  C   UNN dAMED       4.853   0.558   1.471  0.00  0.00     0.042 A 
ATOM     12  C   UNN dAMED      -0.783   0.178   0.455  0.00  0.00     0.003 A 
ATOM     13  O   UNN dAMED       7.065  -0.020   0.919  0.00  0.00    -0.287 OA
ENDROOT
BRANCH  10  14
ATOM     14  C   UNN dAMED      -2.651  -0.428  -1.104  0.00  0.00     0.196 C 
ATOM     15  O   UNN dAMED      -2.966  -0.321  -2.286  0.00  0.00    -0.287 OA
BRANCH  14  16
ATOM     16  C   UNN dAMED      -3.714  -0.599  -0.096  0.00  0.00     0.039 A 
ATOM     17  C   UNN dAMED      -4.974  -0.068  -0.376  0.00  0.00     0.003 A 
ATOM     18  C   UNN dAMED      -6.025  -0.273   0.514  0.00  0.00     0.000 A 
ATOM     19  C   UNN dAMED      -5.812  -0.996   1.685  0.00  0.00     0.000 A 
ATOM     20  C   UNN dAMED      -4.552  -1.523   1.964  0.00  0.00     0.000 A 
ATOM     21  C   UNN dAMED      -3.506  -1.345   1.061  0.00  0.00     0.003 A 
ENDBRANCH  14  16
ENDBRANCH  10  14
TORSDOF 2
