REMARK  6 active torsions:
REMARK  status: ('A' for Active; 'I' for Inactive)
REMARK    1  A    between atoms: O_1  and  C_11 
REMARK    2  A    between atoms: O_1  and  C_18 
REMARK    3  A    between atoms: O_2  and  C_4 
REMARK    4  A    between atoms: O_2  and  C_19 
REMARK    5  A    between atoms: C_13  and  C_15 
REMARK    6  A    between atoms: C_18  and  C_19 
ROOT
ATOM      1  O   UNN dAMED      -1.034  -1.673   0.409  0.00  0.00    -0.328 OA
ENDROOT
BRANCH   1   2
ATOM      2  C   UNN dAMED      -2.167  -0.967   0.134  0.00  0.00     0.094 A 
ATOM      3  C   UNN dAMED      -2.104   0.419   0.102  0.00  0.00     0.024 A 
ATOM      4  C   UNN dAMED      -3.259   1.147  -0.177  0.00  0.00     0.008 A 
ATOM      5  C   UNN dAMED      -4.474   0.494  -0.416  0.00  0.00     0.065 A 
ATOM      6  C   UNN dAMED      -4.512  -0.905  -0.374  0.00  0.00     0.008 A 
ATOM      7  C   UNN dAMED      -3.359  -1.641  -0.102  0.00  0.00     0.024 A 
BRANCH   5   8
ATOM      8  C   UNN dAMED      -5.710   1.282  -0.710  0.00  0.00     0.211 C 
ATOM      9  O   UNN dAMED      -5.836   2.395  -0.112  0.00  0.00    -0.644 OA
ATOM     10  O   UNN dAMED      -6.532   0.776  -1.536  0.00  0.00    -0.644 OA
ENDBRANCH   5   8
ENDBRANCH   1   2
BRANCH   1  11
ATOM     11  C   UNN dAMED      -0.162  -0.751   0.997  0.00  0.00     0.181 C 
BRANCH  11  12
ATOM     12  C   UNN dAMED      -0.107  -0.605   2.525  0.00  0.00     0.181 C 
BRANCH  12  13
ATOM     13  O   UNN dAMED       0.879   0.184   3.126  0.00  0.00    -0.328 OA
BRANCH  13  14
ATOM     14  C   UNN dAMED       2.043  -0.509   2.976  0.00  0.00     0.094 A 
ATOM     15  C   UNN dAMED       2.651  -0.553   1.728  0.00  0.00     0.024 A 
ATOM     16  C   UNN dAMED       3.850  -1.247   1.581  0.00  0.00     0.002 A 
ATOM     17  C   UNN dAMED       4.428  -1.885   2.677  0.00  0.00     0.000 A 
ATOM     18  C   UNN dAMED       3.808  -1.831   3.925  0.00  0.00     0.002 A 
ATOM     19  C   UNN dAMED       2.610  -1.138   4.079  0.00  0.00     0.024 A 
ENDBRANCH  13  14
ENDBRANCH  12  13
ENDBRANCH  11  12
ENDBRANCH   1  11
TORSDOF 6
