REMARK  3 active torsions:
REMARK  status: ('A' for Active; 'I' for Inactive)
REMARK    1  A    between atoms: C_2  and  N_15 
REMARK    2  A    between atoms: C_8  and  N_18 
REMARK    3  A    between atoms: C_10  and  S_19 
REMARK       I    between atoms: N_15  and  C_16 
REMARK       I    between atoms: C_16  and  N_18 
ROOT
ATOM      1  N   UNN dAMED      -2.237  -0.225   1.006  0.00  0.00    -0.192 NA
ATOM      2  C   UNN dAMED      -1.163   0.529   0.656  0.00  0.00     0.369 C 
ATOM      3  O   UNN dAMED      -1.187   1.588   0.030  0.00  0.00    -0.242 OA
ATOM      4  N   UNN dAMED      -0.053  -0.077   1.155  0.00  0.00    -0.191 NA
ENDROOT
BRANCH   1   5
ATOM      5  C   UNN dAMED      -3.381  -0.088   0.294  0.00  0.00     0.078 A 
ATOM      6  C   UNN dAMED      -3.447   0.297  -1.055  0.00  0.00    -0.004 A 
ATOM      7  C   UNN dAMED      -4.661   0.387  -1.739  0.00  0.00    -0.003 A 
ATOM      8  C   UNN dAMED      -2.181   0.703  -1.755  0.00  0.00     0.033 C 
ATOM      9  C   UNN dAMED      -5.847   0.062  -1.094  0.00  0.00    -0.001 A 
ATOM     10  C   UNN dAMED      -5.814  -0.354   0.231  0.00  0.00    -0.003 A 
ATOM     11  C   UNN dAMED      -4.596  -0.427   0.910  0.00  0.00    -0.004 A 
ATOM     12  C   UNN dAMED      -4.581  -0.943   2.322  0.00  0.00     0.033 C 
ENDBRANCH   1   5
BRANCH   4  13
ATOM     13  C   UNN dAMED       1.095   0.622   1.023  0.00  0.00     0.086 A 
ATOM     14  C   UNN dAMED       1.684   1.261   2.127  0.00  0.00     0.020 A 
ATOM     15  C   UNN dAMED       2.930   1.882   2.033  0.00  0.00     0.015 A 
ATOM     16  C   UNN dAMED       3.591   1.857   0.813  0.00  0.00     0.107 A 
ATOM     17  C   UNN dAMED       3.052   1.240  -0.304  0.00  0.00     0.015 A 
ATOM     18  C   UNN dAMED       1.811   0.618  -0.184  0.00  0.00     0.020 A 
BRANCH  16  19
ATOM     19  S   UNN dAMED       5.197   2.552   0.669  0.00  0.00     0.302 S 
ATOM     20  O   UNN dAMED       5.022   3.978   0.873  0.00  0.00    -0.197 OA
ATOM     21  O   UNN dAMED       6.033   1.783   1.574  0.00  0.00    -0.197 OA
ATOM     22  N   UNN dAMED       5.755   2.298  -0.925  0.00  0.00    -0.043 N 
ENDBRANCH  16  19
ENDBRANCH   4  13
TORSDOF 3
