REMARK  3 active torsions:
REMARK  status: ('A' for Active; 'I' for Inactive)
REMARK    1  A    between atoms: N_7  and  N_8 
REMARK    2  A    between atoms: N_11  and  C_17 
REMARK    3  A    between atoms: C_13  and  C_17 
ROOT
ATOM      1  N   UNN dAMED      -0.631  -0.468   0.505  0.00  0.00    -0.127 NA
ATOM      2  C   UNN dAMED      -0.383  -0.539   1.772  0.00  0.00     0.182 C 
ATOM      3  S   UNN dAMED       0.008  -2.091   2.529  0.00  0.00    -0.054 SA
ATOM      4  N   UNN dAMED      -0.400   0.469   2.705  0.00  0.00    -0.154 NA
ATOM      5  C   UNN dAMED      -0.407   0.104   4.030  0.00  0.00     0.248 C 
ATOM      6  C   UNN dAMED      -0.046  -1.338   4.141  0.00  0.00     0.061 C 
ATOM      7  O   UNN dAMED      -1.074   0.612   4.921  0.00  0.00    -0.273 OA
ATOM      8  C   UNN dAMED       0.823  -1.861   5.290  0.00  0.00     0.043 C 
ENDROOT
BRANCH   1   9
ATOM      9  N   UNN dAMED      -0.875   0.827   0.069  0.00  0.00    -0.128 NA
ATOM     10  C   UNN dAMED      -2.122   1.048  -0.185  0.00  0.00     0.174 C 
ATOM     11  S   UNN dAMED      -2.686   2.611  -0.781  0.00  0.00    -0.072 SA
ATOM     12  N   UNN dAMED      -3.175   0.187  -0.020  0.00  0.00    -0.178 NA
ATOM     13  C   UNN dAMED      -4.385   2.093  -0.617  0.00  0.00     0.146 C 
ATOM     14  C   UNN dAMED      -4.435   0.717  -0.038  0.00  0.00     0.230 C 
ATOM     15  O   UNN dAMED      -5.378   0.393   0.672  0.00  0.00    -0.277 OA
ATOM     16  C   UNN dAMED      -2.980  -0.706   1.067  0.00  0.00     0.104 C 
ENDBRANCH   1   9
BRANCH   4  17
ATOM     17  C   UNN dAMED      -1.397   1.437   2.396  0.00  0.00     0.056 C 
BRANCH  17  18
ATOM     18  C   UNN dAMED      -1.259   2.930   2.804  0.00  0.00    -0.010 C 
ATOM     19  C   UNN dAMED      -1.249   3.830   3.944  0.00  0.00     0.032 C 
ATOM     20  C   UNN dAMED      -1.270   2.157   1.712  0.00  0.00    -0.004 C 
ENDBRANCH  17  18
ENDBRANCH   4  17
TORSDOF 3
