REMARK  2 active torsions:
REMARK  status: ('A' for Active; 'I' for Inactive)
REMARK    1  A    between atoms: C_5  and  N_10 
REMARK       I    between atoms: C_7  and  N_10 
REMARK    2  A    between atoms: C_11  and  N_12 
ROOT
ATOM      1  C   UNN dAMED       0.656  -1.182  -0.081  0.00  0.00     0.095 C 
ATOM      2  C   UNN dAMED      -0.673  -1.194  -0.207  0.00  0.00     0.181 C 
ATOM      3  C   UNN dAMED       1.221   0.265   0.062  0.00  0.00     0.007 C 
ATOM      4  C   UNN dAMED      -0.081   0.970  -0.060  0.00  0.00     0.003 C 
ATOM      5  C   UNN dAMED      -1.155   0.178  -0.080  0.00  0.00     0.185 C 
ATOM      6  O   UNN dAMED      -1.158  -1.850  -1.157  0.00  0.00    -0.293 OA
ATOM      7  C   UNN dAMED       2.381  -0.362   0.170  0.00  0.00     0.144 C 
ENDROOT
BRANCH   7   8
ATOM      8  N   UNN dAMED       3.617   0.373   0.069  0.00  0.00    -0.112 N 
ATOM      9  O   UNN dAMED       3.661   1.457   0.680  0.00  0.00    -0.532 OA
ATOM     10  O   UNN dAMED       4.518  -0.012  -0.702  0.00  0.00    -0.532 OA
ENDBRANCH   7   8
BRANCH   5  11
ATOM     11  N   UNN dAMED      -2.070   0.475   0.865  0.00  0.00    -0.228 NA
ATOM     12  C   UNN dAMED      -3.272   0.619   0.322  0.00  0.00     0.253 C 
ATOM     13  O   UNN dAMED      -4.357   0.547   0.910  0.00  0.00    -0.271 OA
ATOM     14  C   UNN dAMED      -3.271   0.984  -1.150  0.00  0.00     0.100 C 
ENDBRANCH   5  11
TORSDOF 2
