REMARK  2 active torsions:
REMARK  status: ('A' for Active; 'I' for Inactive)
REMARK    1  A    between atoms: O_1  and  C_2 
REMARK    2  A    between atoms: O_8  and  C_9 
ROOT
ATOM      1  C   UNN dAMED      -3.039   0.930   0.063  0.00  0.00     0.133 A 
ATOM      2  C   UNN dAMED      -3.599  -0.355   0.112  0.00  0.00     0.217 A 
ATOM      3  C   UNN dAMED      -1.663   1.178   0.056  0.00  0.00     0.027 A 
ATOM      4  C   UNN dAMED      -2.631  -1.367   0.140  0.00  0.00     0.040 A 
ATOM      5  C   UNN dAMED      -0.724   0.149   0.082  0.00  0.00     0.001 A 
ATOM      6  C   UNN dAMED      -1.250  -1.140   0.101  0.00  0.00    -0.013 A 
ATOM      7  C   UNN dAMED       1.305   1.699   0.201  0.00  0.00     0.133 A 
ATOM      8  C   UNN dAMED      -0.323  -2.307   0.135  0.00  0.00     0.064 C 
ATOM      9  C   UNN dAMED       0.737   0.401   0.054  0.00  0.00     0.026 A 
ATOM     10  C   UNN dAMED       1.122  -2.092  -0.290  0.00  0.00     0.018 C 
ATOM     11  C   UNN dAMED       1.635  -0.664  -0.130  0.00  0.00     0.005 A 
ATOM     12  C   UNN dAMED       2.690   2.001   0.146  0.00  0.00     0.217 A 
ATOM     13  N   UNN dAMED       2.063  -3.348  -0.068  0.00  0.00    -0.254 NA
ATOM     14  C   UNN dAMED       3.504   0.881  -0.070  0.00  0.00     0.040 A 
ATOM     15  C   UNN dAMED       2.999  -0.410  -0.218  0.00  0.00    -0.017 A 
ATOM     16  C   UNN dAMED       3.897  -1.577  -0.457  0.00  0.00     0.044 C 
ATOM     17  C   UNN dAMED       3.191  -2.865  -0.879  0.00  0.00     0.081 C 
ATOM     18  O   UNN dAMED      -4.849  -0.610   0.122  0.00  0.00    -0.284 OA
ATOM     19  O   UNN dAMED       3.179   3.174   0.277  0.00  0.00    -0.284 OA
ATOM     20  C   UNN dAMED       1.139  -2.114  -0.286  0.00  0.00     0.094 C 
ENDROOT
BRANCH   1  21
ATOM     21  O   UNN dAMED      -3.858   2.029   0.004  0.00  0.00    -0.325 OA
ATOM     22  C   UNN dAMED      -5.149   1.499  -0.025  0.00  0.00     0.181 C 
ENDBRANCH   1  21
BRANCH   7  23
ATOM     23  O   UNN dAMED       0.461   2.765   0.449  0.00  0.00    -0.325 OA
ATOM     24  C   UNN dAMED      -0.596   2.211   1.175  0.00  0.00     0.181 C 
ENDBRANCH   7  23
TORSDOF 2
