REMARK  2 active torsions:
REMARK  status: ('A' for Active; 'I' for Inactive)
REMARK    1  A    between atoms: C_5  and  C_7 
REMARK       I    between atoms: C_7  and  N_18 
REMARK    2  A    between atoms: C_9  and  N_18 
ROOT
ATOM      1  C   UNN dAMED      -0.715  -0.285  -0.555  0.00  0.00     0.280 C 
ATOM      2  O   UNN dAMED       0.000   0.622  -0.137  0.00  0.00    -0.265 OA
ATOM      3  N   UNN dAMED      -0.336  -1.368  -1.246  0.00  0.00    -0.207 NA
ENDROOT
BRANCH   1   4
ATOM      4  C   UNN dAMED      -2.183  -0.153  -0.365  0.00  0.00     0.071 A 
ATOM      5  C   UNN dAMED      -3.076  -0.546  -1.366  0.00  0.00     0.006 A 
ATOM      6  C   UNN dAMED      -4.450  -0.442  -1.155  0.00  0.00     0.000 A 
ATOM      7  C   UNN dAMED      -4.934   0.084   0.040  0.00  0.00     0.001 A 
ATOM      8  C   UNN dAMED      -4.045   0.518   1.021  0.00  0.00     0.014 A 
ATOM      9  C   UNN dAMED      -2.671   0.394   0.823  0.00  0.00     0.075 A 
ATOM     10  N   UNN dAMED      -1.773   0.836   1.835  0.00  0.00    -0.100 NA
ENDBRANCH   1   4
BRANCH   3  11
ATOM     11  C   UNN dAMED       0.560  -2.141  -0.590  0.00  0.00     0.095 A 
ATOM     12  C   UNN dAMED       1.933  -2.181  -0.912  0.00  0.00     0.076 A 
ATOM     13 CL   UNN dAMED       2.623  -1.158  -2.123  0.00  0.00    -0.081 Cl
ATOM     14  C   UNN dAMED       2.814  -3.041  -0.250  0.00  0.00     0.024 A 
ATOM     15  C   UNN dAMED       2.342  -3.866   0.761  0.00  0.00     0.059 A 
ATOM     16  C   UNN dAMED       0.997  -3.862   1.100  0.00  0.00     0.013 A 
ATOM     17 CL   UNN dAMED       3.436  -4.873   1.615  0.00  0.00    -0.082 Cl
ATOM     18  C   UNN dAMED       0.121  -3.019   0.415  0.00  0.00     0.021 A 
ENDBRANCH   3  11
TORSDOF 2
