REMARK  3 active torsions:
REMARK  status: ('A' for Active; 'I' for Inactive)
REMARK    1  A    between atoms: C_9  and  N_24 
REMARK    2  A    between atoms: C_15  and  N_25 
REMARK       I    between atoms: C_17  and  N_24 
REMARK    3  A    between atoms: C_18  and  N_25 
ROOT
ATOM      1  N   UNN dAMED       0.996   0.067   0.459  0.00  0.00    -0.040 NA
ATOM      2  N   UNN dAMED      -1.113   1.264   0.407  0.00  0.00    -0.046 NA
ATOM      3  N   UNN dAMED      -0.857   3.485  -0.511  0.00  0.00    -0.137 NA
ATOM      4  N   UNN dAMED       0.106   4.344  -0.873  0.00  0.00    -0.188 NA
ATOM      5  C   UNN dAMED      -0.397   2.265  -0.125  0.00  0.00     0.162 A 
ATOM      6  C   UNN dAMED       0.956   2.269  -0.409  0.00  0.00     0.087 A 
ATOM      7  C   UNN dAMED       1.663   1.096  -0.137  0.00  0.00     0.185 A 
ATOM      8  C   UNN dAMED       1.200   3.574  -0.897  0.00  0.00     0.120 C 
ATOM      9  C   UNN dAMED      -0.346   0.183   0.679  0.00  0.00     0.752 A 
ATOM     10  N   UNN dAMED      -1.004  -0.821   1.303  0.00  0.00    -0.058 NA
ATOM     11  C   UNN dAMED      -1.604   4.055   0.557  0.00  0.00     0.123 C 
ENDROOT
BRANCH   7  12
ATOM     12  N   UNN dAMED       2.990   1.033  -0.354  0.00  0.00    -0.225 NA
BRANCH  12  13
ATOM     13  C   UNN dAMED       3.374   0.005  -1.150  0.00  0.00     0.094 A 
ATOM     14  C   UNN dAMED       3.289  -0.005  -2.557  0.00  0.00     0.075 A 
ATOM     15 CL   UNN dAMED       2.631   1.313  -3.463  0.00  0.00    -0.081 Cl
ATOM     16  C   UNN dAMED       3.757  -1.089  -3.307  0.00  0.00     0.013 A 
ATOM     17  C   UNN dAMED       4.343  -2.180  -2.677  0.00  0.00     0.001 A 
ATOM     18  C   UNN dAMED       4.469  -2.186  -1.295  0.00  0.00     0.002 A 
ATOM     19  C   UNN dAMED       3.993  -1.106  -0.552  0.00  0.00     0.020 A 
ENDBRANCH  12  13
ENDBRANCH   7  12
BRANCH  10  20
ATOM     20  C   UNN dAMED      -0.576  -2.073   1.022  0.00  0.00     0.110 A 
ATOM     21  C   UNN dAMED       0.194  -2.745   1.986  0.00  0.00     0.021 A 
ATOM     22  C   UNN dAMED       0.638  -4.054   1.807  0.00  0.00     0.002 A 
ATOM     23  C   UNN dAMED       0.308  -4.737   0.645  0.00  0.00     0.001 A 
ATOM     24  C   UNN dAMED      -0.469  -4.112  -0.324  0.00  0.00     0.013 A 
ATOM     25  C   UNN dAMED      -0.913  -2.800  -0.137  0.00  0.00     0.076 A 
ATOM     26 CL   UNN dAMED      -1.898  -2.135  -1.393  0.00  0.00    -0.081 Cl
ENDBRANCH  10  20
TORSDOF 3
