REMARK  0 active torsions:
REMARK  status: ('A' for Active; 'I' for Inactive)
ROOT
ATOM      1  O   UNN dAMED      -2.555  -0.180  -0.282  0.00  0.00    -0.307 OA
ATOM      2  O   UNN dAMED      -1.948  -4.855  -0.041  0.00  0.00    -0.283 OA
ATOM      3  C   UNN dAMED       4.525   0.188   0.278  0.00  0.00     0.003 A 
ATOM      4  C   UNN dAMED       3.768   0.224   1.452  0.00  0.00     0.042 A 
ATOM      5  C   UNN dAMED       3.883   0.126  -0.946  0.00  0.00     0.000 A 
ATOM      6  C   UNN dAMED       2.361   0.200   1.490  0.00  0.00     0.196 A 
ATOM      7  C   UNN dAMED       2.496   0.100  -0.979  0.00  0.00     0.003 A 
ATOM      8  C   UNN dAMED       1.744   0.130   0.210  0.00  0.00     0.039 A 
ATOM      9  C   UNN dAMED       0.276   0.104   0.042  0.00  0.00     0.007 A 
ATOM     10  C   UNN dAMED      -0.300  -1.107  -0.005  0.00  0.00     0.026 A 
ATOM     11  C   UNN dAMED       0.577  -2.338   0.120  0.00  0.00     0.047 A 
ATOM     12  C   UNN dAMED       0.075  -3.579   0.116  0.00  0.00     0.234 A 
ATOM     13  C   UNN dAMED      -0.621   1.259  -0.077  0.00  0.00     0.026 A 
ATOM     14  C   UNN dAMED      -0.149   2.569  -0.033  0.00  0.00     0.047 A 
ATOM     15  C   UNN dAMED      -0.962   3.724  -0.133  0.00  0.00     0.234 A 
ATOM     16  C   UNN dAMED      -1.394  -3.764  -0.031  0.00  0.00     0.236 A 
ATOM     17  C   UNN dAMED      -1.727  -1.286  -0.164  0.00  0.00     0.103 A 
ATOM     18  C   UNN dAMED      -1.981   1.066  -0.231  0.00  0.00     0.103 A 
ATOM     19  C   UNN dAMED      -2.380   3.511  -0.294  0.00  0.00     0.236 A 
ATOM     20  C   UNN dAMED      -2.247  -2.519  -0.185  0.00  0.00     0.070 A 
ATOM     21  C   UNN dAMED      -2.822   2.168  -0.336  0.00  0.00     0.070 A 
ATOM     22  O   UNN dAMED      -0.413   4.880  -0.077  0.00  0.00    -0.283 OA
ATOM     23  O   UNN dAMED      -3.240   4.455  -0.398  0.00  0.00    -0.283 OA
ATOM     24  O   UNN dAMED       1.735   0.240   2.603  0.00  0.00    -0.287 OA
ATOM     25  O   UNN dAMED       0.843  -4.560   0.239  0.00  0.00    -0.283 OA
ENDROOT
TORSDOF 0
