REMARK  2 active torsions:
REMARK  status: ('A' for Active; 'I' for Inactive)
REMARK    1  A    between atoms: C_7  and  AS_12 
REMARK    2  A    between atoms: C_8  and  AS_12 
ROOT
ATOM      1  O   UNN dAMED      -0.251   2.333   1.397  0.00  0.00     0.000 OA
ATOM      2 AS   UNN dAMED       0.079   1.047   0.524  0.00  0.00     0.000 As
ATOM      3  O   UNN dAMED       0.909  -0.134   1.531  0.00  0.00     0.000 OA
ENDROOT
BRANCH   2   4
ATOM      4  C   UNN dAMED       1.209   1.563  -0.939  0.00  0.00     0.035 A 
ATOM      5  S   UNN dAMED       1.708   2.966  -1.700  0.00  0.00    -0.086 SA
ATOM      6  C   UNN dAMED       2.596   2.082  -2.845  0.00  0.00     0.035 A 
ATOM      7  C   UNN dAMED       2.513   0.728  -2.654  0.00  0.00     0.007 A 
ATOM      8  C   UNN dAMED       1.700   0.420  -1.537  0.00  0.00     0.007 A 
ENDBRANCH   2   4
BRANCH   2   9
ATOM      9  C   UNN dAMED      -1.555   0.305  -0.156  0.00  0.00     0.035 A 
ATOM     10  S   UNN dAMED      -2.338   0.190  -1.632  0.00  0.00    -0.086 SA
ATOM     11  C   UNN dAMED      -3.639  -0.641  -0.925  0.00  0.00     0.035 A 
ATOM     12  C   UNN dAMED      -3.483  -0.828   0.423  0.00  0.00     0.007 A 
ATOM     13  C   UNN dAMED      -2.263  -0.272   0.878  0.00  0.00     0.007 A 
ENDBRANCH   2   9
TORSDOF 2
