REMARK  4 active torsions:
REMARK  status: ('A' for Active; 'I' for Inactive)
REMARK    1  A    between atoms: N_6  and  C_13 
REMARK    2  A    between atoms: C_13  and  C_14 
REMARK    3  A    between atoms: C_14  and  C_15 
REMARK    4  A    between atoms: C_15  and  C_16 
ROOT
ATOM      1  N   UNN dAMED      -3.502  -0.096   0.502  0.00  0.00    -0.203 NA
ATOM      2  N   UNN dAMED      -1.551   1.091  -0.235  0.00  0.00    -0.317 N 
ATOM      3  S   UNN dAMED      -3.461  -2.808   0.885  0.00  0.00    -0.056 SA
ATOM      4  H   UNN dAMED      -1.155   1.976  -0.535  0.00  0.00     0.169 HD
ATOM      5  N   UNN dAMED      -0.471  -2.251   0.050  0.00  0.00    -0.226 NA
ATOM      6  N   UNN dAMED       0.411  -0.300  -0.580  0.00  0.00    -0.200 NA
ATOM      7  C   UNN dAMED      -2.820  -1.315   0.499  0.00  0.00     0.158 A 
ATOM      8  C   UNN dAMED      -1.421  -1.263   0.116  0.00  0.00     0.137 A 
ATOM      9  C   UNN dAMED      -0.871  -0.060  -0.234  0.00  0.00     0.124 A 
ATOM     10  C   UNN dAMED       0.640  -1.626  -0.307  0.00  0.00     0.154 A 
ATOM     11  C   UNN dAMED      -2.882   1.006   0.152  0.00  0.00     0.217 A 
ATOM     12  N   UNN dAMED      -3.634   2.217   0.181  0.00  0.00    -0.061 NA
ENDROOT
BRANCH   6  13
ATOM     13  C   UNN dAMED       1.263   0.485   0.246  0.00  0.00     0.085 C 
BRANCH  13  14
ATOM     14  C   UNN dAMED       1.655  -0.018   1.640  0.00  0.00     0.018 C 
BRANCH  14  15
ATOM     15  C   UNN dAMED       2.754   0.694   2.435  0.00  0.00     0.002 C 
BRANCH  15  16
ATOM     16  C   UNN dAMED       3.803   1.541   1.707  0.00  0.00     0.000 C 
ATOM     17  C   UNN dAMED       3.510   3.009   1.382  0.00  0.00     0.000 C 
ENDBRANCH  15  16
ENDBRANCH  14  15
ENDBRANCH  13  14
ENDBRANCH   6  13
TORSDOF 4
