REMARK  0 active torsions:
REMARK  status: ('A' for Active; 'I' for Inactive)
ROOT
ATOM      1  N   UNN dAMED      -2.683  -0.740  -0.823  0.00  0.00    -0.213 NA
ATOM      2  S   UNN dAMED      -3.956  -0.250   1.552  0.00  0.00    -0.056 SA
ATOM      3  N   UNN dAMED      -0.407  -0.084  -1.241  0.00  0.00    -0.326 N 
ATOM      4  H   UNN dAMED       0.400  -0.016  -1.854  0.00  0.00     0.168 HD
ATOM      5  N   UNN dAMED      -1.098   0.969   2.049  0.00  0.00    -0.226 NA
ATOM      6  N   UNN dAMED       0.609   1.084   0.622  0.00  0.00    -0.201 NA
ATOM      7  C   UNN dAMED      -2.699  -0.225   0.461  0.00  0.00     0.157 A 
ATOM      8  C   UNN dAMED      -1.451   0.391   0.853  0.00  0.00     0.137 A 
ATOM      9  C   UNN dAMED      -0.391   0.433  -0.010  0.00  0.00     0.123 A 
ATOM     10  C   UNN dAMED       0.170   1.318   1.901  0.00  0.00     0.154 A 
ATOM     11  C   UNN dAMED      -1.689  -0.695  -1.610  0.00  0.00     0.177 A 
ATOM     12  C   UNN dAMED       2.728   0.091  -0.475  0.00  0.00     0.017 C 
ATOM     13  C   UNN dAMED       1.738   0.222   0.684  0.00  0.00     0.069 C 
ATOM     14  C   UNN dAMED       3.459  -1.245  -0.301  0.00  0.00     0.002 C 
ATOM     15  C   UNN dAMED       2.831  -1.980   0.891  0.00  0.00     0.002 C 
ATOM     16  C   UNN dAMED       1.712  -1.098   1.456  0.00  0.00     0.017 C 
ENDROOT
TORSDOF 0
