REMARK  2 active torsions:
REMARK  status: ('A' for Active; 'I' for Inactive)
REMARK    1  A    between atoms: C_5  and  S_6 
REMARK    2  A    between atoms: C_7  and  N_8 
ROOT
ATOM      1  S   UNN dAMED      -3.306   0.433   0.000  0.00  0.00    -0.074 SA
ATOM      2  C   UNN dAMED      -1.701   0.312  -0.003  0.00  0.00     0.102 A 
ATOM      3  C   UNN dAMED      -0.655   1.318   0.000  0.00  0.00     0.222 A 
ATOM      4  O   UNN dAMED      -0.697   2.521   0.000  0.00  0.00    -0.284 OA
ATOM      5  C   UNN dAMED      -0.679  -0.710  -0.001  0.00  0.00     0.057 A 
ATOM      6  C   UNN dAMED       0.325   0.213   0.001  0.00  0.00     0.103 A 
ENDROOT
BRANCH   6   7
ATOM      7  N   UNN dAMED       1.628   0.295   0.002  0.00  0.00    -0.341 N 
ATOM      8  C   UNN dAMED       2.425  -0.911  -0.119  0.00  0.00     0.126 C 
ATOM      9  C   UNN dAMED       2.269   1.590   0.121  0.00  0.00     0.126 C 
ENDBRANCH   6   7
BRANCH   5  10
ATOM     10  S   UNN dAMED      -0.691  -2.440  -0.003  0.00  0.00    -0.110 SA
ATOM     11  C   UNN dAMED      -2.313  -2.583  -0.747  0.00  0.00     0.074 C 
ENDBRANCH   5  10
TORSDOF 2
