REMARK  4 active torsions:
REMARK  status: ('A' for Active; 'I' for Inactive)
REMARK    1  A    between atoms: C_1  and  N_3 
REMARK    2  A    between atoms: N_3  and  C_4 
REMARK    3  A    between atoms: N_6  and  C_7 
REMARK    4  A    between atoms: C_7  and  C_8 
ROOT
ATOM      1  C   UNN dAMED      -0.986   0.954   1.093  0.00  0.00     0.212 C 
ATOM      2  S   UNN dAMED      -1.789   0.987   2.564  0.00  0.00    -0.037 SA
ATOM      3  N   UNN dAMED       0.244   1.428   0.922  0.00  0.00    -0.239 NA
ENDROOT
BRANCH   1   4
ATOM      4  N   UNN dAMED      -1.511   0.457  -0.022  0.00  0.00    -0.244 NA
BRANCH   4   5
ATOM      5  C   UNN dAMED      -2.872  -0.057  -0.030  0.00  0.00     0.128 C 
ATOM      6  C   UNN dAMED      -4.055   0.900  -0.208  0.00  0.00     0.029 C 
ENDBRANCH   4   5
ENDBRANCH   1   4
BRANCH   3   7
ATOM      7  C   UNN dAMED       0.976   1.148  -0.303  0.00  0.00     0.154 C 
BRANCH   7   8
ATOM      8  C   UNN dAMED       0.603   1.866  -1.605  0.00  0.00     0.000 C 
ATOM      9  C   UNN dAMED      -0.677   2.099  -1.890  0.00  0.00    -0.003 C 
ENDBRANCH   7   8
ENDBRANCH   3   7
TORSDOF 4
