REMARK  1 active torsions:
REMARK  status: ('A' for Active; 'I' for Inactive)
REMARK    1  A    between atoms: C_4  and  C_14 
ROOT
ATOM      1  O   UNN dAMED      -0.259   0.709   2.430  0.00  0.00    -0.291 OA
ATOM      2  N   UNN dAMED       1.625  -0.513  -1.395  0.00  0.00    -0.156 NA
ATOM      3  N   UNN dAMED       0.240  -0.632  -1.797  0.00  0.00    -0.152 NA
ATOM      4  C   UNN dAMED       1.647  -0.265  -0.116  0.00  0.00     0.070 C 
ATOM      5  C   UNN dAMED       0.338  -0.577   0.496  0.00  0.00     0.141 C 
ATOM      6  C   UNN dAMED      -0.540   0.334   1.309  0.00  0.00     0.184 C 
ATOM      7  C   UNN dAMED      -1.890   0.298   0.699  0.00  0.00     0.037 A 
ATOM      8  C   UNN dAMED      -3.061   0.871   1.147  0.00  0.00     0.003 A 
ATOM      9  C   UNN dAMED      -4.179   0.742   0.318  0.00  0.00     0.000 A 
ATOM     10  C   UNN dAMED      -0.448  -0.838  -0.715  0.00  0.00     0.093 C 
ATOM     11  C   UNN dAMED      -1.827  -0.393  -0.523  0.00  0.00     0.019 A 
ATOM     12  C   UNN dAMED      -4.100   0.086  -0.926  0.00  0.00     0.000 A 
ATOM     13  C   UNN dAMED      -2.908  -0.489  -1.372  0.00  0.00     0.001 A 
ENDROOT
BRANCH   4  14
ATOM     14  C   UNN dAMED       2.924  -0.206   0.658  0.00  0.00     0.034 C 
ATOM     15  C   UNN dAMED       3.559   1.524   0.573  0.00  0.00     0.006 C 
ATOM     16  C   UNN dAMED       3.561   1.529   0.573  0.00  0.00     0.006 C 
ATOM     17  C   UNN dAMED       3.560   1.525   0.573  0.00  0.00     0.006 C 
ENDBRANCH   4  14
TORSDOF 1
