REMARK  2 active torsions:
REMARK  status: ('A' for Active; 'I' for Inactive)
REMARK    1  A    between atoms: C_7  and  C_10 
REMARK       I    between atoms: C_10  and  N_14 
REMARK    2  A    between atoms: C_11  and  N_14 
ROOT
ATOM      1 CL   UNN dAMED      -5.482   0.281   0.311  0.00  0.00    -0.082 Cl
ATOM      2  C   UNN dAMED      -3.773   0.353   0.178  0.00  0.00     0.059 A 
ATOM      3  C   UNN dAMED      -3.162   1.569  -0.113  0.00  0.00     0.012 A 
ATOM      4  C   UNN dAMED      -3.019  -0.802   0.372  0.00  0.00     0.023 A 
ATOM      5  C   UNN dAMED      -1.776   1.631  -0.218  0.00  0.00     0.006 A 
ATOM      6  C   UNN dAMED      -1.631  -0.743   0.268  0.00  0.00     0.063 A 
ATOM      7  C   UNN dAMED      -1.013   0.477  -0.022  0.00  0.00     0.069 A 
ATOM      8 CL   UNN dAMED      -0.743  -2.201   0.487  0.00  0.00    -0.082 Cl
ENDROOT
BRANCH   7   9
ATOM      9  C   UNN dAMED       0.441   0.601  -0.214  0.00  0.00     0.281 C 
ATOM     10  O   UNN dAMED       0.860   0.457  -1.361  0.00  0.00    -0.265 OA
ATOM     11  N   UNN dAMED       1.090   0.956   0.897  0.00  0.00    -0.188 NA
BRANCH  11  12
ATOM     12  C   UNN dAMED       2.407   0.555   0.983  0.00  0.00     0.174 A 
ATOM     13  N   UNN dAMED       3.224   1.271   1.761  0.00  0.00    -0.190 NA
ATOM     14  S   UNN dAMED       4.732   0.576   1.752  0.00  0.00     0.015 SA
ATOM     15  C   UNN dAMED       4.325  -0.704   0.712  0.00  0.00     0.058 A 
ATOM     16  C   UNN dAMED       2.997  -0.606   0.387  0.00  0.00     0.048 A 
ENDBRANCH  11  12
ENDBRANCH   7   9
TORSDOF 2
