REMARK  0 active torsions:
REMARK  status: ('A' for Active; 'I' for Inactive)
ROOT
ATOM      1  N   UNN dAMED      -1.922   2.525   0.569  0.00  0.00    -0.242 NA
ATOM      2  C   UNN dAMED      -2.734   1.433   0.428  0.00  0.00     0.099 A 
ATOM      3  C   UNN dAMED      -2.265   0.143   0.170  0.00  0.00     0.019 A 
ATOM      4  C   UNN dAMED      -0.887   0.053   0.065  0.00  0.00     0.003 A 
ATOM      5  C   UNN dAMED      -2.984  -1.052   0.004  0.00  0.00     0.002 A 
ATOM      6  C   UNN dAMED      -0.020   1.118   0.199  0.00  0.00     0.019 A 
ATOM      7  C   UNN dAMED      -0.575   2.347   0.452  0.00  0.00     0.099 A 
ATOM      8  C   UNN dAMED       1.332   0.621   0.025  0.00  0.00     0.002 A 
ATOM      9  C   UNN dAMED       2.555   1.258   0.060  0.00  0.00     0.000 A 
ATOM     10  C   UNN dAMED       3.689   0.470  -0.151  0.00  0.00     0.000 A 
ATOM     11  C   UNN dAMED      -2.288  -2.252  -0.253  0.00  0.00     0.000 A 
ATOM     12  C   UNN dAMED      -0.185  -1.116  -0.186  0.00  0.00     0.000 A 
ATOM     13  C   UNN dAMED       1.229  -0.781  -0.217  0.00  0.00     0.000 A 
ATOM     14  C   UNN dAMED       3.589  -0.913  -0.389  0.00  0.00     0.000 A 
ATOM     15  C   UNN dAMED      -0.885  -2.295  -0.350  0.00  0.00     0.000 A 
ATOM     16  C   UNN dAMED       2.351  -1.558  -0.425  0.00  0.00     0.000 A 
ENDROOT
TORSDOF 0
