REMARK  4 active torsions:
REMARK  status: ('A' for Active; 'I' for Inactive)
REMARK    1  A    between atoms: C_8  and  O_13 
REMARK    2  A    between atoms: C_9  and  O_10 
REMARK    3  A    between atoms: O_10  and  C_11 
REMARK    4  A    between atoms: O_13  and  C_14 
ROOT
ATOM      1  N   UNN dAMED      -0.457   0.948   0.121  0.00  0.00    -0.181 NA
ATOM      2  N   UNN dAMED      -1.125  -1.327  -0.456  0.00  0.00    -0.192 NA
ATOM      3  N   UNN dAMED       0.804  -2.771  -0.733  0.00  0.00    -0.138 NA
ATOM      4  N   UNN dAMED       2.124  -2.779  -0.492  0.00  0.00    -0.188 NA
ATOM      5  C   UNN dAMED       0.192  -1.593  -0.438  0.00  0.00     0.147 A 
ATOM      6  C   UNN dAMED       1.218  -0.708  -0.154  0.00  0.00     0.091 A 
ATOM      7  C   UNN dAMED       2.388  -1.493  -0.229  0.00  0.00     0.120 C 
ATOM      8  C   UNN dAMED       0.849   0.602   0.125  0.00  0.00     0.185 A 
ATOM      9  C   UNN dAMED      -1.354  -0.027  -0.161  0.00  0.00     0.273 A 
ATOM     10  C   UNN dAMED       0.192  -3.816   0.012  0.00  0.00     0.123 C 
ENDROOT
BRANCH   8  11
ATOM     11  O   UNN dAMED       1.770   1.573   0.426  0.00  0.00    -0.315 OA
BRANCH  11  12
ATOM     12  C   UNN dAMED       2.949   0.880   0.708  0.00  0.00     0.151 C 
ATOM     13  C   UNN dAMED       4.270   1.643   0.847  0.00  0.00     0.035 C 
ENDBRANCH  11  12
ENDBRANCH   8  11
BRANCH   9  14
ATOM     14  O   UNN dAMED      -2.673   0.366  -0.144  0.00  0.00    -0.300 OA
BRANCH  14  15
ATOM     15  C   UNN dAMED      -2.645   1.672   0.353  0.00  0.00     0.152 C 
ATOM     16  C   UNN dAMED      -3.774   2.651   0.017  0.00  0.00     0.035 C 
ENDBRANCH  14  15
ENDBRANCH   9  14
TORSDOF 4
