REMARK  3 active torsions:
REMARK  status: ('A' for Active; 'I' for Inactive)
REMARK    1  A    between atoms: S_1  and  C_3 
REMARK    2  A    between atoms: C_5  and  C_7 
REMARK       I    between atoms: C_7  and  N_17 
REMARK    3  A    between atoms: C_9  and  N_17 
ROOT
ATOM      1  C   UNN dAMED      -0.217   0.887  -0.626  0.00  0.00     0.287 C 
ATOM      2  O   UNN dAMED      -1.206   1.378  -0.091  0.00  0.00    -0.265 OA
ATOM      3  N   UNN dAMED       1.036   1.150  -0.264  0.00  0.00    -0.216 NA
ENDROOT
BRANCH   1   4
ATOM      4  C   UNN dAMED      -0.330  -0.014  -1.761  0.00  0.00     0.120 A 
ATOM      5  S   UNN dAMED       0.905  -1.057  -2.346  0.00  0.00    -0.054 SA
ATOM      6  C   UNN dAMED      -0.166  -1.646  -3.550  0.00  0.00     0.138 A 
ATOM      7  N   UNN dAMED      -1.379  -1.143  -3.542  0.00  0.00    -0.218 NA
ATOM      8  C   UNN dAMED      -1.457  -0.223  -2.530  0.00  0.00     0.163 A 
ATOM      9  N   UNN dAMED      -2.674   0.460  -2.258  0.00  0.00    -0.079 NA
BRANCH   6  10
ATOM     10  S   UNN dAMED       0.285  -2.865  -4.724  0.00  0.00    -0.087 SA
ATOM     11  C   UNN dAMED      -1.404  -3.325  -5.110  0.00  0.00     0.076 C 
ENDBRANCH   6  10
ENDBRANCH   1   4
BRANCH   3  12
ATOM     12  C   UNN dAMED       2.131   0.325  -0.743  0.00  0.00     0.040 C 
ATOM     13  C   UNN dAMED       2.631  -0.835   0.129  0.00  0.00     0.041 C 
ATOM     14  C   UNN dAMED       4.029  -0.667   0.735  0.00  0.00     0.006 C 
ATOM     15  C   UNN dAMED       5.077  -0.055  -0.200  0.00  0.00     0.001 C 
ATOM     16  C   UNN dAMED       4.584   1.132  -1.030  0.00  0.00     0.006 C 
ATOM     17  C   UNN dAMED       3.193   0.960  -1.649  0.00  0.00     0.041 C 
ENDBRANCH   3  12
TORSDOF 3
