REMARK  6 active torsions:
REMARK  status: ('A' for Active; 'I' for Inactive)
REMARK    1  A    between atoms: C_2  and  C_30 
REMARK    2  A    between atoms: C_8  and  N_26 
REMARK    3  A    between atoms: C_9  and  N_24 
REMARK    4  A    between atoms: C_15  and  C_19 
REMARK       I    between atoms: C_19  and  N_21 
REMARK    5  A    between atoms: N_21  and  C_22 
REMARK    6  A    between atoms: N_26  and  C_27 
REMARK       I    between atoms: N_29  and  C_30 
ROOT
ATOM      1  C   UNN dAMED       3.556  -0.234   2.892  0.00  0.00     0.038 A 
ATOM      2  C   UNN dAMED       4.537  -0.978   3.565  0.00  0.00     0.085 A 
ATOM      3  C   UNN dAMED       2.180  -0.463   3.009  0.00  0.00     0.081 A 
ATOM      4  C   UNN dAMED       4.080  -2.048   4.337  0.00  0.00     0.019 A 
ATOM      5  C   UNN dAMED       1.781  -1.551   3.788  0.00  0.00    -0.004 A 
ATOM      6  C   UNN dAMED       2.720  -2.341   4.447  0.00  0.00    -0.001 A 
ATOM      7  C   UNN dAMED       0.317  -1.848   3.950  0.00  0.00     0.033 C 
ENDROOT
BRANCH   2   8
ATOM      8  N   UNN dAMED       5.869  -0.734   3.488  0.00  0.00    -0.217 NA
BRANCH   8   9
ATOM      9  C   UNN dAMED       6.229   0.519   3.146  0.00  0.00     0.223 C 
ATOM     10  S   UNN dAMED       6.193   1.840   4.211  0.00  0.00    -0.037 SA
ATOM     11  N   UNN dAMED       6.926   0.565   1.997  0.00  0.00    -0.179 NA
ATOM     12  C   UNN dAMED       6.142   0.666   0.917  0.00  0.00     0.281 C 
ATOM     13  O   UNN dAMED       5.522   1.650   0.523  0.00  0.00    -0.265 OA
BRANCH  12  14
ATOM     14  C   UNN dAMED       6.123  -0.546   0.078  0.00  0.00     0.058 A 
ATOM     15  C   UNN dAMED       4.920  -1.227  -0.101  0.00  0.00     0.005 A 
ATOM     16  C   UNN dAMED       4.910  -2.415  -0.826  0.00  0.00     0.000 A 
ATOM     17  C   UNN dAMED       6.096  -2.915  -1.361  0.00  0.00     0.000 A 
ATOM     18  C   UNN dAMED       7.292  -2.220  -1.190  0.00  0.00     0.000 A 
ATOM     19  C   UNN dAMED       7.309  -1.027  -0.475  0.00  0.00     0.005 A 
ENDBRANCH  12  14
ENDBRANCH   8   9
ENDBRANCH   2   8
BRANCH   3  20
ATOM     20  N   UNN dAMED       1.301   0.321   2.343  0.00  0.00    -0.218 NA
ATOM     21  C   UNN dAMED       0.785   1.330   3.084  0.00  0.00     0.223 C 
ATOM     22  S   UNN dAMED      -0.851   1.278   3.544  0.00  0.00    -0.037 SA
BRANCH  21  23
ATOM     23  N   UNN dAMED       1.670   2.349   3.205  0.00  0.00    -0.179 NA
ATOM     24  C   UNN dAMED       1.294   3.413   3.916  0.00  0.00     0.281 C 
ATOM     25  O   UNN dAMED       0.863   4.474   3.473  0.00  0.00    -0.265 OA
BRANCH  24  26
ATOM     26  C   UNN dAMED       1.577   3.350   5.362  0.00  0.00     0.058 A 
ATOM     27  C   UNN dAMED       2.888   3.249   5.823  0.00  0.00     0.005 A 
ATOM     28  C   UNN dAMED       3.129   3.229   7.195  0.00  0.00     0.000 A 
ATOM     29  C   UNN dAMED       2.067   3.336   8.093  0.00  0.00     0.000 A 
ATOM     30  C   UNN dAMED       0.761   3.464   7.624  0.00  0.00     0.000 A 
ATOM     31  C   UNN dAMED       0.512   3.474   6.255  0.00  0.00     0.005 A 
ENDBRANCH  24  26
ENDBRANCH  21  23
ENDBRANCH   3  20
TORSDOF 6
