REMARK  3 active torsions:
REMARK  status: ('A' for Active; 'I' for Inactive)
REMARK    1  A    between atoms: C_6  and  C_19 
REMARK    2  A    between atoms: C_7  and  C_19 
REMARK    3  A    between atoms: C_8  and  N_16 
ROOT
ATOM      1  C   UNN dAMED       1.045   1.175  -1.225  0.00  0.00     0.095 A 
ATOM      2  C   UNN dAMED       2.416   1.866  -1.249  0.00  0.00     0.161 A 
ATOM      3  C   UNN dAMED       1.163   2.685  -0.938  0.00  0.00     0.059 A 
ATOM      4  C   UNN dAMED       1.083   3.313   0.425  0.00  0.00    -0.020 A 
ATOM      5  C   UNN dAMED      -0.146   3.547   1.033  0.00  0.00    -0.004 A 
ATOM      6  C   UNN dAMED      -0.193   4.225   2.249  0.00  0.00    -0.000 A 
ATOM      7  C   UNN dAMED       0.983   4.673   2.848  0.00  0.00    -0.000 A 
ATOM      8  C   UNN dAMED       2.260   3.762   1.023  0.00  0.00    -0.004 A 
ATOM      9  C   UNN dAMED       2.211   4.441   2.235  0.00  0.00    -0.000 A 
ENDROOT
BRANCH   1  10
ATOM     10  C   UNN dAMED       0.706   0.189  -0.136  0.00  0.00     0.175 C 
ATOM     11  O   UNN dAMED      -0.379  -0.374  -0.148  0.00  0.00    -0.291 OA
BRANCH  10  12
ATOM     12  C   UNN dAMED       1.676  -0.048   0.927  0.00  0.00     0.035 A 
ATOM     13  C   UNN dAMED       1.275   0.005   2.258  0.00  0.00     0.003 A 
ATOM     14  C   UNN dAMED       2.243  -0.063   3.255  0.00  0.00     0.000 A 
ATOM     15  C   UNN dAMED       3.592  -0.157   2.914  0.00  0.00     0.000 A 
ATOM     16  C   UNN dAMED       3.978  -0.193   1.574  0.00  0.00     0.000 A 
ATOM     17  C   UNN dAMED       3.017  -0.131   0.570  0.00  0.00     0.003 A 
ENDBRANCH  10  12
ENDBRANCH   1  10
BRANCH   2  18
ATOM     18  N   UNN dAMED       3.111   2.136  -2.463  0.00  0.00    -0.140 N 
ATOM     19  O   UNN dAMED       2.927   3.246  -2.976  0.00  0.00    -0.536 OA
ATOM     20  O   UNN dAMED       3.945   1.303  -2.834  0.00  0.00    -0.536 OA
ENDBRANCH   2  18
TORSDOF 3
