REMARK  2 active torsions:
REMARK  status: ('A' for Active; 'I' for Inactive)
REMARK    1  A    between atoms: C_9  and  C_11 
REMARK       I    between atoms: C_11  and  N_20 
REMARK    2  A    between atoms: C_13  and  N_20 
ROOT
ATOM      1  C   UNN dAMED      -2.903   0.290  -5.642  0.00  0.00     0.000 A 
ATOM      2  C   UNN dAMED      -4.023   0.651  -4.897  0.00  0.00     0.000 A 
ATOM      3  C   UNN dAMED      -3.889   0.984  -3.550  0.00  0.00     0.000 A 
ATOM      4  C   UNN dAMED      -2.633   0.958  -2.943  0.00  0.00     0.003 A 
ATOM      5  C   UNN dAMED      -1.503   0.596  -3.696  0.00  0.00     0.000 A 
ATOM      6  C   UNN dAMED      -1.645   0.262  -5.043  0.00  0.00     0.000 A 
ATOM      7  C   UNN dAMED      -2.480   1.284  -1.591  0.00  0.00     0.042 A 
ATOM      8  C   UNN dAMED      -1.249   1.280  -0.907  0.00  0.00     0.200 A 
ATOM      9  C   UNN dAMED      -0.146   0.917  -1.722  0.00  0.00     0.097 A 
ATOM     10  C   UNN dAMED      -0.259   0.575  -3.079  0.00  0.00     0.008 A 
ATOM     11  O   UNN dAMED      -1.179   1.582   0.331  0.00  0.00    -0.286 OA
ENDROOT
BRANCH   9  12
ATOM     12  C   UNN dAMED       1.222   0.850  -1.169  0.00  0.00     0.282 C 
ATOM     13  O   UNN dAMED       1.607  -0.209  -0.686  0.00  0.00    -0.265 OA
ATOM     14  N   UNN dAMED       1.900   1.988  -1.271  0.00  0.00    -0.217 NA
BRANCH  14  15
ATOM     15  C   UNN dAMED       1.271   3.138  -1.902  0.00  0.00     0.040 C 
ATOM     16  C   UNN dAMED       1.111   4.438  -1.103  0.00  0.00     0.041 C 
ATOM     17  C   UNN dAMED       0.255   5.533  -1.748  0.00  0.00     0.006 C 
ATOM     18  C   UNN dAMED       0.437   5.706  -3.256  0.00  0.00     0.001 C 
ATOM     19  C   UNN dAMED       0.499   4.399  -4.047  0.00  0.00     0.006 C 
ATOM     20  C   UNN dAMED       1.356   3.293  -3.426  0.00  0.00     0.041 C 
ENDBRANCH  14  15
ENDBRANCH   9  12
TORSDOF 2
