REMARK  0 active torsions:
REMARK  status: ('A' for Active; 'I' for Inactive)
ROOT
ATOM      1  N   UNN dAMED       0.573   0.143  -0.000  0.00  0.00    -0.281 N 
ATOM      2  N   UNN dAMED       0.940  -2.034   0.000  0.00  0.00    -0.129 NA
ATOM      3  N   UNN dAMED       2.162  -1.381   0.000  0.00  0.00    -0.133 NA
ATOM      4  C   UNN dAMED      -1.462  -1.261   0.000  0.00  0.00     0.035 A 
ATOM      5  C   UNN dAMED      -2.221  -0.159  -0.000  0.00  0.00    -0.018 A 
ATOM      6  C   UNN dAMED       0.025  -1.097  -0.000  0.00  0.00     0.170 A 
ATOM      7  C   UNN dAMED      -1.506   1.183  -0.000  0.00  0.00     0.009 A 
ATOM      8  C   UNN dAMED      -0.173   1.294  -0.000  0.00  0.00     0.044 A 
ATOM      9  C   UNN dAMED       1.911  -0.090   0.000  0.00  0.00     0.147 A 
ATOM     10  C   UNN dAMED      -3.719  -0.200  -0.000  0.00  0.00     0.031 C 
ATOM     11  C   UNN dAMED       0.507   2.630   0.000  0.00  0.00     0.051 C 
ATOM     12  C   UNN dAMED       2.964   0.973   0.000  0.00  0.00     0.074 C 
ENDROOT
TORSDOF 0
