REMARK  2 active torsions:
REMARK  status: ('A' for Active; 'I' for Inactive)
REMARK       I    between atoms: N_2  and  C_14 
REMARK    1  A    between atoms: C_14  and  C_16 
REMARK    2  A    between atoms: C_17  and  C_18 
ROOT
ATOM      1  N   UNN dAMED      -2.293  -0.995  -1.057  0.00  0.00    -0.249 NA
ATOM      2  N   UNN dAMED       1.365  -0.215  -1.187  0.00  0.00    -0.210 NA
ATOM      3  C   UNN dAMED       0.797   0.565  -0.087  0.00  0.00     0.108 A 
ATOM      4  C   UNN dAMED      -0.622   0.194   0.218  0.00  0.00     0.009 A 
ATOM      5  C   UNN dAMED      -1.577   0.927   0.882  0.00  0.00    -0.000 A 
ATOM      6  C   UNN dAMED      -2.914   0.650   0.605  0.00  0.00     0.017 A 
ATOM      7  C   UNN dAMED      -3.915   1.340   1.284  0.00  0.00     0.002 A 
ATOM      8  C   UNN dAMED      -5.251   1.071   1.016  0.00  0.00     0.000 A 
ATOM      9  C   UNN dAMED      -1.018  -0.720  -0.736  0.00  0.00     0.073 A 
ATOM     10  C   UNN dAMED      -3.237  -0.325  -0.369  0.00  0.00     0.081 A 
ATOM     11  C   UNN dAMED      -5.583   0.112   0.067  0.00  0.00     0.002 A 
ATOM     12  C   UNN dAMED       0.169  -0.935  -1.629  0.00  0.00     0.126 A 
ATOM     13  C   UNN dAMED      -4.578  -0.571  -0.615  0.00  0.00     0.019 A 
ATOM     14  C   UNN dAMED       2.224  -1.148  -0.647  0.00  0.00     0.237 C 
ATOM     15  O   UNN dAMED       2.493  -2.223  -1.170  0.00  0.00    -0.274 OA
ENDROOT
BRANCH  14  16
ATOM     16  C   UNN dAMED       2.782  -0.882   0.726  0.00  0.00     0.061 C 
ATOM     17  C   UNN dAMED       2.304   0.122   1.458  0.00  0.00     0.075 C 
BRANCH  17  18
ATOM     18  C   UNN dAMED       2.662   0.212   2.916  0.00  0.00     0.211 C 
ATOM     19  O   UNN dAMED       1.726  -0.012   3.741  0.00  0.00    -0.644 OA
ATOM     20  O   UNN dAMED       3.873   0.469   3.184  0.00  0.00    -0.644 OA
ENDBRANCH  17  18
ENDBRANCH  14  16
TORSDOF 2
