REMARK  2 active torsions:
REMARK  status: ('A' for Active; 'I' for Inactive)
REMARK    1  A    between atoms: O_6  and  C_23 
REMARK    2  A    between atoms: O_6  and  C_28 
ROOT
ATOM      1  N   UNN dAMED      -2.262  -0.422   0.197  0.00  0.00    -0.305 N 
ATOM      2  N   UNN dAMED       1.727   0.475  -0.610  0.00  0.00    -0.198 NA
ATOM      3  N   UNN dAMED       0.899   2.622  -1.235  0.00  0.00    -0.186 NA
ATOM      4 CL   UNN dAMED       4.236  -0.154  -0.794  0.00  0.00    -0.041 Cl
ATOM      5  N   UNN dAMED       3.236   2.155  -1.444  0.00  0.00    -0.175 NA
ATOM      6  C   UNN dAMED      -4.161  -4.056   1.073  0.00  0.00     0.000 A 
ATOM      7  C   UNN dAMED      -4.635  -2.873   1.636  0.00  0.00     0.002 A 
ATOM      8  C   UNN dAMED      -3.054  -4.031   0.228  0.00  0.00     0.002 A 
ATOM      9  C   UNN dAMED      -2.431  -2.821  -0.068  0.00  0.00     0.018 A 
ATOM     10  C   UNN dAMED      -4.003  -1.662   1.361  0.00  0.00     0.018 A 
ATOM     11  C   UNN dAMED      -2.912  -1.638   0.496  0.00  0.00     0.064 A 
ATOM     12  C   UNN dAMED      -4.127   1.299   0.346  0.00  0.00     0.018 A 
ATOM     13  C   UNN dAMED      -4.392   2.663   0.206  0.00  0.00     0.002 A 
ATOM     14  C   UNN dAMED      -2.816   0.850   0.124  0.00  0.00     0.064 A 
ATOM     15  C   UNN dAMED      -1.790   1.737  -0.232  0.00  0.00     0.021 A 
ATOM     16  C   UNN dAMED      -3.393   3.558  -0.148  0.00  0.00     0.000 A 
ATOM     17  C   UNN dAMED      -2.092   3.108  -0.370  0.00  0.00     0.002 A 
ATOM     18  C   UNN dAMED      -0.598   0.971  -0.390  0.00  0.00     0.055 A 
ATOM     19  C   UNN dAMED      -0.928  -0.333  -0.107  0.00  0.00     0.083 A 
ATOM     20  C   UNN dAMED       0.741   1.373  -0.766  0.00  0.00     0.170 A 
ATOM     21  C   UNN dAMED       2.171   2.963  -1.539  0.00  0.00     0.278 A 
ATOM     22  C   UNN dAMED       2.932   0.936  -0.975  0.00  0.00     0.228 A 
ENDROOT
BRANCH  21  23
ATOM     23  O   UNN dAMED       2.437   4.249  -2.010  0.00  0.00    -0.275 OA
BRANCH  23  24
ATOM     24  C   UNN dAMED       1.476   5.177  -1.698  0.00  0.00     0.103 A 
ATOM     25  C   UNN dAMED       1.624   5.988  -0.577  0.00  0.00     0.025 A 
ATOM     26  C   UNN dAMED       0.613   6.895  -0.264  0.00  0.00     0.002 A 
ATOM     27  C   UNN dAMED      -0.526   6.982  -1.066  0.00  0.00     0.000 A 
ATOM     28  C   UNN dAMED      -0.654   6.176  -2.194  0.00  0.00     0.002 A 
ATOM     29  C   UNN dAMED       0.358   5.285  -2.525  0.00  0.00     0.025 A 
ENDBRANCH  23  24
ENDBRANCH  21  23
TORSDOF 2
