REMARK  1 active torsions:
REMARK  status: ('A' for Active; 'I' for Inactive)
REMARK    1  A    between atoms: O_1  and  C_3 
ROOT
ATOM      1  C   UNN dAMED       4.180   0.625   0.386  0.00  0.00     0.046 A 
ATOM      2  C   UNN dAMED       4.219  -0.627  -0.191  0.00  0.00     0.179 A 
ATOM      3  C   UNN dAMED       2.924   1.168   0.614  0.00  0.00     0.023 A 
ATOM      4  N   UNN dAMED       3.134  -1.349  -0.542  0.00  0.00    -0.214 NA
ATOM      5  C   UNN dAMED       1.763   0.469   0.271  0.00  0.00     0.082 A 
ATOM      6  C   UNN dAMED       1.920  -0.791  -0.306  0.00  0.00     0.130 A 
ATOM      7  N   UNN dAMED       0.514   1.042   0.510  0.00  0.00    -0.336 N 
ATOM      8  S   UNN dAMED       0.519  -1.783  -0.787  0.00  0.00    -0.044 SA
ATOM      9  H   UNN dAMED       0.500   1.962   0.933  0.00  0.00     0.168 HD
ATOM     10  C   UNN dAMED      -0.870  -0.758  -0.357  0.00  0.00     0.146 A 
ATOM     11  C   UNN dAMED      -0.741   0.493   0.222  0.00  0.00     0.165 A 
ATOM     12  N   UNN dAMED      -2.085  -1.282  -0.636  0.00  0.00    -0.234 NA
ATOM     13  N   UNN dAMED      -1.848   1.213   0.520  0.00  0.00    -0.225 NA
ATOM     14  C   UNN dAMED      -3.056   0.700   0.246  0.00  0.00     0.101 A 
ATOM     15  C   UNN dAMED      -3.176  -0.564  -0.340  0.00  0.00     0.100 A 
ATOM     16  C   UNN dAMED      -4.442  -1.067  -0.612  0.00  0.00     0.021 A 
ATOM     17  C   UNN dAMED      -4.207   1.420   0.540  0.00  0.00     0.021 A 
ATOM     18  C   UNN dAMED      -5.473   0.912   0.265  0.00  0.00     0.002 A 
ATOM     19  C   UNN dAMED      -5.592  -0.341  -0.316  0.00  0.00     0.002 A 
ENDROOT
BRANCH   2  20
ATOM     20  O   UNN dAMED       5.444  -1.193  -0.431  0.00  0.00    -0.312 OA
ATOM     21  C   UNN dAMED       6.372  -0.277   0.071  0.00  0.00     0.183 C 
ENDBRANCH   2  20
TORSDOF 1
