REMARK  3 active torsions:
REMARK  status: ('A' for Active; 'I' for Inactive)
REMARK    1  A    between atoms: C_10  and  C_13 
REMARK    2  A    between atoms: C_13  and  S_14 
REMARK    3  A    between atoms: S_14  and  C_15 
ROOT
ATOM      1  C   UNN dAMED      -3.776  -2.296   0.640  0.00  0.00     0.020 A 
ATOM      2  C   UNN dAMED      -5.037  -1.830   0.232  0.00  0.00     0.001 A 
ATOM      3  C   UNN dAMED      -5.191  -0.629  -0.468  0.00  0.00    -0.003 A 
ATOM      4  C   UNN dAMED      -4.078   0.109  -0.858  0.00  0.00    -0.010 A 
ATOM      5  C   UNN dAMED      -4.115   1.574  -1.178  0.00  0.00     0.029 C 
ATOM      6  C   UNN dAMED      -2.726   2.219  -1.274  0.00  0.00     0.023 C 
ATOM      7  C   UNN dAMED      -1.604   1.487  -0.516  0.00  0.00     0.083 C 
ATOM      8  C   UNN dAMED      -2.838  -0.397  -0.482  0.00  0.00     0.055 A 
ATOM      9  N   UNN dAMED      -1.580   0.076  -0.685  0.00  0.00    -0.218 NA
ATOM     10  C   UNN dAMED      -0.742  -0.576   0.155  0.00  0.00     0.112 C 
ATOM     11  N   UNN dAMED      -1.319  -1.649   0.660  0.00  0.00    -0.236 NA
ATOM     12  C   UNN dAMED      -2.650  -1.533   0.292  0.00  0.00     0.092 A 
ENDROOT
BRANCH  10  13
ATOM     13  C   UNN dAMED       0.728  -0.284   0.263  0.00  0.00     0.120 C 
BRANCH  13  14
ATOM     14  S   UNN dAMED       1.924  -1.296  -0.615  0.00  0.00    -0.106 SA
BRANCH  14  15
ATOM     15  C   UNN dAMED       3.156  -0.027  -0.724  0.00  0.00     0.026 A 
ATOM     16  C   UNN dAMED       4.450  -0.339  -1.136  0.00  0.00     0.007 A 
ATOM     17  C   UNN dAMED       5.413   0.663  -1.236  0.00  0.00     0.015 A 
ATOM     18  C   UNN dAMED       5.081   1.978  -0.924  0.00  0.00     0.070 A 
ATOM     19  C   UNN dAMED       3.789   2.294  -0.508  0.00  0.00     0.015 A 
ATOM     20  N   UNN dAMED       6.060   3.005  -1.039  0.00  0.00    -0.101 NA
ATOM     21  C   UNN dAMED       2.828   1.291  -0.408  0.00  0.00     0.007 A 
ENDBRANCH  14  15
ENDBRANCH  13  14
ENDBRANCH  10  13
TORSDOF 3
