REMARK  4 active torsions:
REMARK  status: ('A' for Active; 'I' for Inactive)
REMARK    1  A    between atoms: C_3  and  N_7 
REMARK    2  A    between atoms: N_7  and  C_8 
REMARK    3  A    between atoms: N_10  and  C_11 
REMARK    4  A    between atoms: C_11  and  C_12 
ROOT
ATOM      1  N   UNN dAMED      -0.323   0.171  -1.515  0.00  0.00    -0.218 NA
ENDROOT
BRANCH   1   2
ATOM      2  C   UNN dAMED      -1.428   0.161  -0.739  0.00  0.00     0.084 A 
ATOM      3  C   UNN dAMED      -2.611   0.793  -1.148  0.00  0.00     0.019 A 
ATOM      4  C   UNN dAMED      -3.743   0.813  -0.334  0.00  0.00     0.002 A 
ATOM      5  C   UNN dAMED      -3.720   0.171   0.899  0.00  0.00     0.000 A 
ATOM      6  C   UNN dAMED      -2.578  -0.512   1.302  0.00  0.00     0.002 A 
ATOM      7  C   UNN dAMED      -1.448  -0.521   0.485  0.00  0.00     0.019 A 
ENDBRANCH   1   2
BRANCH   1   8
ATOM      8  C   UNN dAMED       0.524   1.217  -1.392  0.00  0.00     0.216 C 
ATOM      9  S   UNN dAMED       0.430   2.591  -0.404  0.00  0.00    -0.037 SA
ATOM     10  N   UNN dAMED       1.566   1.076  -2.222  0.00  0.00    -0.244 NA
BRANCH  10  11
ATOM     11  C   UNN dAMED       1.907  -0.231  -2.757  0.00  0.00     0.128 C 
BRANCH  11  12
ATOM     12  C   UNN dAMED       2.955  -1.103  -2.057  0.00  0.00     0.026 C 
ATOM     13  C   UNN dAMED       4.188  -0.462  -1.410  0.00  0.00     0.002 C 
ENDBRANCH  11  12
ENDBRANCH  10  11
ENDBRANCH   1   8
TORSDOF 4
