REMARK  6 active torsions:
REMARK  status: ('A' for Active; 'I' for Inactive)
REMARK    1  A    between atoms: N_1  and  C_25 
REMARK    2  A    between atoms: C_15  and  O_21 
REMARK    3  A    between atoms: C_18  and  O_19 
REMARK    4  A    between atoms: O_21  and  C_22 
REMARK    5  A    between atoms: C_22  and  C_23 
REMARK    6  A    between atoms: C_23  and  C_25 
ROOT
ATOM      1  C   UNN dAMED      -0.859  -0.615   0.097  0.00  0.00     0.306 C 
ENDROOT
BRANCH   1   2
ATOM      2  N   UNN dAMED      -2.481  -0.699  -0.313  0.00  0.00     0.147 N 
ATOM      3  C   UNN dAMED      -0.812  -0.787  -0.030  0.00  0.00     0.268 C 
ATOM      4  C   UNN dAMED      -0.023  -1.876  -0.752  0.00  0.00     0.112 C 
ATOM      5  N   UNN dAMED       1.497  -2.039  -0.484  0.00  0.00    -0.248 NA
ATOM      6  C   UNN dAMED       2.252  -3.012  -1.175  0.00  0.00     0.037 A 
ATOM      7  C   UNN dAMED      -0.016  -1.908  -0.713  0.00  0.00     0.112 C 
ATOM      8  C   UNN dAMED       1.654  -3.956  -2.012  0.00  0.00     0.011 A 
ATOM      9  C   UNN dAMED       3.642  -3.019  -1.020  0.00  0.00     0.011 A 
ATOM     10  C   UNN dAMED       2.446  -4.887  -2.695  0.00  0.00     0.001 A 
ATOM     11  C   UNN dAMED       3.833  -4.876  -2.544  0.00  0.00     0.000 A 
ATOM     12  C   UNN dAMED       4.432  -3.944  -1.701  0.00  0.00     0.001 A 
ATOM     13  C   UNN dAMED      -0.823  -0.786  -0.032  0.00  0.00     0.268 C 
ENDBRANCH   1   2
BRANCH   1  14
ATOM     14  C   UNN dAMED      -0.422   0.680   0.796  0.00  0.00     0.167 C 
ATOM     15  O   UNN dAMED       0.788   0.757   1.433  0.00  0.00    -0.191 OA
BRANCH  14  16
ATOM     16  C   UNN dAMED      -1.053   1.963   0.266  0.00  0.00     0.147 C 
BRANCH  16  17
ATOM     17  O   UNN dAMED      -2.046   2.671   0.948  0.00  0.00    -0.303 OA
BRANCH  17  18
ATOM     18  C   UNN dAMED      -2.025   3.867   0.289  0.00  0.00     0.102 A 
ATOM     19  C   UNN dAMED      -1.631   5.013   0.966  0.00  0.00     0.025 A 
ATOM     20  C   UNN dAMED      -1.305   6.153   0.233  0.00  0.00     0.004 A 
ATOM     21  C   UNN dAMED      -1.341   6.125  -1.162  0.00  0.00     0.024 A 
ATOM     22  C   UNN dAMED      -1.721   4.958  -1.816  0.00  0.00     0.096 A 
ATOM     23  C   UNN dAMED      -2.059   3.818  -1.101  0.00  0.00     0.049 A 
BRANCH  22  24
ATOM     24  O   UNN dAMED      -1.720   4.915  -3.177  0.00  0.00    -0.328 OA
ATOM     25  C   UNN dAMED      -1.859   6.244  -3.581  0.00  0.00     0.181 C 
ENDBRANCH  22  24
ENDBRANCH  17  18
ENDBRANCH  16  17
ENDBRANCH  14  16
ENDBRANCH   1  14
TORSDOF 6
