REMARK  6 active torsions:
REMARK  status: ('A' for Active; 'I' for Inactive)
REMARK    1  A    between atoms: C_7  and  C_14 
REMARK    2  A    between atoms: C_9  and  N_17 
REMARK    3  A    between atoms: C_10  and  C_12 
REMARK    4  A    between atoms: C_12  and  O_13 
REMARK    5  A    between atoms: O_13  and  C_20 
REMARK    6  A    between atoms: N_17  and  C_18 
ROOT
ATOM      1  C   UNN dAMED       1.304  -0.572   0.831  0.00  0.00     0.131 C 
ATOM      2  C   UNN dAMED       0.364  -1.012  -0.016  0.00  0.00     0.020 C 
ATOM      3  C   UNN dAMED       2.438  -1.397   1.062  0.00  0.00     0.106 C 
ATOM      4  N   UNN dAMED       3.360  -2.078   1.241  0.00  0.00    -0.191 NA
ENDROOT
BRANCH   1   5
ATOM      5  C   UNN dAMED       1.252   0.771   1.424  0.00  0.00     0.305 C 
ATOM      6  O   UNN dAMED       0.642   1.060   2.439  0.00  0.00    -0.258 OA
BRANCH   5   7
ATOM      7  O   UNN dAMED       1.895   1.639   0.612  0.00  0.00    -0.298 OA
BRANCH   7   8
ATOM      8  C   UNN dAMED       3.119   1.035   0.315  0.00  0.00     0.152 C 
ATOM      9  C   UNN dAMED       4.190   1.824  -0.447  0.00  0.00     0.035 C 
ENDBRANCH   7   8
ENDBRANCH   5   7
ENDBRANCH   1   5
BRANCH   2  10
ATOM     10  C   UNN dAMED      -1.008  -0.416  -0.222  0.00  0.00     0.050 C 
ATOM     11  C   UNN dAMED      -1.356   0.862  -0.531  0.00  0.00     0.065 C 
ATOM     12  C   UNN dAMED      -0.498   2.078  -0.618  0.00  0.00     0.013 C 
ATOM     13  N   UNN dAMED      -2.707   0.879  -0.591  0.00  0.00    -0.132 NA
ATOM     14  C   UNN dAMED      -1.142   3.232  -0.472  0.00  0.00     0.002 C 
ATOM     15  C   UNN dAMED      -2.540   3.158   0.151  0.00  0.00     0.015 C 
ATOM     16  C   UNN dAMED      -3.215   2.006   0.121  0.00  0.00     0.074 C 
ATOM     17  N   UNN dAMED      -3.279  -0.250  -0.141  0.00  0.00    -0.168 NA
ATOM     18  C   UNN dAMED      -2.231  -1.080  -0.003  0.00  0.00     0.173 C 
BRANCH  18  19
ATOM     19  N   UNN dAMED      -2.393  -2.384   0.371  0.00  0.00    -0.252 NA
BRANCH  19  20
ATOM     20  C   UNN dAMED      -1.259  -3.292   0.345  0.00  0.00     0.127 C 
ATOM     21  C   UNN dAMED      -0.622  -3.757   1.659  0.00  0.00     0.028 C 
ENDBRANCH  19  20
ENDBRANCH  18  19
ENDBRANCH   2  10
TORSDOF 6
