REMARK  0 active torsions:
REMARK  status: ('A' for Active; 'I' for Inactive)
ROOT
ATOM      1  N   UNN dAMED       1.606   0.600   0.000  0.00  0.00    -0.284 N 
ATOM      2  N   UNN dAMED      -0.448   1.830   0.000  0.00  0.00    -0.038 NA
ATOM      3  S   UNN dAMED       1.867  -2.021  -0.000  0.00  0.00    -0.038 SA
ATOM      4  N   UNN dAMED      -0.438  -0.491  -0.000  0.00  0.00    -0.030 N 
ATOM      5  N   UNN dAMED      -2.427   0.430   0.000  0.00  0.00    -0.035 NA
ATOM      6  N   UNN dAMED      -1.285  -1.547  -0.000  0.00  0.00    -0.125 NA
ATOM      7  C   UNN dAMED      -2.474  -0.937  -0.000  0.00  0.00     0.239 A 
ATOM      8  C   UNN dAMED      -1.140   0.682   0.000  0.00  0.00     0.756 A 
ATOM      9  C   UNN dAMED       0.804   1.782  -0.000  0.00  0.00     0.199 A 
ATOM     10  C   UNN dAMED       0.952  -0.618  -0.000  0.00  0.00     0.222 A 
ATOM     11  C   UNN dAMED       2.983   0.291   0.000  0.00  0.00     0.135 C 
ENDROOT
TORSDOF 0
