REMARK  5 active torsions:
REMARK  status: ('A' for Active; 'I' for Inactive)
REMARK    1  A    between atoms: C_3  and  N_17 
REMARK    2  A    between atoms: C_6  and  C_14 
REMARK    3  A    between atoms: C_8  and  N_20 
REMARK    4  A    between atoms: C_10  and  O_21 
REMARK       I    between atoms: N_17  and  C_18 
REMARK       I    between atoms: C_18  and  N_20 
REMARK    5  A    between atoms: O_21  and  C_22 
ROOT
ATOM      1  N   UNN dAMED      -1.270   0.366  -1.157  0.00  0.00    -0.191 NA
ATOM      2  C   UNN dAMED      -0.941  -0.551  -2.095  0.00  0.00     0.369 C 
ATOM      3  O   UNN dAMED      -1.733  -1.211  -2.764  0.00  0.00    -0.242 OA
ATOM      4  N   UNN dAMED       0.402  -0.657  -2.222  0.00  0.00    -0.191 NA
ENDROOT
BRANCH   1   5
ATOM      5  C   UNN dAMED      -2.315   0.032  -0.376  0.00  0.00     0.082 A 
ATOM      6  C   UNN dAMED      -2.119  -0.590   0.864  0.00  0.00    -0.004 A 
ATOM      7  C   UNN dAMED      -3.181  -0.794   1.745  0.00  0.00    -0.003 A 
ATOM      8  C   UNN dAMED      -0.734  -1.014   1.265  0.00  0.00     0.033 C 
ATOM      9  C   UNN dAMED      -4.461  -0.371   1.401  0.00  0.00    -0.001 A 
ATOM     10  C   UNN dAMED      -4.681   0.235   0.169  0.00  0.00    -0.006 A 
ATOM     11  C   UNN dAMED      -3.614   0.442  -0.704  0.00  0.00     0.018 A 
BRANCH  10  12
ATOM     12  C   UNN dAMED      -6.068   0.660  -0.224  0.00  0.00    -0.043 C 
ATOM     13  C   UNN dAMED      -7.020  -0.342  -0.884  0.00  0.00     0.026 C 
ATOM     14  C   UNN dAMED      -6.531   2.098   0.030  0.00  0.00     0.026 C 
ENDBRANCH  10  12
ENDBRANCH   1   5
BRANCH   4  15
ATOM     15  C   UNN dAMED       0.981   0.411  -2.823  0.00  0.00     0.086 A 
ATOM     16  C   UNN dAMED       1.818   1.256  -2.079  0.00  0.00     0.021 A 
ATOM     17  C   UNN dAMED       2.411   2.383  -2.642  0.00  0.00     0.026 A 
ATOM     18  C   UNN dAMED       2.176   2.666  -3.978  0.00  0.00     0.094 A 
ATOM     19  C   UNN dAMED       1.374   1.844  -4.758  0.00  0.00     0.026 A 
ATOM     20  C   UNN dAMED       0.791   0.716  -4.180  0.00  0.00     0.021 A 
BRANCH  18  21
ATOM     21  O   UNN dAMED       2.745   3.773  -4.530  0.00  0.00    -0.331 OA
BRANCH  21  22
ATOM     22  C   UNN dAMED       3.343   4.445  -3.460  0.00  0.00     0.149 C 
ATOM     23  C   UNN dAMED       4.593   5.300  -3.692  0.00  0.00     0.035 C 
ENDBRANCH  21  22
ENDBRANCH  18  21
ENDBRANCH   4  15
TORSDOF 5
