REMARK  4 active torsions:
REMARK  status: ('A' for Active; 'I' for Inactive)
REMARK    1  A    between atoms: C_3  and  O_7 
REMARK    2  A    between atoms: C_4  and  C_10 
REMARK    3  A    between atoms: O_7  and  C_14 
REMARK    4  A    between atoms: C_9  and  C_14 
ROOT
ATOM      1  C   UNN dAMED       0.923   0.960  -0.756  0.00  0.00     0.024 A 
ATOM      2  C   UNN dAMED      -0.304   1.388  -1.241  0.00  0.00    -0.002 A 
ATOM      3  C   UNN dAMED       1.021  -0.307  -0.190  0.00  0.00     0.095 A 
ATOM      4  C   UNN dAMED      -1.411   0.543  -1.157  0.00  0.00    -0.023 A 
ATOM      5  C   UNN dAMED      -0.083  -1.140  -0.049  0.00  0.00     0.024 A 
ATOM      6  C   UNN dAMED      -1.311  -0.706  -0.538  0.00  0.00    -0.002 A 
ENDROOT
BRANCH   3   7
ATOM      7  O   UNN dAMED       2.243  -0.725   0.247  0.00  0.00    -0.319 OA
BRANCH   7   8
ATOM      8  C   UNN dAMED       2.760   0.358   0.967  0.00  0.00     0.246 C 
BRANCH   8   9
ATOM      9  C   UNN dAMED       2.591   0.404   2.466  0.00  0.00     0.217 C 
ATOM     10  O   UNN dAMED       2.077   1.458   2.946  0.00  0.00    -0.645 OA
ATOM     11  O   UNN dAMED       2.901  -0.648   3.102  0.00  0.00    -0.645 OA
ENDBRANCH   8   9
ENDBRANCH   7   8
ENDBRANCH   3   7
BRANCH   4  12
ATOM     12  C   UNN dAMED      -2.691   0.967  -1.802  0.00  0.00     0.019 C 
ATOM     13  C   UNN dAMED      -4.071   0.558  -0.648  0.00  0.00     0.004 C 
ATOM     14  C   UNN dAMED      -4.073   0.558  -0.647  0.00  0.00     0.004 C 
ATOM     15  C   UNN dAMED      -4.070   0.559  -0.649  0.00  0.00     0.004 C 
ENDBRANCH   4  12
TORSDOF 4
