REMARK  4 active torsions:
REMARK  status: ('A' for Active; 'I' for Inactive)
REMARK    1  A    between atoms: C_3  and  O_18 
REMARK    2  A    between atoms: C_6  and  N_17 
REMARK    3  A    between atoms: C_8  and  C_14 
REMARK    4  A    between atoms: C_10  and  N_17 
ROOT
ATOM      1 CL   UNN dAMED      -2.433   3.561  -0.022  0.00  0.00    -0.082 Cl
ATOM      2  C   UNN dAMED      -2.385  -0.941  -0.304  0.00  0.00     0.082 A 
ATOM      3  C   UNN dAMED      -3.535  -0.203  -0.637  0.00  0.00     0.009 A 
ATOM      4  C   UNN dAMED      -1.201  -0.261   0.074  0.00  0.00     0.088 A 
ATOM      5  C   UNN dAMED      -1.258   1.144   0.146  0.00  0.00     0.031 A 
ATOM      6  C   UNN dAMED      -3.559   1.185  -0.567  0.00  0.00     0.012 A 
ATOM      7  C   UNN dAMED      -2.414   1.853  -0.170  0.00  0.00     0.059 A 
ENDROOT
BRANCH   4   8
ATOM      8  N   UNN dAMED      -0.071  -0.882   0.486  0.00  0.00    -0.244 NA
BRANCH   8   9
ATOM      9  C   UNN dAMED       0.881  -1.128  -0.446  0.00  0.00     0.101 A 
ATOM     10  C   UNN dAMED       0.901  -0.671  -1.771  0.00  0.00     0.024 A 
ATOM     11  C   UNN dAMED       1.933  -0.999  -2.649  0.00  0.00     0.046 A 
ATOM     12  C   UNN dAMED       2.947  -1.795  -2.152  0.00  0.00     0.178 A 
ATOM     13  N   UNN dAMED       3.002  -2.266  -0.892  0.00  0.00    -0.219 NA
ATOM     14  C   UNN dAMED       1.973  -1.918  -0.088  0.00  0.00     0.120 A 
BRANCH  12  15
ATOM     15  O   UNN dAMED       3.991  -2.124  -2.978  0.00  0.00    -0.312 OA
ATOM     16  C   UNN dAMED       3.477  -2.036  -4.274  0.00  0.00     0.183 C 
ENDBRANCH  12  15
ENDBRANCH   8   9
ENDBRANCH   4   8
BRANCH   2  17
ATOM     17  C   UNN dAMED      -2.516  -2.440  -0.318  0.00  0.00     0.212 C 
ATOM     18  O   UNN dAMED      -1.570  -3.110  -0.835  0.00  0.00    -0.644 OA
ATOM     19  O   UNN dAMED      -3.589  -2.916   0.169  0.00  0.00    -0.644 OA
ENDBRANCH   2  17
TORSDOF 4
