REMARK  6 active torsions:
REMARK  status: ('A' for Active; 'I' for Inactive)
REMARK    1  A    between atoms: O_5  and  C_10 
REMARK    2  A    between atoms: O_5  and  C_23 
REMARK    3  A    between atoms: C_7  and  C_21 
REMARK    4  A    between atoms: C_13  and  N_24 
REMARK       I    between atoms: C_15  and  N_19 
REMARK       I    between atoms: C_16  and  N_19 
REMARK    5  A    between atoms: C_21  and  C_22 
REMARK    6  A    between atoms: C_22  and  C_23 
ROOT
ATOM      1  N   UNN dAMED      -4.294   0.541  -1.080  0.00  0.00    -0.021 NA
ATOM      2  N   UNN dAMED      -4.483  -0.620   0.975  0.00  0.00    -0.190 N 
ATOM      3  O   UNN dAMED      -2.173   0.718  -1.971  0.00  0.00    -0.265 OA
ATOM      4  H   UNN dAMED      -5.058  -0.959   1.738  0.00  0.00     0.184 HD
ATOM      5  C   UNN dAMED      -2.917   0.363  -1.061  0.00  0.00     0.293 A 
ATOM      6  C   UNN dAMED      -2.308  -0.285   0.142  0.00  0.00     0.048 A 
ATOM      7  C   UNN dAMED      -3.125  -0.757   1.090  0.00  0.00     0.051 A 
ATOM      8  C   UNN dAMED      -5.004   0.049  -0.105  0.00  0.00     0.733 A 
ATOM      9  C   UNN dAMED      -7.007  -0.768  -0.605  0.00  0.00     0.273 C 
ATOM     10  O   UNN dAMED      -6.644  -1.576  -1.454  0.00  0.00    -0.270 OA
ATOM     11  C   UNN dAMED      -8.463  -0.822  -0.219  0.00  0.00     0.101 C 
ATOM     12  N   UNN dAMED      -6.320   0.245  -0.070  0.00  0.00    -0.025 NA
ATOM     13  C   UNN dAMED      -2.544  -1.434   2.299  0.00  0.00     0.050 C 
ENDROOT
BRANCH   6  14
ATOM     14  C   UNN dAMED      -0.817  -0.418   0.264  0.00  0.00     0.035 C 
BRANCH  14  15
ATOM     15  C   UNN dAMED      -0.045   0.387   1.319  0.00  0.00     0.038 C 
BRANCH  15  16
ATOM     16  C   UNN dAMED       0.847   1.567   0.909  0.00  0.00     0.149 C 
BRANCH  16  17
ATOM     17  O   UNN dAMED       1.245   1.733  -0.421  0.00  0.00    -0.331 OA
BRANCH  17  18
ATOM     18  C   UNN dAMED       0.511   2.786  -0.883  0.00  0.00     0.094 A 
ATOM     19  C   UNN dAMED      -0.083   3.647   0.037  0.00  0.00     0.026 A 
ATOM     20  C   UNN dAMED      -0.891   4.682  -0.420  0.00  0.00     0.025 A 
ATOM     21  C   UNN dAMED      -1.075   4.813  -1.793  0.00  0.00     0.127 A 
ATOM     22  C   UNN dAMED      -0.477   3.971  -2.727  0.00  0.00     0.025 A 
ATOM     23  C   UNN dAMED       0.333   2.943  -2.257  0.00  0.00     0.026 A 
BRANCH  21  24
ATOM     24  N   UNN dAMED      -1.954   5.843  -2.263  0.00  0.00    -0.114 N 
ATOM     25  O   UNN dAMED      -1.440   6.931  -2.547  0.00  0.00    -0.532 OA
ATOM     26  O   UNN dAMED      -3.157   5.562  -2.336  0.00  0.00    -0.532 OA
ENDBRANCH  21  24
ENDBRANCH  17  18
ENDBRANCH  16  17
ENDBRANCH  15  16
ENDBRANCH  14  15
ENDBRANCH   6  14
TORSDOF 6
