REMARK  3 active torsions:
REMARK  status: ('A' for Active; 'I' for Inactive)
REMARK    1  A    between atoms: N_1  and  C_22 
REMARK    2  A    between atoms: C_16  and  C_22 
REMARK    3  A    between atoms: C_18  and  O_20 
ROOT
ATOM      1  N   UNN dAMED       1.682   1.011  -0.035  0.00  0.00    -0.241 NA
ATOM      2  N   UNN dAMED      -1.039   2.313  -0.839  0.00  0.00    -0.250 NA
ATOM      3 CL   UNN dAMED      -4.742   2.430  -4.374  0.00  0.00    -0.082 Cl
ATOM      4  C   UNN dAMED      -2.634   4.130  -0.793  0.00  0.00     0.011 A 
ATOM      5  C   UNN dAMED      -2.163   2.953  -1.379  0.00  0.00     0.037 A 
ATOM      6  C   UNN dAMED      -3.751   4.778  -1.312  0.00  0.00     0.002 A 
ATOM      7  C   UNN dAMED      -4.404   4.250  -2.422  0.00  0.00     0.011 A 
ATOM      8  C   UNN dAMED      -2.816   2.425  -2.492  0.00  0.00     0.023 A 
ATOM      9  C   UNN dAMED      -3.933   3.077  -3.006  0.00  0.00     0.059 A 
ATOM     10  C   UNN dAMED       0.205   3.059  -0.623  0.00  0.00     0.094 C 
ATOM     11  C   UNN dAMED       1.383   2.412   0.121  0.00  0.00     0.095 C 
ATOM     12  C   UNN dAMED      -0.393   1.211  -1.558  0.00  0.00     0.094 C 
ATOM     13  C   UNN dAMED       1.102   0.941  -1.350  0.00  0.00     0.095 C 
ENDROOT
BRANCH   1  14
ATOM     14  C   UNN dAMED       0.839   0.346   0.827  0.00  0.00     0.093 C 
ATOM     15  S   UNN dAMED       0.261  -1.182   0.460  0.00  0.00    -0.066 SA
BRANCH  14  16
ATOM     16  C   UNN dAMED       0.486   1.124   2.039  0.00  0.00     0.021 A 
ATOM     17  C   UNN dAMED      -0.101   0.503   3.145  0.00  0.00     0.004 A 
ATOM     18  C   UNN dAMED      -0.458   1.253   4.262  0.00  0.00     0.024 A 
ATOM     19  C   UNN dAMED      -0.216   2.621   4.268  0.00  0.00     0.094 A 
ATOM     20  C   UNN dAMED       0.378   3.257   3.187  0.00  0.00     0.024 A 
ATOM     21  C   UNN dAMED       0.723   2.504   2.069  0.00  0.00     0.004 A 
BRANCH  19  22
ATOM     22  O   UNN dAMED      -0.560   3.350   5.366  0.00  0.00    -0.328 OA
ATOM     23  C   UNN dAMED      -1.055   4.557   4.867  0.00  0.00     0.181 C 
ENDBRANCH  19  22
ENDBRANCH  14  16
ENDBRANCH   1  14
TORSDOF 3
