REMARK  5 active torsions:
REMARK  status: ('A' for Active; 'I' for Inactive)
REMARK    1  A    between atoms: N_1  and  N_14 
REMARK    2  A    between atoms: C_3  and  O_18 
REMARK    3  A    between atoms: C_5  and  O_15 
REMARK    4  A    between atoms: C_7  and  C_17 
REMARK    5  A    between atoms: C_8  and  O_20 
REMARK       I    between atoms: C_12  and  N_14 
ROOT
ATOM      1  O   UNN dAMED      -3.535   1.658  -0.378  0.00  0.00    -0.329 OA
ATOM      2  C   UNN dAMED      -2.238  -0.415  -0.269  0.00  0.00     0.138 A 
ATOM      3  C   UNN dAMED      -2.359   0.956  -0.194  0.00  0.00     0.116 A 
ATOM      4  C   UNN dAMED      -0.986  -0.979  -0.046  0.00  0.00     0.122 A 
ATOM      5  C   UNN dAMED      -1.248   1.753   0.094  0.00  0.00     0.027 A 
ATOM      6  C   UNN dAMED       0.131  -0.186   0.256  0.00  0.00     0.067 A 
ATOM      7  C   UNN dAMED      -0.009   1.198   0.317  0.00  0.00     0.096 A 
ATOM      8  C   UNN dAMED      -1.673   3.162   0.124  0.00  0.00     0.063 A 
ATOM      9  C   UNN dAMED      -3.156   3.011  -0.186  0.00  0.00     0.154 A 
ENDROOT
BRANCH   6  10
ATOM     10  C   UNN dAMED       1.460  -0.840   0.539  0.00  0.00     0.126 C 
ATOM     11  N   UNN dAMED       1.730  -1.268   1.688  0.00  0.00    -0.142 NA
BRANCH  11  12
ATOM     12  N   UNN dAMED       2.803  -2.038   1.884  0.00  0.00    -0.093 NA
ATOM     13  C   UNN dAMED       3.881  -1.266   1.870  0.00  0.00     0.372 C 
ATOM     14  N   UNN dAMED       3.695   0.087   1.461  0.00  0.00    -0.036 NA
ATOM     15  O   UNN dAMED       5.017  -1.606   2.175  0.00  0.00    -0.247 OA
ENDBRANCH  11  12
ENDBRANCH   6  10
BRANCH   4  16
ATOM     16  O   UNN dAMED      -0.818  -2.333  -0.104  0.00  0.00    -0.326 OA
ATOM     17  C   UNN dAMED      -2.018  -2.828  -0.620  0.00  0.00     0.181 C 
ENDBRANCH   4  16
BRANCH   7  18
ATOM     18  O   UNN dAMED       1.058   1.987   0.601  0.00  0.00    -0.328 OA
ATOM     19  C   UNN dAMED       0.582   3.297   0.498  0.00  0.00     0.181 C 
ENDBRANCH   7  18
BRANCH   2  20
ATOM     20  O   UNN dAMED      -3.317  -1.193  -0.545  0.00  0.00    -0.324 OA
ATOM     21  C   UNN dAMED      -3.126  -1.630  -1.858  0.00  0.00     0.182 C 
ENDBRANCH   2  20
TORSDOF 5
