REMARK  0 active torsions:
REMARK  status: ('A' for Active; 'I' for Inactive)
ROOT
ATOM      1  O   UNN dAMED      -5.061  -3.242  -1.033  0.00  0.00    -0.264 OA
ATOM      2  C   UNN dAMED      -4.061  -2.646  -0.664  0.00  0.00     0.274 C 
ATOM      3  C   UNN dAMED      -3.920  -2.275   0.774  0.00  0.00     0.125 C 
ATOM      4  C   UNN dAMED      -3.442  -0.857   1.035  0.00  0.00     0.127 C 
ATOM      5  O   UNN dAMED      -4.262  -0.012   1.790  0.00  0.00    -0.361 OA
ATOM      6  C   UNN dAMED      -4.175   1.214   1.089  0.00  0.00     0.093 C 
ATOM      7  O   UNN dAMED      -3.099  -2.190  -1.510  0.00  0.00    -0.302 OA
ATOM      8  C   UNN dAMED      -2.132  -1.559  -0.704  0.00  0.00     0.154 C 
ATOM      9  C   UNN dAMED      -2.396  -0.255   0.052  0.00  0.00     0.057 C 
ATOM     10  C   UNN dAMED      -2.889   1.141   0.358  0.00  0.00     0.037 C 
ATOM     11  C   UNN dAMED      -0.865   0.001   0.084  0.00  0.00     0.014 C 
ATOM     12  C   UNN dAMED      -2.500   2.244  -0.616  0.00  0.00     0.067 C 
ATOM     13  C   UNN dAMED       0.077  -1.154   0.433  0.00  0.00     0.001 C 
ATOM     14  C   UNN dAMED      -0.160   1.206  -0.629  0.00  0.00     0.078 C 
ATOM     15  C   UNN dAMED      -1.088   2.272  -1.115  0.00  0.00     0.152 C 
ATOM     16  C   UNN dAMED       1.545  -0.736   0.502  0.00  0.00     0.009 C 
ATOM     17  O   UNN dAMED      -0.809   3.044  -2.023  0.00  0.00    -0.296 OA
ATOM     18  O   UNN dAMED       1.405   3.047   0.102  0.00  0.00    -0.346 OA
ATOM     19  C   UNN dAMED       1.745   0.776   1.067  0.00  0.00     0.066 C 
ATOM     20  C   UNN dAMED       1.010   1.682   0.153  0.00  0.00     0.139 A 
ATOM     21  C   UNN dAMED       2.028   2.244  -0.858  0.00  0.00     0.227 A 
ATOM     22  C   UNN dAMED       2.990   0.019   0.104  0.00  0.00     0.084 C 
ATOM     23  C   UNN dAMED       2.863  -2.445  -0.603  0.00  0.00     0.030 A 
ATOM     24  C   UNN dAMED       3.527   2.018  -0.782  0.00  0.00     0.306 C 
ATOM     25  O   UNN dAMED       4.043   0.822  -0.367  0.00  0.00    -0.279 OA
ATOM     26  C   UNN dAMED       3.266  -1.447   0.305  0.00  0.00     0.046 A 
ATOM     27  C   UNN dAMED       3.663  -3.535  -0.335  0.00  0.00     0.123 A 
ATOM     28  O   UNN dAMED       4.254   2.930  -1.157  0.00  0.00    -0.261 OA
ATOM     29  C   UNN dAMED       4.348  -1.934   1.001  0.00  0.00     0.124 A 
ATOM     30  O   UNN dAMED       4.570  -3.231   0.637  0.00  0.00    -0.303 OA
ATOM     31  C   UNN dAMED      -5.240   2.237   1.706  0.00  0.00     0.030 C 
ATOM     32  C   UNN dAMED      -5.242   2.237   1.704  0.00  0.00     0.030 C 
ATOM     33  C   UNN dAMED       0.337   0.372  -1.825  0.00  0.00     0.010 C 
ATOM     34  C   UNN dAMED       2.981   0.024   0.111  0.00  0.00     0.009 C 
ENDROOT
TORSDOF 0
