REMARK  2 active torsions:
REMARK  status: ('A' for Active; 'I' for Inactive)
REMARK    1  A    between atoms: N_2  and  C_6 
REMARK    2  A    between atoms: N_3  and  C_12 
ROOT
ATOM      1  N   UNN dAMED      -0.018  -0.517   0.555  0.00  0.00    -0.145 NA
ATOM      2  N   UNN dAMED      -0.602   0.498   0.112  0.00  0.00    -0.147 NA
ENDROOT
BRANCH   1   3
ATOM      3  C   UNN dAMED       1.380  -0.436   0.412  0.00  0.00     0.134 A 
ATOM      4  C   UNN dAMED       2.023   0.342  -0.547  0.00  0.00     0.171 A 
ATOM      5  N   UNN dAMED       3.368   0.400  -0.697  0.00  0.00    -0.216 NA
ATOM      6  N   UNN dAMED       1.215   1.148  -1.399  0.00  0.00    -0.078 NA
ATOM      7  C   UNN dAMED       4.118  -0.362   0.130  0.00  0.00     0.152 A 
ATOM      8  C   UNN dAMED       3.574  -1.181   1.106  0.00  0.00     0.035 A 
ATOM      9  N   UNN dAMED       5.536  -0.331  -0.014  0.00  0.00    -0.080 NA
ATOM     10  C   UNN dAMED       2.190  -1.212   1.237  0.00  0.00     0.026 A 
ENDBRANCH   1   3
BRANCH   2  11
ATOM     11  C   UNN dAMED      -1.992   0.362   0.288  0.00  0.00     0.113 A 
ATOM     12  C   UNN dAMED      -2.554   0.623   1.543  0.00  0.00     0.022 A 
ATOM     13  C   UNN dAMED      -3.925   0.493   1.757  0.00  0.00     0.002 A 
ATOM     14  C   UNN dAMED      -4.760   0.120   0.709  0.00  0.00     0.001 A 
ATOM     15  C   UNN dAMED      -4.221  -0.121  -0.552  0.00  0.00     0.013 A 
ATOM     16  C   UNN dAMED      -2.847   0.004  -0.762  0.00  0.00     0.077 A 
ATOM     17 CL   UNN dAMED      -2.247  -0.327  -2.344  0.00  0.00    -0.081 Cl
ENDBRANCH   2  11
TORSDOF 2
