REMARK  2 active torsions:
REMARK  status: ('A' for Active; 'I' for Inactive)
REMARK    1  A    between atoms: C_14  and  N_23 
REMARK    2  A    between atoms: C_15  and  N_23 
ROOT
ATOM      1  C   UNN dAMED      -5.090   0.693  -0.238  0.00  0.00     0.119 A 
ATOM      2  C   UNN dAMED      -4.643  -0.599   0.041  0.00  0.00     0.119 A 
ATOM      3  C   UNN dAMED      -3.301  -0.952   0.103  0.00  0.00     0.030 A 
ATOM      4  C   UNN dAMED      -2.407   0.113  -0.138  0.00  0.00     0.045 A 
ATOM      5  C   UNN dAMED      -2.876   1.424  -0.415  0.00  0.00     0.006 A 
ATOM      6  C   UNN dAMED      -4.241   1.764  -0.481  0.00  0.00     0.026 A 
ATOM      7  O   UNN dAMED      -6.455   0.716  -0.229  0.00  0.00    -0.300 OA
ATOM      8  C   UNN dAMED      -6.770  -0.578   0.058  0.00  0.00     0.304 A 
ATOM      9  O   UNN dAMED      -5.714  -1.422   0.233  0.00  0.00    -0.300 OA
ATOM     10  O   UNN dAMED      -0.182   0.610  -0.888  0.00  0.00    -0.254 OA
ATOM     11  C   UNN dAMED      -0.982  -0.144  -0.076  0.00  0.00     0.206 A 
ATOM     12  N   UNN dAMED      -0.299  -1.007   0.643  0.00  0.00    -0.119 NA
ATOM     13  N   UNN dAMED       1.029  -0.831   0.299  0.00  0.00    -0.101 NA
ATOM     14  C   UNN dAMED       1.086   0.143  -0.597  0.00  0.00     0.294 A 
ENDROOT
BRANCH  14  15
ATOM     15  N   UNN dAMED       2.153   0.697  -1.227  0.00  0.00    -0.204 NA
BRANCH  15  16
ATOM     16  C   UNN dAMED       3.400   0.372  -0.819  0.00  0.00     0.081 A 
ATOM     17  C   UNN dAMED       4.450   0.434  -1.748  0.00  0.00     0.019 A 
ATOM     18  C   UNN dAMED       5.775   0.170  -1.395  0.00  0.00    -0.003 A 
ATOM     19  C   UNN dAMED       6.084  -0.160  -0.082  0.00  0.00    -0.022 A 
ATOM     20  C   UNN dAMED       5.075  -0.208   0.873  0.00  0.00    -0.007 A 
ATOM     21  C   UNN dAMED       7.503  -0.477   0.300  0.00  0.00     0.031 C 
ATOM     22  C   UNN dAMED       3.758   0.074   0.504  0.00  0.00    -0.004 A 
ATOM     23  C   UNN dAMED       2.664  -0.022   1.530  0.00  0.00     0.033 C 
ENDBRANCH  15  16
ENDBRANCH  14  15
TORSDOF 2
