REMARK  4 active torsions:
REMARK  status: ('A' for Active; 'I' for Inactive)
REMARK    1  A    between atoms: N_1  and  C_8 
REMARK    2  A    between atoms: N_2  and  C_9 
REMARK    3  A    between atoms: C_3  and  S_19 
REMARK    4  A    between atoms: C_14  and  C_24 
ROOT
ATOM      1  C   UNN dAMED       1.624  -0.320   0.244  0.00  0.00     0.142 A 
ATOM      2  C   UNN dAMED       2.566  -1.370   0.055  0.00  0.00     0.023 A 
ATOM      3  C   UNN dAMED       2.028   1.042   0.450  0.00  0.00     0.221 A 
ATOM      4  C   UNN dAMED       2.181  -2.699  -0.189  0.00  0.00     0.002 A 
ATOM      5  C   UNN dAMED       3.122  -3.708  -0.381  0.00  0.00     0.000 A 
ATOM      6  C   UNN dAMED       3.436   1.249   0.500  0.00  0.00     0.105 A 
ATOM      7  C   UNN dAMED       3.941  -1.087   0.100  0.00  0.00     0.002 A 
ATOM      8  C   UNN dAMED       4.477  -3.405  -0.332  0.00  0.00     0.000 A 
ATOM      9  C   UNN dAMED       4.362   0.210   0.330  0.00  0.00     0.009 A 
ATOM     10  C   UNN dAMED       4.885  -2.097  -0.090  0.00  0.00     0.000 A 
ATOM     11  O   UNN dAMED       1.187   2.001   0.579  0.00  0.00    -0.285 OA
ENDROOT
BRANCH   1  12
ATOM     12  N   UNN dAMED       0.246  -0.653   0.163  0.00  0.00    -0.145 NA
ATOM     13  N   UNN dAMED      -0.246  -0.735   1.310  0.00  0.00    -0.148 NA
BRANCH  13  14
ATOM     14  C   UNN dAMED      -1.588  -1.153   1.263  0.00  0.00     0.103 A 
ATOM     15  C   UNN dAMED      -2.049  -2.024   2.257  0.00  0.00     0.022 A 
ATOM     16  C   UNN dAMED      -3.379  -2.435   2.287  0.00  0.00     0.015 A 
ATOM     17  C   UNN dAMED      -4.241  -1.961   1.309  0.00  0.00     0.107 A 
ATOM     18  C   UNN dAMED      -3.827  -1.084   0.316  0.00  0.00     0.015 A 
ATOM     19  C   UNN dAMED      -2.497  -0.673   0.308  0.00  0.00     0.022 A 
BRANCH  17  20
ATOM     20  S   UNN dAMED      -5.914  -2.490   1.355  0.00  0.00     0.302 S 
ATOM     21  O   UNN dAMED      -6.146  -3.149   0.083  0.00  0.00    -0.197 OA
ATOM     22  O   UNN dAMED      -6.678  -1.309   1.714  0.00  0.00    -0.197 OA
ATOM     23  N   UNN dAMED      -6.084  -3.644   2.601  0.00  0.00    -0.043 N 
ENDBRANCH  17  20
ENDBRANCH  13  14
ENDBRANCH   1  12
BRANCH   6  24
ATOM     24  C   UNN dAMED       4.014   2.610   0.738  0.00  0.00     0.214 C 
ATOM     25  O   UNN dAMED       4.186   2.944   1.950  0.00  0.00    -0.644 OA
ATOM     26  O   UNN dAMED       4.284   3.296  -0.294  0.00  0.00    -0.644 OA
ENDBRANCH   6  24
TORSDOF 4
