REMARK  2 active torsions:
REMARK  status: ('A' for Active; 'I' for Inactive)
REMARK    1  A    between atoms: C_2  and  N_6 
REMARK    2  A    between atoms: C_2  and  C_10 
REMARK       I    between atoms: N_6  and  C_7 
ROOT
ATOM      1  C   UNN dAMED      -0.329  -1.364  -0.466  0.00  0.00     0.033 C 
ATOM      2  C   UNN dAMED       0.406  -0.164   0.199  0.00  0.00     0.165 C 
ATOM      3  C   UNN dAMED      -0.137  -2.666   0.306  0.00  0.00     0.003 C 
ATOM      4  C   UNN dAMED       1.480  -0.990   0.968  0.00  0.00     0.033 C 
ATOM      5  C   UNN dAMED       1.043  -2.430   1.220  0.00  0.00     0.003 C 
ENDROOT
BRANCH   2   6
ATOM      6  N   UNN dAMED      -0.461   0.542   1.109  0.00  0.00    -0.231 NA
ATOM      7  C   UNN dAMED      -0.524  -0.056   2.297  0.00  0.00     0.252 C 
ATOM      8  O   UNN dAMED       0.181  -0.960   2.732  0.00  0.00    -0.271 OA
ATOM      9  C   UNN dAMED      -1.549   0.503   3.248  0.00  0.00     0.100 C 
ENDBRANCH   2   6
BRANCH   2  10
ATOM     10  C   UNN dAMED       1.013   0.779  -0.806  0.00  0.00     0.206 C 
ATOM     11  O   UNN dAMED       0.426   0.811  -1.923  0.00  0.00    -0.646 OA
ATOM     12  O   UNN dAMED       2.047   1.386  -0.413  0.00  0.00    -0.646 OA
ENDBRANCH   2  10
TORSDOF 2
