REMARK  4 active torsions:
REMARK  status: ('A' for Active; 'I' for Inactive)
REMARK    1  A    between atoms: C_8  and  C_19 
REMARK    2  A    between atoms: C_9  and  O_13 
REMARK    3  A    between atoms: C_11  and  O_15 
REMARK    4  A    between atoms: C_12  and  O_17 
ROOT
ATOM      1  C   UNN dAMED      -0.176  -0.346  -1.277  0.00  0.00     0.026 A 
ATOM      2  C   UNN dAMED       0.330  -0.520   0.013  0.00  0.00     0.004 A 
ATOM      3  C   UNN dAMED      -1.494   0.059  -1.450  0.00  0.00     0.118 A 
ATOM      4  C   UNN dAMED      -0.500  -0.325   1.120  0.00  0.00     0.026 A 
ATOM      5  C   UNN dAMED      -2.316   0.278  -0.353  0.00  0.00     0.138 A 
ATOM      6  C   UNN dAMED      -1.818   0.077   0.928  0.00  0.00     0.118 A 
ENDROOT
BRANCH   2   7
ATOM      7  C   UNN dAMED       1.731  -1.044   0.202  0.00  0.00     0.001 C 
ATOM      8  C   UNN dAMED       2.794  -0.244   0.170  0.00  0.00     0.043 A 
ATOM      9  C   UNN dAMED       4.143  -0.854   0.291  0.00  0.00     0.292 A 
ATOM     10  C   UNN dAMED       2.962   1.206   0.008  0.00  0.00     0.065 A 
ATOM     11  O   UNN dAMED       4.345  -2.050   0.417  0.00  0.00    -0.260 OA
ATOM     12  O   UNN dAMED       5.115   0.117   0.234  0.00  0.00    -0.298 OA
ATOM     13  C   UNN dAMED       4.457   1.351   0.073  0.00  0.00     0.157 A 
ENDBRANCH   2   7
BRANCH   3  14
ATOM     14  O   UNN dAMED      -1.963   0.235  -2.717  0.00  0.00    -0.326 OA
ATOM     15  C   UNN dAMED      -0.927  -0.190  -3.552  0.00  0.00     0.181 C 
ENDBRANCH   3  14
BRANCH   6  16
ATOM     16  O   UNN dAMED      -2.612   0.270   2.019  0.00  0.00    -0.326 OA
ATOM     17  C   UNN dAMED      -1.920  -0.311   3.084  0.00  0.00     0.181 C 
ENDBRANCH   6  16
BRANCH   5  18
ATOM     18  O   UNN dAMED      -3.598   0.699  -0.535  0.00  0.00    -0.324 OA
ATOM     19  C   UNN dAMED      -3.546   1.544  -1.647  0.00  0.00     0.182 C 
ENDBRANCH   5  18
TORSDOF 4
