REMARK  1 active torsions:
REMARK  status: ('A' for Active; 'I' for Inactive)
REMARK    1  A    between atoms: C_9  and  S_12 
ROOT
ATOM      1  C   UNN dAMED       2.550  -1.682  -0.641  0.00  0.00     0.123 A 
ATOM      2  C   UNN dAMED       3.749  -1.130  -0.412  0.00  0.00     0.115 A 
ATOM      3  N   UNN dAMED       0.105  -1.139  -0.383  0.00  0.00    -0.208 NA
ATOM      4  C   UNN dAMED       1.378  -0.838  -0.295  0.00  0.00     0.176 A 
ATOM      5  N   UNN dAMED       3.904   0.223   0.077  0.00  0.00    -0.219 NA
ATOM      6  C   UNN dAMED      -0.504  -0.053   0.054  0.00  0.00     0.157 A 
ATOM      7  C   UNN dAMED      -2.573   0.280   1.386  0.00  0.00     0.004 A 
ATOM      8  N   UNN dAMED       1.624   0.436   0.200  0.00  0.00    -0.210 N 
ATOM      9  C   UNN dAMED       2.887   0.966   0.385  0.00  0.00     0.191 A 
ATOM     10  N   UNN dAMED       0.383   0.947   0.428  0.00  0.00    -0.273 N 
ATOM     11  C   UNN dAMED      -1.981   0.076   0.142  0.00  0.00     0.035 A 
ATOM     12  C   UNN dAMED      -3.959   0.386   1.469  0.00  0.00     0.011 A 
ATOM     13  C   UNN dAMED      -4.728   0.276   0.313  0.00  0.00     0.058 A 
ATOM     14  H   UNN dAMED       0.184   1.861   0.811  0.00  0.00     0.189 HD
ATOM     15  C   UNN dAMED      -2.745  -0.028  -1.018  0.00  0.00     0.004 A 
ATOM     16  C   UNN dAMED      -4.131   0.068  -0.928  0.00  0.00     0.011 A 
ATOM     17 CL   UNN dAMED      -6.436   0.401   0.421  0.00  0.00    -0.082 Cl
ATOM     18  C   UNN dAMED       2.437  -3.028  -1.063  0.00  0.00     0.106 C 
ATOM     19  N   UNN dAMED       2.355  -4.134  -1.404  0.00  0.00    -0.191 NA
ENDROOT
BRANCH   9  20
ATOM     20  S   UNN dAMED       3.104   2.580   0.997  0.00  0.00    -0.075 SA
ATOM     21  C   UNN dAMED       4.205   3.098  -0.317  0.00  0.00     0.077 C 
ENDBRANCH   9  20
TORSDOF 1
