REMARK  3 active torsions:
REMARK  status: ('A' for Active; 'I' for Inactive)
REMARK    1  A    between atoms: C_6  and  C_7 
REMARK    2  A    between atoms: C_7  and  C_10 
REMARK    3  A    between atoms: C_10  and  C_11 
ROOT
ATOM      1  C   UNN dAMED      -2.011   2.406   0.783  0.00  0.00     0.234 C 
ATOM      2  O   UNN dAMED      -1.338   2.622  -0.211  0.00  0.00    -0.283 OA
ENDROOT
BRANCH   1   3
ATOM      3  C   UNN dAMED      -2.233   3.447   1.784  0.00  0.00     0.042 A 
ATOM      4  C   UNN dAMED      -3.313   4.312   1.636  0.00  0.00     0.004 A 
ATOM      5  C   UNN dAMED      -3.538   5.278   2.613  0.00  0.00     0.014 A 
ATOM      6  C   UNN dAMED      -2.691   5.366   3.718  0.00  0.00     0.070 A 
ATOM      7  C   UNN dAMED      -1.610   4.494   3.849  0.00  0.00     0.014 A 
ATOM      8  N   UNN dAMED      -2.938   6.343   4.724  0.00  0.00    -0.101 NA
ATOM      9  C   UNN dAMED      -1.375   3.525   2.878  0.00  0.00     0.004 A 
ENDBRANCH   1   3
BRANCH   1  10
ATOM     10  C   UNN dAMED      -2.622   1.044   1.012  0.00  0.00     0.234 C 
ATOM     11  O   UNN dAMED      -3.227   0.811   2.046  0.00  0.00    -0.283 OA
BRANCH  10  12
ATOM     12  C   UNN dAMED      -2.470   0.010  -0.007  0.00  0.00     0.042 A 
ATOM     13  C   UNN dAMED      -1.520  -0.990   0.184  0.00  0.00     0.004 A 
ATOM     14  C   UNN dAMED      -1.440  -2.029  -0.738  0.00  0.00     0.014 A 
ATOM     15  C   UNN dAMED      -2.306  -2.060  -1.831  0.00  0.00     0.070 A 
ATOM     16  C   UNN dAMED      -3.254  -1.051  -2.009  0.00  0.00     0.014 A 
ATOM     17  N   UNN dAMED      -2.258  -3.152  -2.741  0.00  0.00    -0.101 NA
ATOM     18  C   UNN dAMED      -3.346  -0.011  -1.089  0.00  0.00     0.004 A 
ENDBRANCH  10  12
ENDBRANCH   1  10
TORSDOF 3
