REMARK  2 active torsions:
REMARK  status: ('A' for Active; 'I' for Inactive)
REMARK    1  A    between atoms: C_5  and  C_11 
REMARK    2  A    between atoms: C_11  and  C_12 
ROOT
ATOM      1  C   UNN dAMED       1.603  -0.106   0.171  0.00  0.00     0.105 A 
ATOM      2  C   UNN dAMED       0.761  -1.209   0.333  0.00  0.00     0.045 A 
ATOM      3  C   UNN dAMED      -0.627  -1.052   0.274  0.00  0.00     0.098 A 
ATOM      4  C   UNN dAMED      -1.155   0.217  -0.011  0.00  0.00     0.042 A 
ATOM      5  C   UNN dAMED      -2.597   0.415  -0.044  0.00  0.00    -0.013 C 
ATOM      6  C   UNN dAMED      -3.062   1.643  -0.256  0.00  0.00     0.065 C 
ATOM      7  C   UNN dAMED      -2.137   2.760  -0.667  0.00  0.00     0.300 C 
ATOM      8  O   UNN dAMED      -0.762   2.592  -0.571  0.00  0.00    -0.273 OA
ATOM      9  C   UNN dAMED      -0.302   1.309  -0.218  0.00  0.00     0.109 A 
ATOM     10  C   UNN dAMED       1.087   1.171  -0.080  0.00  0.00     0.071 A 
ATOM     11  O   UNN dAMED      -2.633   3.848  -0.935  0.00  0.00    -0.259 OA
ATOM     12  O   UNN dAMED      -1.529  -2.079   0.402  0.00  0.00    -0.332 OA
ATOM     13  C   UNN dAMED      -1.056  -3.141   1.230  0.00  0.00     0.117 C 
ATOM     14  C   UNN dAMED       0.608  -3.596   0.658  0.00  0.00     0.001 C 
ATOM     15  C   UNN dAMED       1.383  -2.575   0.325  0.00  0.00     0.002 C 
ATOM     16  C   UNN dAMED       0.634  -3.603   0.649  0.00  0.00     0.035 C 
ATOM     17  C   UNN dAMED       0.634  -3.603   0.649  0.00  0.00     0.035 C 
ATOM     18  O   UNN dAMED       2.943  -0.367   0.308  0.00  0.00    -0.311 OA
ATOM     19  C   UNN dAMED       3.644   0.464  -0.570  0.00  0.00     0.076 C 
ATOM     20  C   UNN dAMED       3.454   1.960  -0.440  0.00  0.00     0.022 C 
ATOM     21  C   UNN dAMED       2.022   2.363  -0.183  0.00  0.00     0.132 C 
ATOM     22  C   UNN dAMED       4.837  -0.091  -1.355  0.00  0.00     0.058 C 
ATOM     23  C   UNN dAMED       4.509   2.957  -0.930  0.00  0.00     0.035 C 
ATOM     24  O   UNN dAMED       1.808   3.512   0.537  0.00  0.00    -0.190 OA
ENDROOT
BRANCH   5  25
ATOM     25  C   UNN dAMED      -3.479  -0.727   0.370  0.00  0.00     0.027 C 
BRANCH  25  26
ATOM     26  C   UNN dAMED      -2.851  -2.099   0.651  0.00  0.00     0.005 C 
ATOM     27  C   UNN dAMED      -1.579  -2.199   1.504  0.00  0.00     0.000 C 
ENDBRANCH  25  26
ENDBRANCH   5  25
TORSDOF 2
