REMARK  4 active torsions:
REMARK  status: ('A' for Active; 'I' for Inactive)
REMARK       I    between atoms: N_1  and  C_23 
REMARK    1  A    between atoms: C_7  and  C_23 
REMARK    2  A    between atoms: C_10  and  C_26 
REMARK    3  A    between atoms: C_20  and  C_25 
REMARK    4  A    between atoms: C_25  and  C_26 
ROOT
ATOM      1  N   UNN dAMED       0.824  -2.464   0.149  0.00  0.00    -0.278 N 
ATOM      2  C   UNN dAMED       0.446  -4.671  -0.800  0.00  0.00     0.018 A 
ATOM      3  C   UNN dAMED       0.040  -3.353  -0.592  0.00  0.00     0.067 A 
ATOM      4  C   UNN dAMED      -0.341  -5.562  -1.530  0.00  0.00     0.002 A 
ATOM      5  C   UNN dAMED      -1.188  -2.943  -1.128  0.00  0.00     0.016 A 
ATOM      6  C   UNN dAMED      -1.554  -5.142  -2.065  0.00  0.00     0.000 A 
ATOM      7  C   UNN dAMED      -1.818  -1.640  -0.737  0.00  0.00     0.003 C 
ATOM      8  C   UNN dAMED       0.386  -1.115   0.081  0.00  0.00     0.052 C 
ATOM      9  C   UNN dAMED      -1.092  -0.791  -0.026  0.00  0.00     0.014 C 
ATOM     10  C   UNN dAMED      -1.975  -3.834  -1.862  0.00  0.00     0.001 A 
ATOM     11  C   UNN dAMED       2.036  -2.514   0.792  0.00  0.00     0.264 C 
ATOM     12  O   UNN dAMED       2.382  -1.708   1.654  0.00  0.00    -0.267 OA
ENDROOT
BRANCH   8  13
ATOM     13  C   UNN dAMED       1.401   0.008  -0.109  0.00  0.00     0.113 C 
BRANCH  13  14
ATOM     14  C   UNN dAMED       1.403   0.750  -1.411  0.00  0.00     0.179 C 
ATOM     15  O   UNN dAMED       1.334   1.970  -1.415  0.00  0.00    -0.291 OA
BRANCH  14  16
ATOM     16  C   UNN dAMED       1.605   0.012  -2.649  0.00  0.00     0.035 A 
ATOM     17  C   UNN dAMED       0.525  -0.216  -3.495  0.00  0.00     0.003 A 
ATOM     18  C   UNN dAMED       0.745  -0.896  -4.689  0.00  0.00     0.000 A 
ATOM     19  C   UNN dAMED       2.026  -1.341  -5.015  0.00  0.00     0.000 A 
ATOM     20  C   UNN dAMED       3.092  -1.121  -4.142  0.00  0.00     0.000 A 
ATOM     21  C   UNN dAMED       2.884  -0.440  -2.947  0.00  0.00     0.003 A 
ENDBRANCH  14  16
ENDBRANCH  13  14
ENDBRANCH   8  13
BRANCH  11  22
ATOM     22  C   UNN dAMED       3.034  -3.492   0.364  0.00  0.00     0.057 A 
ATOM     23  C   UNN dAMED       3.963  -3.131  -0.609  0.00  0.00     0.005 A 
ATOM     24  C   UNN dAMED       5.042  -3.974  -0.862  0.00  0.00     0.000 A 
ATOM     25  C   UNN dAMED       5.199  -5.149  -0.127  0.00  0.00     0.000 A 
ATOM     26  C   UNN dAMED       4.277  -5.487   0.863  0.00  0.00     0.000 A 
ATOM     27  C   UNN dAMED       3.200  -4.647   1.127  0.00  0.00     0.005 A 
ENDBRANCH  11  22
TORSDOF 4
