REMARK  0 active torsions:
REMARK  status: ('A' for Active; 'I' for Inactive)
REMARK       I    between atoms: N_3  and  C_24 
ROOT
ATOM      1  O   UNN dAMED      -2.453   0.324   3.626  0.00  0.00    -0.291 OA
ATOM      2  O   UNN dAMED      -3.029  -0.461  -2.030  0.00  0.00    -0.281 OA
ATOM      3  N   UNN dAMED       2.650   0.927   0.877  0.00  0.00    -0.277 N 
ATOM      4  O   UNN dAMED      -2.029  -1.072  -3.986  0.00  0.00    -0.264 OA
ATOM      5  C   UNN dAMED      -4.068   0.711   1.905  0.00  0.00     0.062 C 
ATOM      6  C   UNN dAMED      -4.131   0.156   0.132  0.00  0.00     0.059 C 
ATOM      7  C   UNN dAMED      -2.864  -0.084  -0.669  0.00  0.00     0.081 C 
ATOM      8  C   UNN dAMED      -1.689   0.053  -0.034  0.00  0.00     0.018 C 
ATOM      9  C   UNN dAMED      -2.719   0.310   2.429  0.00  0.00     0.173 C 
ATOM     10  C   UNN dAMED      -0.443   0.027  -0.853  0.00  0.00    -0.009 C 
ATOM     11  C   UNN dAMED      -1.934  -0.690  -2.825  0.00  0.00     0.280 C 
ATOM     12  C   UNN dAMED      -0.565  -0.614  -2.224  0.00  0.00     0.123 C 
ATOM     13  C   UNN dAMED      -1.590   0.475   1.429  0.00  0.00     0.039 C 
ATOM     14  C   UNN dAMED       0.891   0.130  -0.189  0.00  0.00     0.016 A 
ATOM     15  C   UNN dAMED       1.722  -0.965   0.095  0.00  0.00     0.017 A 
ATOM     16  C   UNN dAMED       1.640  -2.346  -0.142  0.00  0.00     0.002 A 
ATOM     17  C   UNN dAMED       2.675  -3.167   0.305  0.00  0.00     0.000 A 
ATOM     18  C   UNN dAMED       3.772  -2.630   0.973  0.00  0.00     0.002 A 
ATOM     19  C   UNN dAMED       2.829  -0.443   0.768  0.00  0.00     0.067 A 
ATOM     20  C   UNN dAMED       1.454   1.279   0.298  0.00  0.00     0.082 A 
ATOM     21  C   UNN dAMED       3.875  -1.259   1.218  0.00  0.00     0.018 A 
ATOM     22  C   UNN dAMED      -4.131   0.161   0.149  0.00  0.00     0.008 C 
ATOM     23  C   UNN dAMED      -4.130   0.161   0.147  0.00  0.00     0.008 C 
ATOM     24  C   UNN dAMED       3.540   1.788   1.507  0.00  0.00     0.242 C 
ATOM     25  O   UNN dAMED       3.381   2.995   1.400  0.00  0.00    -0.272 OA
ATOM     26  C   UNN dAMED       4.687   1.240   2.307  0.00  0.00     0.098 C 
ENDROOT
TORSDOF 0
