REMARK  0 active torsions:
REMARK  status: ('A' for Active; 'I' for Inactive)
ROOT
ATOM      1  C   UNN dAMED      -5.020   1.991   0.353  0.00  0.00     0.126 A 
ATOM      2  N   UNN dAMED      -6.159   1.324   0.591  0.00  0.00    -0.125 NA
ATOM      3  O   UNN dAMED      -5.855  -0.020   0.372  0.00  0.00    -0.211 OA
ATOM      4  C   UNN dAMED      -4.016   1.134  -0.113  0.00  0.00     0.025 A 
ATOM      5  C   UNN dAMED      -4.571  -0.112  -0.058  0.00  0.00     0.122 A 
ATOM      6  C   UNN dAMED      -2.542   1.252   0.137  0.00  0.00     0.037 C 
ATOM      7  C   UNN dAMED      -3.695  -1.330   0.144  0.00  0.00     0.018 C 
ATOM      8  C   UNN dAMED      -1.642   0.028  -0.216  0.00  0.00     0.034 C 
ATOM      9  C   UNN dAMED      -2.352  -1.255   0.121  0.00  0.00    -0.039 C 
ATOM     10  C   UNN dAMED       0.741   1.120  -0.175  0.00  0.00     0.022 C 
ATOM     11  C   UNN dAMED      -0.137  -0.125  -0.061  0.00  0.00    -0.045 C 
ATOM     12  C   UNN dAMED      -1.759  -2.577  -0.299  0.00  0.00     0.027 C 
ATOM     13  C   UNN dAMED       2.243   0.919   0.009  0.00  0.00     0.011 C 
ATOM     14  C   UNN dAMED       0.521  -1.427  -0.529  0.00  0.00    -0.037 C 
ATOM     15  C   UNN dAMED      -0.242  -2.709  -0.214  0.00  0.00     0.029 C 
ATOM     16  C   UNN dAMED       2.053  -1.450  -0.627  0.00  0.00    -0.046 C 
ATOM     17  C   UNN dAMED       2.930  -0.163  -0.797  0.00  0.00     0.052 C 
ATOM     18  C   UNN dAMED       4.260  -0.522  -0.113  0.00  0.00     0.181 C 
ATOM     19  C   UNN dAMED       2.904  -2.610  -0.157  0.00  0.00     0.025 C 
ATOM     20  C   UNN dAMED       4.320  -2.062  -0.111  0.00  0.00     0.048 C 
ATOM     21  C   UNN dAMED       4.252  -0.018   1.263  0.00  0.00    -0.073 C 
ATOM     22  C   UNN dAMED       4.211   0.380   2.396  0.00  0.00     0.015 C 
ATOM     23  C   UNN dAMED      -2.164   0.570  -1.578  0.00  0.00     0.008 C 
ATOM     24  C   UNN dAMED       3.020  -0.521  -2.278  0.00  0.00     0.007 C 
ATOM     25  O   UNN dAMED       5.257  -0.023  -0.798  0.00  0.00    -0.212 OA
ENDROOT
TORSDOF 0
