REMARK  4 active torsions:
REMARK  status: ('A' for Active; 'I' for Inactive)
REMARK    1  A    between atoms: C_3  and  N_18 
REMARK    2  A    between atoms: C_8  and  N_15 
REMARK    3  A    between atoms: C_12  and  O_13 
REMARK    4  A    between atoms: N_15  and  C_16 
ROOT
ATOM      1  C   UNN dAMED       0.137   0.277  -0.425  0.00  0.00     0.221 C 
ATOM      2  S   UNN dAMED      -1.462  -0.249  -0.686  0.00  0.00    -0.037 SA
ATOM      3  N   UNN dAMED       1.047  -0.622  -0.018  0.00  0.00    -0.217 NA
ENDROOT
BRANCH   1   4
ATOM      4  N   UNN dAMED       0.569   1.504  -0.753  0.00  0.00    -0.217 NA
BRANCH   4   5
ATOM      5  C   UNN dAMED       0.103   2.501   0.039  0.00  0.00     0.086 A 
ATOM      6  C   UNN dAMED       0.619   2.737   1.323  0.00  0.00     0.019 A 
ATOM      7  C   UNN dAMED       0.162   3.791   2.117  0.00  0.00     0.004 A 
ATOM      8  C   UNN dAMED      -0.816   4.652   1.633  0.00  0.00     0.024 A 
ATOM      9  C   UNN dAMED      -1.319   4.446   0.357  0.00  0.00     0.096 A 
ATOM     10  C   UNN dAMED      -0.866   3.396  -0.437  0.00  0.00     0.043 A 
BRANCH   9  11
ATOM     11  O   UNN dAMED      -2.275   5.286  -0.126  0.00  0.00    -0.328 OA
ATOM     12  C   UNN dAMED      -2.960   5.748   1.001  0.00  0.00     0.181 C 
ENDBRANCH   9  11
ENDBRANCH   4   5
ENDBRANCH   1   4
BRANCH   3  13
ATOM     13  C   UNN dAMED       2.347  -0.287   0.115  0.00  0.00     0.084 A 
ATOM     14  C   UNN dAMED       2.872   0.087   1.351  0.00  0.00     0.022 A 
ATOM     15  C   UNN dAMED       4.233   0.370   1.505  0.00  0.00     0.044 A 
ATOM     16  C   UNN dAMED       5.163   0.278   0.459  0.00  0.00     0.196 A 
ATOM     17  C   UNN dAMED       4.613  -0.146  -0.760  0.00  0.00     0.044 A 
ATOM     18  O   UNN dAMED       6.396   0.559   0.603  0.00  0.00    -0.287 OA
ATOM     19  C   UNN dAMED       3.253  -0.432  -0.935  0.00  0.00     0.022 A 
ENDBRANCH   3  13
TORSDOF 4
