REMARK  2 active torsions:
REMARK  status: ('A' for Active; 'I' for Inactive)
REMARK    1  A    between atoms: C_3  and  N_11 
REMARK    2  A    between atoms: C_5  and  S_8 
REMARK       I    between atoms: N_11  and  C_12 
REMARK       I    between atoms: C_12  and  N_14 
ROOT
ATOM      1  C   UNN dAMED       0.054  -1.550   0.721  0.00  0.00     0.020 A 
ATOM      2  C   UNN dAMED      -1.308  -1.295   0.592  0.00  0.00     0.015 A 
ATOM      3  C   UNN dAMED       1.016  -0.580   0.399  0.00  0.00     0.086 A 
ATOM      4  C   UNN dAMED       0.562   0.684  -0.007  0.00  0.00     0.020 A 
ATOM      5  C   UNN dAMED      -1.708  -0.039   0.160  0.00  0.00     0.107 A 
ATOM      6  C   UNN dAMED      -0.797   0.966  -0.130  0.00  0.00     0.015 A 
ENDROOT
BRANCH   3   7
ATOM      7  N   UNN dAMED       2.336  -0.829   0.535  0.00  0.00    -0.191 NA
ATOM      8  C   UNN dAMED       2.881  -1.505  -0.500  0.00  0.00     0.364 C 
ATOM      9  O   UNN dAMED       2.379  -1.706  -1.604  0.00  0.00    -0.243 OA
ATOM     10  N   UNN dAMED       4.111  -1.923  -0.163  0.00  0.00    -0.215 NA
ATOM     11  C   UNN dAMED       4.811  -1.284   0.940  0.00  0.00     0.157 C 
ENDBRANCH   3   7
BRANCH   5  12
ATOM     12  S   UNN dAMED      -3.432   0.260   0.005  0.00  0.00     0.302 S 
ATOM     13  N   UNN dAMED      -4.212  -1.218  -0.351  0.00  0.00    -0.043 N 
ATOM     14  O   UNN dAMED      -3.855   0.697   1.323  0.00  0.00    -0.197 OA
ATOM     15  O   UNN dAMED      -3.583   1.141  -1.139  0.00  0.00    -0.197 OA
ENDBRANCH   5  12
TORSDOF 2
