REMARK  3 active torsions:
REMARK  status: ('A' for Active; 'I' for Inactive)
REMARK    1  A    between atoms: C_10  and  C_17 
REMARK    2  A    between atoms: C_14  and  C_18 
REMARK    3  A    between atoms: C_17  and  C_18 
ROOT
ATOM      1  S   UNN dAMED      -5.025  -0.122  -0.130  0.00  0.00    -0.040 SA
ATOM      2  H   UNN dAMED      -3.052   1.752  -0.733  0.00  0.00     0.171 HD
ATOM      3  N   UNN dAMED      -2.573   0.905  -0.442  0.00  0.00    -0.300 N 
ATOM      4  N   UNN dAMED      -2.672  -1.316   0.295  0.00  0.00    -0.335 N 
ATOM      5  O   UNN dAMED      -0.501   1.887  -0.776  0.00  0.00    -0.267 OA
ATOM      6  H   UNN dAMED      -3.192  -2.146   0.563  0.00  0.00     0.168 HD
ATOM      7  C   UNN dAMED      -1.186   0.925  -0.441  0.00  0.00     0.256 A 
ATOM      8  C   UNN dAMED      -0.542  -0.334   0.004  0.00  0.00     0.045 A 
ATOM      9  C   UNN dAMED      -1.303  -1.380   0.341  0.00  0.00     0.036 A 
ATOM     10  C   UNN dAMED      -3.356  -0.183  -0.089  0.00  0.00     0.178 A 
ATOM     11  C   UNN dAMED      -0.644  -2.652   0.796  0.00  0.00     0.050 C 
ENDROOT
BRANCH   8  12
ATOM     12  C   UNN dAMED       0.954  -0.419   0.098  0.00  0.00     0.037 C 
BRANCH  12  13
ATOM     13  C   UNN dAMED       1.716   0.567   0.991  0.00  0.00     0.066 C 
BRANCH  13  14
ATOM     14  C   UNN dAMED       1.289   0.758   2.450  0.00  0.00     0.236 C 
ATOM     15  O   UNN dAMED       1.729  -0.217   3.413  0.00  0.00    -0.328 OA
ATOM     16  C   UNN dAMED       2.020   0.951   4.134  0.00  0.00     0.177 C 
ATOM     17  C   UNN dAMED       1.117   2.077   3.738  0.00  0.00     0.177 C 
ATOM     18  O   UNN dAMED       0.226   1.688   2.728  0.00  0.00    -0.328 OA
ENDBRANCH  13  14
ENDBRANCH  12  13
ENDBRANCH   8  12
TORSDOF 3
