REMARK  4 active torsions:
REMARK  status: ('A' for Active; 'I' for Inactive)
REMARK    1  A    between atoms: C_16  and  N_21 
REMARK    2  A    between atoms: N_17  and  C_24 
REMARK    3  A    between atoms: N_20  and  C_25 
REMARK    4  A    between atoms: C_24  and  C_25 
ROOT
ATOM      1  C   UNN dAMED      -1.076  -2.995   0.067  0.00  0.00     0.005 A 
ATOM      2  C   UNN dAMED      -2.416  -3.370   0.098  0.00  0.00     0.000 A 
ATOM      3  C   UNN dAMED       0.686  -1.251   0.023  0.00  0.00     0.263 C 
ATOM      4  C   UNN dAMED      -0.740  -1.642   0.056  0.00  0.00     0.056 A 
ATOM      5  C   UNN dAMED      -3.417  -2.399   0.116  0.00  0.00     0.000 A 
ATOM      6  C   UNN dAMED      -1.734  -0.642   0.071  0.00  0.00     0.009 A 
ATOM      7  C   UNN dAMED      -3.090  -1.043   0.102  0.00  0.00     0.002 A 
ATOM      8  C   UNN dAMED      -0.017   1.171   0.008  0.00  0.00     0.263 C 
ATOM      9  C   UNN dAMED      -1.431   0.738   0.046  0.00  0.00     0.058 A 
ATOM     10  C   UNN dAMED      -4.104  -0.086   0.112  0.00  0.00     0.024 A 
ATOM     11  C   UNN dAMED      -2.436   1.702   0.050  0.00  0.00     0.028 A 
ATOM     12  C   UNN dAMED      -3.752   1.260   0.087  0.00  0.00     0.127 A 
ATOM     13  N   UNN dAMED       0.873   0.117   0.096  0.00  0.00    -0.262 N 
ATOM     14  O   UNN dAMED       0.292   2.347  -0.126  0.00  0.00    -0.267 OA
ATOM     15  O   UNN dAMED       1.580  -2.080  -0.097  0.00  0.00    -0.267 OA
ENDROOT
BRANCH  13  16
ATOM     16  C   UNN dAMED       2.212   0.503  -0.178  0.00  0.00     0.136 C 
BRANCH  16  17
ATOM     17  C   UNN dAMED       2.501   1.826  -0.895  0.00  0.00     0.122 C 
BRANCH  17  18
ATOM     18  N   UNN dAMED       3.818   2.390  -0.870  0.00  0.00    -0.367 N 
ATOM     19  C   UNN dAMED       4.767   1.301  -1.204  0.00  0.00     0.097 A 
ATOM     20  C   UNN dAMED       6.222   1.745  -1.287  0.00  0.00     0.026 A 
ATOM     21  C   UNN dAMED       6.189   3.210  -0.951  0.00  0.00     0.026 A 
ATOM     22  C   UNN dAMED       4.720   3.513  -0.671  0.00  0.00     0.097 A 
ENDBRANCH  17  18
ENDBRANCH  16  17
ENDBRANCH  13  16
BRANCH  12  23
ATOM     23  N   UNN dAMED      -4.800   2.237   0.096  0.00  0.00    -0.114 N 
ATOM     24  O   UNN dAMED      -5.164   2.657   1.201  0.00  0.00    -0.532 OA
ATOM     25  O   UNN dAMED      -5.255   2.580  -1.002  0.00  0.00    -0.532 OA
ENDBRANCH  12  23
TORSDOF 4
