REMARK  1 active torsions:
REMARK  status: ('A' for Active; 'I' for Inactive)
REMARK    1  A    between atoms: C_1  and  N_11 
ROOT
ATOM      1  C   UNN dAMED      -1.774  -0.074   0.041  0.00  0.00     0.128 A 
ATOM      2  C   UNN dAMED      -1.358  -1.297   0.567  0.00  0.00     0.025 A 
ATOM      3  C   UNN dAMED      -0.881   0.913  -0.388  0.00  0.00     0.044 A 
ATOM      4  C   UNN dAMED       0.004  -1.590   0.693  0.00  0.00     0.020 A 
ATOM      5  C   UNN dAMED       0.490   0.623  -0.273  0.00  0.00     0.101 A 
ATOM      6  C   UNN dAMED       0.894  -0.604   0.259  0.00  0.00     0.077 A 
ATOM      7  N   UNN dAMED       2.267  -0.556   0.231  0.00  0.00    -0.326 N 
ATOM      8  N   UNN dAMED       1.580   1.393  -0.614  0.00  0.00    -0.215 NA
ATOM      9  H   UNN dAMED       2.899  -1.282   0.544  0.00  0.00     0.168 HD
ATOM     10  C   UNN dAMED       2.613   0.651  -0.296  0.00  0.00     0.215 A 
ATOM     11  N   UNN dAMED       3.958   1.069  -0.484  0.00  0.00    -0.061 NA
ENDROOT
BRANCH   1  12
ATOM     12  N   UNN dAMED      -3.192   0.185  -0.067  0.00  0.00    -0.114 N 
ATOM     13  O   UNN dAMED      -3.606   0.641  -1.141  0.00  0.00    -0.532 OA
ATOM     14  O   UNN dAMED      -3.892  -0.067   0.923  0.00  0.00    -0.532 OA
ENDBRANCH   1  12
TORSDOF 1
