REMARK  3 active torsions:
REMARK  status: ('A' for Active; 'I' for Inactive)
REMARK    1  A    between atoms: C_2  and  S_10 
REMARK    2  A    between atoms: S_10  and  C_11 
REMARK    3  A    between atoms: C_11  and  C_12 
ROOT
ATOM      1  C   UNN dAMED      -2.294   1.333   0.156  0.00  0.00     0.020 A 
ATOM      2  C   UNN dAMED       0.401  -0.997  -0.048  0.00  0.00     0.137 A 
ATOM      3  C   UNN dAMED      -1.446   0.211   0.063  0.00  0.00     0.088 A 
ATOM      4  C   UNN dAMED      -3.678   1.152   0.173  0.00  0.00     0.002 A 
ATOM      5  C   UNN dAMED      -2.021  -1.059  -0.010  0.00  0.00     0.049 A 
ATOM      6  C   UNN dAMED      -4.224  -0.123   0.096  0.00  0.00     0.001 A 
ATOM      7  C   UNN dAMED      -3.410  -1.252   0.003  0.00  0.00     0.008 A 
ATOM      8  N   UNN dAMED      -0.059   0.230   0.037  0.00  0.00    -0.232 NA
ATOM      9  S   UNN dAMED      -0.773  -2.240  -0.106  0.00  0.00    -0.060 SA
ENDROOT
BRANCH   2  10
ATOM     10  S   UNN dAMED       2.120  -1.327  -0.094  0.00  0.00    -0.077 SA
BRANCH  10  11
ATOM     11  C   UNN dAMED       1.942  -3.114  -0.100  0.00  0.00     0.161 C 
BRANCH  11  12
ATOM     12  C   UNN dAMED       2.651  -3.973   0.920  0.00  0.00     0.197 C 
ATOM     13  O   UNN dAMED       2.156  -3.996   2.087  0.00  0.00    -0.647 OA
ATOM     14  O   UNN dAMED       3.652  -4.632   0.507  0.00  0.00    -0.647 OA
ENDBRANCH  11  12
ENDBRANCH  10  11
ENDBRANCH   2  10
TORSDOF 3
