REMARK  3 active torsions:
REMARK  status: ('A' for Active; 'I' for Inactive)
REMARK    1  A    between atoms: C_8  and  C_20 
REMARK    2  A    between atoms: C_15  and  C_20 
REMARK    3  A    between atoms: C_16  and  C_18 
ROOT
ATOM      1  O   UNN dAMED      -3.638   0.390   0.504  0.00  0.00    -0.311 OA
ATOM      2  C   UNN dAMED      -3.832  -1.990  -0.033  0.00  0.00     0.025 A 
ATOM      3  C   UNN dAMED      -3.098  -3.095  -0.473  0.00  0.00     0.002 A 
ATOM      4  C   UNN dAMED      -3.118  -0.799   0.090  0.00  0.00     0.100 A 
ATOM      5  C   UNN dAMED      -1.764  -0.658  -0.202  0.00  0.00     0.028 A 
ATOM      6  C   UNN dAMED      -1.739  -3.001  -0.770  0.00  0.00     0.000 A 
ATOM      7  C   UNN dAMED      -1.442   0.713   0.040  0.00  0.00     0.059 A 
ATOM      8  C   UNN dAMED      -2.614   1.274   0.497  0.00  0.00     0.081 A 
ATOM      9  C   UNN dAMED      -1.056  -1.788  -0.645  0.00  0.00     0.002 A 
ENDROOT
BRANCH   7  10
ATOM     10  C   UNN dAMED      -0.167   1.382  -0.141  0.00  0.00     0.197 C 
ATOM     11  O   UNN dAMED       0.900   0.786  -0.020  0.00  0.00    -0.286 OA
BRANCH  10  12
ATOM     12  C   UNN dAMED      -0.141   2.819  -0.479  0.00  0.00     0.040 A 
ATOM     13  C   UNN dAMED       0.937   3.586  -0.069  0.00  0.00     0.013 A 
ATOM     14  C   UNN dAMED       0.984   4.953  -0.377  0.00  0.00     0.074 A 
ATOM     15 BR   UNN dAMED       2.569   5.841   0.216  0.00  0.00    -0.046 Br
ATOM     16  C   UNN dAMED      -0.045   5.639  -1.078  0.00  0.00     0.208 A 
ATOM     17  C   UNN dAMED      -1.119   4.792  -1.468  0.00  0.00     0.074 A 
ATOM     18  O   UNN dAMED      -0.009   6.893  -1.334  0.00  0.00    -0.285 OA
ATOM     19 BR   UNN dAMED      -2.657   5.462  -2.383  0.00  0.00    -0.046 Br
ATOM     20  C   UNN dAMED      -1.159   3.417  -1.203  0.00  0.00     0.013 A 
ENDBRANCH  10  12
ENDBRANCH   7  10
BRANCH   8  21
ATOM     21  C   UNN dAMED      -2.800   2.752   0.671  0.00  0.00     0.052 C 
ATOM     22  C   UNN dAMED      -3.891   3.292   1.600  0.00  0.00     0.007 C 
ENDBRANCH   8  21
TORSDOF 3
