REMARK  3 active torsions:
REMARK  status: ('A' for Active; 'I' for Inactive)
REMARK    1  A    between atoms: C_3  and  N_8 
REMARK       I    between atoms: N_8  and  C_10 
REMARK       I    between atoms: C_10  and  N_12 
REMARK    2  A    between atoms: N_12  and  C_13 
REMARK    3  A    between atoms: C_13  and  C_14 
ROOT
ATOM      1  C   UNN dAMED      -1.686   0.421  -1.536  0.00  0.00     0.019 A 
ATOM      2  C   UNN dAMED      -3.077   0.426  -1.427  0.00  0.00    -0.003 A 
ATOM      3  C   UNN dAMED      -0.874  -0.051  -0.495  0.00  0.00     0.082 A 
ATOM      4  C   UNN dAMED      -1.509  -0.565   0.644  0.00  0.00    -0.004 A 
ATOM      5  C   UNN dAMED      -3.681  -0.062  -0.273  0.00  0.00    -0.022 A 
ATOM      6  C   UNN dAMED      -2.899  -0.565   0.761  0.00  0.00    -0.007 A 
ATOM      7  C   UNN dAMED      -5.169   0.045  -0.099  0.00  0.00     0.031 C 
ATOM      8  C   UNN dAMED      -0.674  -1.123   1.762  0.00  0.00     0.033 C 
ENDROOT
BRANCH   3   9
ATOM      9  N   UNN dAMED       0.471  -0.063  -0.598  0.00  0.00    -0.192 NA
ATOM     10  C   UNN dAMED       1.061   1.102  -0.250  0.00  0.00     0.364 C 
ATOM     11  O   UNN dAMED       0.585   1.991   0.452  0.00  0.00    -0.243 OA
ATOM     12  N   UNN dAMED       2.303   1.142  -0.755  0.00  0.00    -0.217 NA
BRANCH  12  13
ATOM     13  C   UNN dAMED       2.889  -0.071  -1.299  0.00  0.00     0.131 C 
BRANCH  13  14
ATOM     14  C   UNN dAMED       4.119   0.011  -2.208  0.00  0.00     0.026 C 
ATOM     15  C   UNN dAMED       4.948  -1.247  -2.487  0.00  0.00     0.002 C 
ENDBRANCH  13  14
ENDBRANCH  12  13
ENDBRANCH   3   9
TORSDOF 3
