REMARK  2 active torsions:
REMARK  status: ('A' for Active; 'I' for Inactive)
REMARK    1  A    between atoms: C4*_2  and  C5*_6 
REMARK    2  A    between atoms: C_15  and  C_16 
ROOT
ATOM      1  O4* UNN dAMED       2.361  -0.108   0.362  0.00  0.00    -0.335 OA
ATOM      2  C4* UNN dAMED       2.822  -0.444  -0.939  0.00  0.00     0.183 C 
ATOM      3  C3* UNN dAMED       2.073   0.216  -2.087  0.00  0.00     0.216 C 
ATOM      4  C2* UNN dAMED       0.898   0.852  -1.394  0.00  0.00     0.228 C 
ATOM      5  C1* UNN dAMED       1.054   0.371   0.057  0.00  0.00     0.219 C 
ATOM      6  N   UNN dAMED      -3.430   1.909   0.800  0.00  0.00    -0.210 NA
ATOM      7  C   UNN dAMED      -2.275   2.399   1.302  0.00  0.00     0.201 A 
ATOM      8  N   UNN dAMED      -1.061   1.814   1.347  0.00  0.00    -0.212 NA
ATOM      9  C   UNN dAMED      -1.098   0.590   0.796  0.00  0.00     0.130 A 
ATOM     10  C   UNN dAMED      -2.203  -0.042   0.235  0.00  0.00     0.063 A 
ATOM     11  C   UNN dAMED      -3.405   0.668   0.257  0.00  0.00     0.155 A 
ATOM     12  N   UNN dAMED      -0.051  -0.273   0.694  0.00  0.00    -0.190 NA
ATOM     13  C   UNN dAMED      -0.402  -1.375  -0.028  0.00  0.00     0.056 C 
ATOM     14  C   UNN dAMED      -1.764  -1.310  -0.253  0.00  0.00     0.040 C 
ATOM     15  N   UNN dAMED      -4.589   0.097  -0.288  0.00  0.00    -0.080 NA
ATOM     16  O3* UNN dAMED       1.912  -0.453  -3.272  0.00  0.00    -0.218 OA
ATOM     17  O2* UNN dAMED       0.577   2.160  -1.666  0.00  0.00    -0.216 OA
ENDROOT
BRANCH  14  18
ATOM     18  C   UNN dAMED      -2.510  -2.314  -0.966  0.00  0.00     0.126 C 
ATOM     19  S   UNN dAMED      -3.382  -3.383  -0.023  0.00  0.00    -0.063 SA
ATOM     20  N   UNN dAMED      -2.071  -2.721  -2.258  0.00  0.00    -0.089 NA
ENDBRANCH  14  18
BRANCH   2  21
ATOM     21  C5* UNN dAMED       4.141  -1.197  -1.155  0.00  0.00     0.214 C 
ATOM     22  O5* UNN dAMED       5.329  -0.520  -1.186  0.00  0.00    -0.218 OA
ENDBRANCH   2  21
TORSDOF 2
