REMARK  1 active torsions:
REMARK  status: ('A' for Active; 'I' for Inactive)
REMARK    1  A    between atoms: C_15  and  O_17 
ROOT
ATOM      1  N   UNN dAMED      -0.153   0.966   0.202  0.00  0.00    -0.353 N 
ATOM      2  H   UNN dAMED      -0.465   1.907   0.401  0.00  0.00     0.166 HD
ATOM      3  C   UNN dAMED      -3.119   1.144  -0.183  0.00  0.00     0.001 A 
ATOM      4  C   UNN dAMED      -2.438  -0.050   0.070  0.00  0.00     0.016 A 
ATOM      5  C   UNN dAMED      -4.511   1.198  -0.125  0.00  0.00     0.000 A 
ATOM      6  C   UNN dAMED      -5.238   0.053   0.188  0.00  0.00     0.000 A 
ATOM      7  C   UNN dAMED      -3.182  -1.192   0.383  0.00  0.00     0.001 A 
ATOM      8  C   UNN dAMED      -0.982  -0.119   0.010  0.00  0.00     0.057 A 
ATOM      9  C   UNN dAMED      -0.152  -1.198  -0.234  0.00  0.00     0.018 A 
ATOM     10  C   UNN dAMED      -4.574  -1.143   0.442  0.00  0.00     0.000 A 
ATOM     11  C   UNN dAMED       1.196  -0.764  -0.191  0.00  0.00     0.019 A 
ATOM     12  C   UNN dAMED       2.328   1.377   0.204  0.00  0.00     0.019 A 
ATOM     13  C   UNN dAMED       3.550   0.723   0.032  0.00  0.00     0.026 A 
ATOM     14  C   UNN dAMED       1.170   0.601   0.085  0.00  0.00     0.057 A 
ATOM     15  C   UNN dAMED       3.591  -0.637  -0.244  0.00  0.00     0.094 A 
ATOM     16  C   UNN dAMED       2.434  -1.407  -0.361  0.00  0.00     0.026 A 
ENDROOT
BRANCH  15  17
ATOM     17  O   UNN dAMED       4.804  -1.241  -0.407  0.00  0.00    -0.328 OA
ATOM     18  C   UNN dAMED       4.508  -2.550  -0.793  0.00  0.00     0.181 C 
ENDBRANCH  15  17
TORSDOF 1
