REMARK  2 active torsions:
REMARK  status: ('A' for Active; 'I' for Inactive)
REMARK    1  A    between atoms: O_1  and  C_4 
REMARK    2  A    between atoms: O_2  and  C_3 
ROOT
ATOM      1  C   UNN dAMED      -3.062   0.891   0.503  0.00  0.00     0.118 A 
ATOM      2  C   UNN dAMED      -3.208  -0.276  -0.266  0.00  0.00     0.117 A 
ATOM      3  C   UNN dAMED      -2.107  -1.005  -0.709  0.00  0.00     0.031 A 
ATOM      4  C   UNN dAMED      -1.807   1.377   0.865  0.00  0.00     0.046 A 
ATOM      5  C   UNN dAMED      -0.726   0.645   0.420  0.00  0.00     0.095 A 
ATOM      6  C   UNN dAMED      -0.877  -0.505  -0.344  0.00  0.00     0.061 A 
ATOM      7  C   UNN dAMED       0.466  -0.979  -0.627  0.00  0.00     0.215 A 
ATOM      8  N   UNN dAMED       0.662   0.927   0.647  0.00  0.00    -0.182 N 
ATOM      9  O   UNN dAMED       1.075   1.918   1.322  0.00  0.00    -0.080 OA
ATOM     10  O   UNN dAMED       0.790  -1.953  -1.261  0.00  0.00    -0.285 OA
ATOM     11  C   UNN dAMED       1.402   0.009   0.052  0.00  0.00     0.129 A 
ATOM     12  C   UNN dAMED       2.862  -0.065   0.043  0.00  0.00     0.021 A 
ATOM     13  C   UNN dAMED       3.483  -1.241  -0.373  0.00  0.00     0.002 A 
ATOM     14  C   UNN dAMED       4.873  -1.326  -0.410  0.00  0.00     0.000 A 
ATOM     15  C   UNN dAMED       5.646  -0.238  -0.015  0.00  0.00     0.000 A 
ATOM     16  C   UNN dAMED       5.030   0.938   0.406  0.00  0.00     0.000 A 
ATOM     17  C   UNN dAMED       3.640   1.027   0.424  0.00  0.00     0.002 A 
ENDROOT
BRANCH   2  18
ATOM     18  O   UNN dAMED      -4.456  -0.717  -0.600  0.00  0.00    -0.326 OA
ATOM     19  C   UNN dAMED      -5.328   0.237  -0.071  0.00  0.00     0.181 C 
ENDBRANCH   2  18
BRANCH   1  20
ATOM     20  O   UNN dAMED      -4.169   1.582   0.906  0.00  0.00    -0.326 OA
ATOM     21  C   UNN dAMED      -5.229   1.019   0.191  0.00  0.00     0.181 C 
ENDBRANCH   1  20
TORSDOF 2
