REMARK  1 active torsions:
REMARK  status: ('A' for Active; 'I' for Inactive)
REMARK    1  A    between atoms: N_6  and  C_16 
ROOT
ATOM      1  O   UNN dAMED      -3.186   1.242   0.315  0.00  0.00    -0.246 OA
ATOM      2  N   UNN dAMED      -2.139  -0.819   0.011  0.00  0.00    -0.246 N 
ATOM      3  N   UNN dAMED      -0.881   1.057   0.505  0.00  0.00    -0.269 N 
ATOM      4  O   UNN dAMED      -1.145  -2.748  -0.855  0.00  0.00    -0.266 OA
ATOM      5  N   UNN dAMED       1.470  -1.380  -0.394  0.00  0.00    -0.181 NA
ATOM      6  N   UNN dAMED       1.533   0.815   0.150  0.00  0.00    -0.174 NA
ATOM      7  O   UNN dAMED       3.588  -0.289  -0.340  0.00  0.00    -0.259 OA
ATOM      8  C   UNN dAMED      -1.069  -1.630  -0.367  0.00  0.00     0.277 C 
ATOM      9  C   UNN dAMED       0.204  -0.916  -0.178  0.00  0.00     0.128 A 
ATOM     10  C   UNN dAMED       0.242   0.363   0.211  0.00  0.00     0.126 A 
ATOM     11  C   UNN dAMED       2.374  -0.287  -0.211  0.00  0.00     0.289 A 
ATOM     12  C   UNN dAMED      -2.165   0.559   0.302  0.00  0.00     0.335 C 
ATOM     13  C   UNN dAMED      -3.375  -1.278  -0.516  0.00  0.00     0.138 C 
ATOM     14  C   UNN dAMED      -0.773   2.451   0.263  0.00  0.00     0.136 C 
ATOM     15  C   UNN dAMED       1.598  -1.901  -1.709  0.00  0.00     0.104 C 
ENDROOT
BRANCH   6  16
ATOM     16  C   UNN dAMED       1.943   1.342   1.405  0.00  0.00     0.087 C 
ATOM     17  C   UNN dAMED       0.920   2.012   2.327  0.00  0.00     0.020 C 
ENDBRANCH   6  16
TORSDOF 1
