REMARK  2 active torsions:
REMARK  status: ('A' for Active; 'I' for Inactive)
REMARK    1  A    between atoms: C_7  and  O_16 
REMARK    2  A    between atoms: O_16  and  C_17 
ROOT
ATOM      1  O   UNN dAMED       2.048  -2.754  -0.617  0.00  0.00    -0.287 OA
ATOM      2  C   UNN dAMED       2.233   2.002   0.179  0.00  0.00     0.198 A 
ATOM      3  C   UNN dAMED       1.564   0.770  -0.003  0.00  0.00     0.067 A 
ATOM      4  C   UNN dAMED       3.633   1.929   0.072  0.00  0.00     0.042 A 
ATOM      5  C   UNN dAMED       0.054   0.740  -0.035  0.00  0.00     0.136 C 
ATOM      6  C   UNN dAMED      -0.540  -0.467   0.670  0.00  0.00     0.048 C 
ATOM      7  C   UNN dAMED      -2.044  -0.554   0.898  0.00  0.00     0.104 C 
ATOM      8  C   UNN dAMED      -2.822  -1.652   0.152  0.00  0.00     0.021 C 
ATOM      9  C   UNN dAMED       4.334   0.744  -0.171  0.00  0.00     0.003 A 
ATOM     10  C   UNN dAMED       2.258  -0.436  -0.218  0.00  0.00     0.044 A 
ATOM     11  C   UNN dAMED       0.151  -1.775   0.359  0.00  0.00     0.025 C 
ATOM     12  C   UNN dAMED      -2.187  -2.768  -0.217  0.00  0.00    -0.019 C 
ATOM     13  C   UNN dAMED       3.643  -0.451  -0.304  0.00  0.00     0.003 A 
ATOM     14  C   UNN dAMED       1.506  -1.707  -0.293  0.00  0.00     0.192 C 
ATOM     15  C   UNN dAMED      -0.753  -3.007   0.274  0.00  0.00     0.056 C 
ATOM     16  O   UNN dAMED      -0.607   1.205  -1.147  0.00  0.00    -0.190 OA
ATOM     17  O   UNN dAMED       1.629   3.094   0.433  0.00  0.00    -0.286 OA
ENDROOT
BRANCH   7  18
ATOM     18  O   UNN dAMED      -2.708   0.518   1.501  0.00  0.00    -0.276 OA
BRANCH  18  19
ATOM     19  C   UNN dAMED      -3.610   0.949   0.584  0.00  0.00     0.277 C 
ATOM     20  O   UNN dAMED      -4.199   0.190  -0.174  0.00  0.00    -0.264 OA
ATOM     21  C   UNN dAMED      -3.832   2.430   0.441  0.00  0.00     0.107 C 
ENDBRANCH  18  19
ENDBRANCH   7  18
TORSDOF 2
