REMARK  5 active torsions:
REMARK  status: ('A' for Active; 'I' for Inactive)
REMARK    1  A    between atoms: C_6  and  C_15 
REMARK    2  A    between atoms: C_7  and  N_16 
REMARK    3  A    between atoms: C_9  and  C_15 
REMARK    4  A    between atoms: C_9  and  C_18 
REMARK       I    between atoms: C_10  and  N_11 
REMARK    5  A    between atoms: N_16  and  N_17 
ROOT
ATOM      1  C   UNN dAMED       2.192   3.289   0.541  0.00  0.00     0.016 C 
ATOM      2  C   UNN dAMED       3.323   2.382   1.124  0.00  0.00     0.027 C 
ATOM      3  C   UNN dAMED       0.822   2.894   0.112  0.00  0.00     0.193 C 
ATOM      4  O   UNN dAMED      -0.018   3.773  -0.009  0.00  0.00    -0.287 OA
ATOM      5  C   UNN dAMED       3.082   1.447  -0.035  0.00  0.00     0.052 C 
ATOM      6  C   UNN dAMED       0.619   1.470  -0.108  0.00  0.00     0.057 C 
ATOM      7  C   UNN dAMED       1.742   0.737  -0.058  0.00  0.00     0.084 C 
ATOM      8  C   UNN dAMED       3.564   3.320   2.287  0.00  0.00     0.005 C 
ATOM      9  C   UNN dAMED       2.323   1.994   2.291  0.00  0.00     0.005 C 
ENDROOT
BRANCH   6  10
ATOM     10  C   UNN dAMED      -0.654   0.655  -0.060  0.00  0.00     0.046 C 
BRANCH  10  11
ATOM     11  C   UNN dAMED      -1.695   0.473  -1.153  0.00  0.00     0.196 C 
ATOM     12  O   UNN dAMED      -1.554   0.981  -2.264  0.00  0.00    -0.287 OA
BRANCH  11  13
ATOM     13  C   UNN dAMED      -2.723  -0.579  -1.035  0.00  0.00     0.039 A 
ATOM     14  C   UNN dAMED      -3.647  -0.772  -2.050  0.00  0.00     0.003 A 
ATOM     15  C   UNN dAMED      -4.674  -1.707  -1.871  0.00  0.00     0.000 A 
ATOM     16  C   UNN dAMED      -4.760  -2.429  -0.678  0.00  0.00     0.000 A 
ATOM     17  C   UNN dAMED      -3.817  -2.244   0.330  0.00  0.00     0.000 A 
ATOM     18  C   UNN dAMED      -2.796  -1.313   0.150  0.00  0.00     0.003 A 
ENDBRANCH  11  13
ENDBRANCH  10  11
ENDBRANCH   6  10
BRANCH   7  19
ATOM     19  N   UNN dAMED       1.880  -0.597  -0.020  0.00  0.00    -0.150 NA
BRANCH  19  20
ATOM     20  N   UNN dAMED       3.288  -1.025  -0.197  0.00  0.00    -0.114 NA
ATOM     21  C   UNN dAMED       3.353  -2.177   0.444  0.00  0.00     0.249 C 
ATOM     22  N   UNN dAMED       4.368  -2.975   0.361  0.00  0.00    -0.268 NA
ATOM     23  N   UNN dAMED       2.229  -2.525   1.242  0.00  0.00    -0.059 NA
ATOM     24  H   UNN dAMED       4.106  -3.755   0.961  0.00  0.00     0.190 HD
ENDBRANCH  19  20
ENDBRANCH   7  19
TORSDOF 5
