REMARK  2 active torsions:
REMARK  status: ('A' for Active; 'I' for Inactive)
REMARK    1  A    between atoms: C_3  and  N_6 
REMARK    2  A    between atoms: C_4  and  N_10 
ROOT
ATOM      1  N   UNN dAMED      -1.273  -1.775  -0.041  0.00  0.00    -0.206 NA
ATOM      2  N   UNN dAMED       0.846  -1.175   0.142  0.00  0.00    -0.195 NA
ATOM      3  C   UNN dAMED      -1.156  -0.415   0.068  0.00  0.00     0.238 C 
ATOM      4  C   UNN dAMED       0.154   0.003   0.100  0.00  0.00     0.168 C 
ATOM      5  C   UNN dAMED      -0.026  -2.202  -0.085  0.00  0.00     0.156 C 
ATOM      6  C   UNN dAMED       1.833  -1.163  -0.883  0.00  0.00     0.103 C 
ENDROOT
BRANCH   4   7
ATOM      7  N   UNN dAMED       0.626   1.263   0.155  0.00  0.00    -0.198 NA
ATOM      8  C   UNN dAMED       1.933   1.314  -0.064  0.00  0.00     0.258 C 
ATOM      9  N   UNN dAMED       2.726   0.157   0.182  0.00  0.00    -0.058 NA
ATOM     10  N   UNN dAMED       2.472   2.517   0.066  0.00  0.00    -0.111 N 
ENDBRANCH   4   7
BRANCH   3  11
ATOM     11  N   UNN dAMED      -2.343   0.352   0.116  0.00  0.00    -0.092 N 
ATOM     12  O   UNN dAMED      -2.962   0.338   1.186  0.00  0.00    -0.530 OA
ATOM     13  O   UNN dAMED      -2.663   0.944  -0.919  0.00  0.00    -0.530 OA
ENDBRANCH   3  11
TORSDOF 2
