REMARK  4 active torsions:
REMARK  status: ('A' for Active; 'I' for Inactive)
REMARK    1  A    between atoms: N_1  and  C_16 
REMARK    2  A    between atoms: C_6  and  N_11 
REMARK       I    between atoms: N_11  and  C_12 
REMARK       I    between atoms: C_12  and  N_14 
REMARK    3  A    between atoms: N_14  and  C_15 
REMARK    4  A    between atoms: C_15  and  C_16 
ROOT
ATOM      1  N   UNN dAMED      -0.598   0.960  -0.145  0.00  0.00    -0.192 NA
ATOM      2  C   UNN dAMED       0.069   1.204  -1.281  0.00  0.00     0.364 C 
ATOM      3  O   UNN dAMED       0.006   0.689  -2.403  0.00  0.00    -0.243 OA
ATOM      4  N   UNN dAMED       0.953   2.196  -1.097  0.00  0.00    -0.215 NA
ENDROOT
BRANCH   1   5
ATOM      5  C   UNN dAMED      -1.578   0.036  -0.069  0.00  0.00     0.082 A 
ATOM      6  C   UNN dAMED      -1.391  -1.337   0.121  0.00  0.00     0.019 A 
ATOM      7  C   UNN dAMED      -2.466  -2.221   0.223  0.00  0.00     0.002 A 
ATOM      8  C   UNN dAMED      -3.764  -1.746   0.150  0.00  0.00    -0.000 A 
ATOM      9  C   UNN dAMED      -3.972  -0.390  -0.059  0.00  0.00    -0.003 A 
ATOM     10  C   UNN dAMED      -2.893   0.485  -0.161  0.00  0.00    -0.004 A 
ATOM     11  C   UNN dAMED      -3.139   1.944  -0.398  0.00  0.00     0.033 C 
ENDBRANCH   1   5
BRANCH   4  12
ATOM     12  C   UNN dAMED       0.622   2.794   0.148  0.00  0.00     0.166 C 
BRANCH  12  13
ATOM     13  C   UNN dAMED      -0.226   4.035  -0.083  0.00  0.00     0.277 C 
BRANCH  13  14
ATOM     14  N   UNN dAMED      -1.243   4.348   1.063  0.00  0.00     0.143 N 
ATOM     15  C   UNN dAMED      -0.914   5.299  -0.083  0.00  0.00     0.286 A 
ATOM     16  C   UNN dAMED      -0.147   4.010  -0.173  0.00  0.00     0.286 A 
ENDBRANCH  13  14
ENDBRANCH  12  13
ENDBRANCH   4  12
TORSDOF 4
