REMARK  4 active torsions:
REMARK  status: ('A' for Active; 'I' for Inactive)
REMARK    1  A    between atoms: N_1  and  C_18 
REMARK    2  A    between atoms: N_2  and  C_7 
REMARK    3  A    between atoms: N_3  and  C_6 
REMARK    4  A    between atoms: N_4  and  C_12 
ROOT
ATOM      1  C   UNN dAMED       0.305  -0.371  -0.433  0.00  0.00     0.237 A 
ATOM      2  C   UNN dAMED       1.385  -0.903   0.323  0.00  0.00     0.143 A 
ATOM      3  C   UNN dAMED      -1.001  -0.885  -0.091  0.00  0.00     0.182 A 
ATOM      4  C   UNN dAMED       1.182  -1.894   1.285  0.00  0.00     0.028 A 
ATOM      5  C   UNN dAMED      -1.237  -1.900   0.897  0.00  0.00     0.218 A 
ATOM      6  C   UNN dAMED      -0.094  -2.364   1.553  0.00  0.00     0.045 A 
ATOM      7  O   UNN dAMED      -2.388  -2.377   1.181  0.00  0.00    -0.285 OA
ATOM      8  O   UNN dAMED       0.483   0.504  -1.353  0.00  0.00    -0.283 OA
ENDROOT
BRANCH   2   9
ATOM      9  N   UNN dAMED       2.718  -0.495   0.087  0.00  0.00    -0.145 NA
ATOM     10  N   UNN dAMED       3.042   0.386   0.915  0.00  0.00    -0.148 NA
BRANCH  10  11
ATOM     11  C   UNN dAMED       4.371   0.777   0.698  0.00  0.00     0.103 A 
ATOM     12  C   UNN dAMED       4.658   1.886  -0.101  0.00  0.00     0.021 A 
ATOM     13  C   UNN dAMED       5.974   2.309  -0.274  0.00  0.00     0.002 A 
ATOM     14  C   UNN dAMED       7.012   1.632   0.362  0.00  0.00     0.000 A 
ATOM     15  C   UNN dAMED       6.733   0.537   1.175  0.00  0.00     0.002 A 
ATOM     16  C   UNN dAMED       5.417   0.116   1.348  0.00  0.00     0.021 A 
ENDBRANCH  10  11
ENDBRANCH   2   9
BRANCH   3  17
ATOM     17  N   UNN dAMED      -2.135  -0.404  -0.810  0.00  0.00    -0.141 NA
ATOM     18  N   UNN dAMED      -2.536   0.671  -0.307  0.00  0.00    -0.148 NA
BRANCH  18  19
ATOM     19  C   UNN dAMED      -3.711   1.096  -0.946  0.00  0.00     0.103 A 
ATOM     20  C   UNN dAMED      -3.701   1.552  -2.268  0.00  0.00     0.021 A 
ATOM     21  C   UNN dAMED      -4.872   2.015  -2.865  0.00  0.00     0.002 A 
ATOM     22  C   UNN dAMED      -6.058   2.050  -2.135  0.00  0.00     0.000 A 
ATOM     23  C   UNN dAMED      -6.073   1.622  -0.810  0.00  0.00     0.002 A 
ATOM     24  C   UNN dAMED      -4.903   1.149  -0.218  0.00  0.00     0.021 A 
ENDBRANCH  18  19
ENDBRANCH   3  17
TORSDOF 4
