REMARK  3 active torsions:
REMARK  status: ('A' for Active; 'I' for Inactive)
REMARK    1  A    between atoms: C_2  and  C_8 
REMARK    2  A    between atoms: C_2  and  C_19 
REMARK    3  A    between atoms: C_5  and  C_18 
ROOT
ATOM      1  C   UNN dAMED      -0.159   1.063  -0.118  0.00  0.00     0.053 C 
ATOM      2  C   UNN dAMED      -1.016   0.382   0.655  0.00  0.00     0.004 C 
ENDROOT
BRANCH   1   3
ATOM      3  C   UNN dAMED       1.268   0.897   0.170  0.00  0.00     0.004 A 
ATOM      4  C   UNN dAMED       2.009   2.034   0.502  0.00  0.00     0.000 A 
ATOM      5  C   UNN dAMED       3.358   1.931   0.824  0.00  0.00     0.000 A 
ATOM      6  C   UNN dAMED       3.974   0.684   0.834  0.00  0.00     0.000 A 
ATOM      7  C   UNN dAMED       3.249  -0.465   0.519  0.00  0.00     0.000 A 
ATOM      8  C   UNN dAMED       1.880  -0.373   0.181  0.00  0.00     0.000 A 
ATOM      9  C   UNN dAMED       3.883  -1.706   0.547  0.00  0.00     0.000 A 
ATOM     10  C   UNN dAMED       1.189  -1.558  -0.122  0.00  0.00     0.000 A 
ATOM     11  C   UNN dAMED       1.831  -2.794  -0.094  0.00  0.00     0.000 A 
ATOM     12  C   UNN dAMED       3.178  -2.867   0.241  0.00  0.00     0.000 A 
ENDBRANCH   1   3
BRANCH   1  13
ATOM     13  C   UNN dAMED      -0.614   1.800  -1.323  0.00  0.00     0.266 C 
ATOM     14  O   UNN dAMED       0.135   2.079  -2.250  0.00  0.00    -0.271 OA
ATOM     15  N   UNN dAMED      -2.016   1.975  -1.507  0.00  0.00    -0.057 NA
ENDBRANCH   1  13
BRANCH   2  16
ATOM     16  C   UNN dAMED      -2.505   0.631   0.771  0.00  0.00     0.003 A 
ATOM     17  C   UNN dAMED      -3.358   0.413  -0.306  0.00  0.00     0.021 A 
ATOM     18  C   UNN dAMED      -4.719   0.558  -0.092  0.00  0.00     0.099 A 
ATOM     19  N   UNN dAMED      -5.269   0.873   1.100  0.00  0.00    -0.242 NA
ATOM     20  C   UNN dAMED      -4.412   1.051   2.128  0.00  0.00     0.099 A 
ATOM     21  C   UNN dAMED      -3.036   0.942   2.019  0.00  0.00     0.021 A 
ENDBRANCH   2  16
TORSDOF 3
