REMARK  4 active torsions:
REMARK  status: ('A' for Active; 'I' for Inactive)
REMARK    1  A    between atoms: N_2  and  C_20 
REMARK    2  A    between atoms: C_20  and  C_21 
REMARK    3  A    between atoms: C_21  and  C_22 
REMARK    4  A    between atoms: C_22  and  N_23 
ROOT
ATOM      1 CL   UNN dAMED       4.375  -1.550  -0.369  0.00  0.00    -0.081 Cl
ATOM      2  N   UNN dAMED       1.509  -0.618  -0.052  0.00  0.00    -0.326 N 
ATOM      3  S   UNN dAMED      -1.070  -2.419   0.255  0.00  0.00    -0.084 SA
ATOM      4  C   UNN dAMED      -4.626   0.313   0.344  0.00  0.00     0.000 A 
ATOM      5  C   UNN dAMED      -3.465  -0.460   0.334  0.00  0.00     0.001 A 
ATOM      6  C   UNN dAMED      -4.535   1.697   0.271  0.00  0.00     0.000 A 
ATOM      7  C   UNN dAMED      -3.283   2.301   0.195  0.00  0.00     0.000 A 
ATOM      8  C   UNN dAMED      -2.184   0.120   0.247  0.00  0.00     0.007 A 
ATOM      9  C   UNN dAMED      -2.119   1.531   0.185  0.00  0.00     0.001 A 
ATOM     10  C   UNN dAMED      -0.979  -0.635   0.196  0.00  0.00     0.045 A 
ATOM     11  C   UNN dAMED      -0.891   2.173   0.104  0.00  0.00     0.002 A 
ATOM     12  C   UNN dAMED       0.254   0.030   0.081  0.00  0.00     0.066 A 
ATOM     13  C   UNN dAMED       0.278   1.429   0.055  0.00  0.00     0.018 A 
ATOM     14  C   UNN dAMED       0.838  -4.299  -0.082  0.00  0.00     0.008 A 
ATOM     15  C   UNN dAMED       2.115  -4.809  -0.263  0.00  0.00     0.002 A 
ATOM     16  C   UNN dAMED       0.618  -2.920  -0.001  0.00  0.00     0.046 A 
ATOM     17  C   UNN dAMED       1.690  -2.025  -0.103  0.00  0.00     0.077 A 
ATOM     18  C   UNN dAMED       3.191  -3.940  -0.347  0.00  0.00     0.013 A 
ATOM     19  C   UNN dAMED       2.981  -2.562  -0.267  0.00  0.00     0.074 A 
ENDROOT
BRANCH   2  20
ATOM     20  C   UNN dAMED       2.698   0.228  -0.105  0.00  0.00     0.113 C 
BRANCH  20  21
ATOM     21  C   UNN dAMED       3.276   0.868   1.171  0.00  0.00     0.069 C 
BRANCH  21  22
ATOM     22  C   UNN dAMED       2.566   0.741   2.529  0.00  0.00     0.047 C 
BRANCH  22  23
ATOM     23  N   UNN dAMED       1.935   1.858   3.095  0.00  0.00    -0.347 N 
ATOM     24  C   UNN dAMED       1.275   3.025   3.686  0.00  0.00     0.126 C 
ATOM     25  C   UNN dAMED       1.027   3.017   2.957  0.00  0.00     0.126 C 
ENDBRANCH  22  23
ENDBRANCH  21  22
ENDBRANCH  20  21
ENDBRANCH   2  20
TORSDOF 4
