REMARK  3 active torsions:
REMARK  status: ('A' for Active; 'I' for Inactive)
REMARK    1  A    between atoms: C_5  and  S_6 
REMARK    2  A    between atoms: S_6  and  C_7 
REMARK    3  A    between atoms: C_11  and  N_12 
ROOT
ATOM      1  N   UNN dAMED       0.001  -0.330  -1.808  0.00  0.00    -0.128 NA
ATOM      2  N   UNN dAMED       1.348  -0.640  -1.702  0.00  0.00    -0.135 NA
ATOM      3  C   UNN dAMED       1.862   0.074  -0.715  0.00  0.00     0.148 C 
ATOM      4  N   UNN dAMED       0.889   0.919  -0.256  0.00  0.00    -0.192 NA
ATOM      5  C   UNN dAMED      -0.262   0.559  -0.880  0.00  0.00     0.178 C 
ATOM      6  C   UNN dAMED       3.199   0.007  -0.168  0.00  0.00     0.050 A 
ATOM      7  C   UNN dAMED       3.861  -1.210  -0.048  0.00  0.00     0.006 A 
ATOM      8  C   UNN dAMED       5.142  -1.260   0.489  0.00  0.00     0.021 A 
ATOM      9  C   UNN dAMED       5.713  -0.067   0.900  0.00  0.00     0.099 A 
ATOM     10  N   UNN dAMED       5.107   1.136   0.806  0.00  0.00    -0.242 NA
ATOM     11  C   UNN dAMED       3.867   1.142   0.269  0.00  0.00     0.102 A 
ATOM     12  C   UNN dAMED       0.743   0.731   1.146  0.00  0.00     0.103 C 
ENDROOT
BRANCH   5  13
ATOM     13  S   UNN dAMED      -1.759   1.331  -0.529  0.00  0.00    -0.039 SA
BRANCH  13  14
ATOM     14  C   UNN dAMED      -2.248   0.315   0.775  0.00  0.00     0.115 C 
ATOM     15  N   UNN dAMED      -1.638   0.416   1.990  0.00  0.00    -0.205 NA
ATOM     16  C   UNN dAMED      -2.119  -0.571   2.800  0.00  0.00     0.155 C 
ATOM     17  C   UNN dAMED      -0.240   0.228   1.812  0.00  0.00     0.102 C 
ATOM     18  N   UNN dAMED      -3.165  -1.155   2.251  0.00  0.00    -0.207 NA
ATOM     19  C   UNN dAMED      -3.242  -0.610   0.992  0.00  0.00     0.226 C 
BRANCH  19  20
ATOM     20  N   UNN dAMED      -4.277  -1.064   0.124  0.00  0.00    -0.093 N 
ATOM     21  O   UNN dAMED      -4.431  -0.463  -0.944  0.00  0.00    -0.530 OA
ATOM     22  O   UNN dAMED      -4.955  -2.019   0.522  0.00  0.00    -0.530 OA
ENDBRANCH  19  20
ENDBRANCH  13  14
ENDBRANCH   5  13
TORSDOF 3
