REMARK  1 active torsions:
REMARK  status: ('A' for Active; 'I' for Inactive)
REMARK    1  A    between atoms: C_2  and  AS_12 
ROOT
ATOM      1  C   UNN dAMED      -1.288   0.188  -0.239  0.00  0.00     0.000 A 
ATOM      2  C   UNN dAMED      -0.250  -0.617   0.233  0.00  0.00     0.001 A 
ATOM      3  C   UNN dAMED       2.117  -0.976   0.615  0.00  0.00     0.070 A 
ATOM      4  C   UNN dAMED       3.434  -0.528   0.528  0.00  0.00     0.014 A 
ATOM      5  C   UNN dAMED       1.071  -0.178   0.149  0.00  0.00     0.013 A 
ATOM      6  C   UNN dAMED       3.712   0.720  -0.025  0.00  0.00     0.001 A 
ATOM      7  C   UNN dAMED       1.354   1.086  -0.411  0.00  0.00     0.001 A 
ATOM      8  C   UNN dAMED      -1.007   1.435  -0.789  0.00  0.00     0.000 A 
ATOM      9  C   UNN dAMED       2.675   1.525  -0.494  0.00  0.00     0.000 A 
ATOM     10  C   UNN dAMED       0.309   1.883  -0.877  0.00  0.00     0.000 A 
ATOM     11  N   UNN dAMED       1.837  -2.252   1.179  0.00  0.00    -0.101 NA
ENDROOT
BRANCH   1  12
ATOM     12 AS   UNN dAMED      -3.092  -0.442  -0.066  0.00  0.00     0.000 As
ATOM     13  O   UNN dAMED      -3.171  -1.972  -0.487  0.00  0.00     0.000 OA
ATOM     14  O   UNN dAMED      -4.157   0.498  -1.103  0.00  0.00     0.000 OA
ATOM     15  O   UNN dAMED      -3.610  -0.270   1.607  0.00  0.00     0.000 OA
ENDBRANCH   1  12
TORSDOF 1
