REMARK  3 active torsions:
REMARK  status: ('A' for Active; 'I' for Inactive)
REMARK    1  A    between atoms: C_9  and  N_17 
REMARK    2  A    between atoms: C_11  and  N_17 
REMARK    3  A    between atoms: N_17  and  C_18 
ROOT
ATOM      1 CL   UNN dAMED       3.612   2.871   1.529  0.00  0.00    -0.041 Cl
ATOM      2  N   UNN dAMED       1.316   1.678   1.319  0.00  0.00    -0.199 NA
ATOM      3  N   UNN dAMED       3.106   0.996  -0.193  0.00  0.00    -0.203 NA
ATOM      4  N   UNN dAMED       2.359  -0.722  -1.722  0.00  0.00    -0.138 NA
ATOM      5  N   UNN dAMED       1.325  -1.556  -1.909  0.00  0.00    -0.188 NA
ATOM      6  C   UNN dAMED       2.567   1.720   0.806  0.00  0.00     0.226 A 
ATOM      7  C   UNN dAMED       2.197   0.140  -0.683  0.00  0.00     0.146 A 
ATOM      8  C   UNN dAMED       0.888  -0.027  -0.261  0.00  0.00     0.085 A 
ATOM      9  C   UNN dAMED       0.426   0.789   0.784  0.00  0.00     0.150 A 
ATOM     10  C   UNN dAMED       0.396  -1.072  -1.076  0.00  0.00     0.120 C 
ATOM     11  C   UNN dAMED       3.537  -1.489  -1.507  0.00  0.00     0.123 C 
ENDROOT
BRANCH   9  12
ATOM     12  N   UNN dAMED      -0.885   0.676   1.293  0.00  0.00    -0.313 N 
BRANCH  12  13
ATOM     13  C   UNN dAMED      -1.923   1.572   0.943  0.00  0.00     0.061 A 
ATOM     14  C   UNN dAMED      -3.157   1.455   1.589  0.00  0.00     0.017 A 
ATOM     15  C   UNN dAMED      -4.211   2.309   1.271  0.00  0.00     0.002 A 
ATOM     16  C   UNN dAMED      -4.040   3.292   0.300  0.00  0.00     0.000 A 
ATOM     17  C   UNN dAMED      -2.817   3.419  -0.352  0.00  0.00     0.002 A 
ATOM     18  C   UNN dAMED      -1.767   2.561  -0.033  0.00  0.00     0.017 A 
ENDBRANCH  12  13
BRANCH  12  19
ATOM     19  C   UNN dAMED      -1.149  -0.329   2.311  0.00  0.00     0.108 C 
ATOM     20  C   UNN dAMED      -0.008  -1.213   2.824  0.00  0.00     0.027 C 
ENDBRANCH  12  19
ENDBRANCH   9  12
TORSDOF 3
