REMARK  4 active torsions:
REMARK  status: ('A' for Active; 'I' for Inactive)
REMARK    1  A    between atoms: C_5  and  O_10 
REMARK    2  A    between atoms: O_10  and  C_11 
REMARK    3  A    between atoms: C_11  and  C_12 
REMARK    4  A    between atoms: C_11  and  C_18 
ROOT
ATOM      1  C   UNN dAMED      -0.279  -2.463   1.569  0.00  0.00     0.094 C 
ENDROOT
BRANCH   1   2
ATOM      2  O   UNN dAMED       0.055  -1.236   0.979  0.00  0.00    -0.333 OA
BRANCH   2   3
ATOM      3  C   UNN dAMED      -1.176  -0.619   0.735  0.00  0.00     0.125 C 
ATOM      4  C   UNN dAMED      -1.254   0.898   0.576  0.00  0.00     0.063 C 
ATOM      5  C   UNN dAMED      -2.612   1.407   0.079  0.00  0.00     0.222 C 
ATOM      6  N   UNN dAMED      -3.019   0.853  -1.286  0.00  0.00     0.135 N 
ATOM      7  C   UNN dAMED      -3.740   1.282   1.100  0.00  0.00     0.035 C 
ATOM      8  C   UNN dAMED      -3.423  -0.458  -0.431  0.00  0.00     0.222 C 
ATOM      9  C   UNN dAMED      -3.413  -0.426  -0.452  0.00  0.00     0.285 C 
ATOM     10  C   UNN dAMED      -4.290  -0.066   0.766  0.00  0.00     0.035 C 
ATOM     11  C   UNN dAMED      -2.232  -1.345  -0.083  0.00  0.00     0.063 C 
ENDBRANCH   2   3
ENDBRANCH   1   2
BRANCH   1  12
ATOM     12  C   UNN dAMED      -1.579  -3.151   1.205  0.00  0.00     0.022 A 
ATOM     13  C   UNN dAMED      -1.706  -3.852   0.004  0.00  0.00     0.002 A 
ATOM     14  C   UNN dAMED      -2.867  -4.577  -0.260  0.00  0.00     0.000 A 
ATOM     15  C   UNN dAMED      -3.896  -4.626   0.675  0.00  0.00     0.000 A 
ATOM     16  C   UNN dAMED      -3.779  -3.915   1.869  0.00  0.00     0.000 A 
ATOM     17  C   UNN dAMED      -2.624  -3.181   2.127  0.00  0.00     0.002 A 
ENDBRANCH   1  12
BRANCH   1  18
ATOM     18  C   UNN dAMED       0.656  -3.077   2.590  0.00  0.00     0.022 A 
ATOM     19  C   UNN dAMED       1.555  -4.058   2.178  0.00  0.00     0.002 A 
ATOM     20  C   UNN dAMED       2.383  -4.685   3.107  0.00  0.00     0.000 A 
ATOM     21  C   UNN dAMED       2.319  -4.332   4.451  0.00  0.00     0.000 A 
ATOM     22  C   UNN dAMED       1.420  -3.355   4.869  0.00  0.00     0.000 A 
ATOM     23  C   UNN dAMED       0.591  -2.724   3.939  0.00  0.00     0.002 A 
ENDBRANCH   1  18
TORSDOF 4
