REMARK  3 active torsions:
REMARK  status: ('A' for Active; 'I' for Inactive)
REMARK    1  A    between atoms: O_1  and  C_13 
REMARK    2  A    between atoms: O_1  and  C_14 
REMARK    3  A    between atoms: C_14  and  C_15 
ROOT
ATOM      1  N   UNN dAMED      -1.093  -2.327  -1.343  0.00  0.00    -0.225 NA
ATOM      2  N   UNN dAMED       0.825  -1.178  -0.489  0.00  0.00    -0.203 NA
ATOM      3  C   UNN dAMED      -1.018   0.469   0.990  0.00  0.00     0.003 A 
ATOM      4  C   UNN dAMED      -1.838   1.480   1.490  0.00  0.00     0.000 A 
ATOM      5  C   UNN dAMED      -1.362  -0.241  -0.167  0.00  0.00     0.036 A 
ATOM      6  C   UNN dAMED      -3.028   1.795   0.841  0.00  0.00     0.000 A 
ATOM      7  C   UNN dAMED      -2.560   0.097  -0.807  0.00  0.00     0.003 A 
ATOM      8  C   UNN dAMED      -0.502  -1.300  -0.691  0.00  0.00     0.165 A 
ATOM      9  C   UNN dAMED      -3.390   1.101  -0.308  0.00  0.00     0.000 A 
ATOM     10  C   UNN dAMED      -0.264  -3.284  -1.822  0.00  0.00     0.104 A 
ATOM     11  C   UNN dAMED       1.107  -3.270  -1.676  0.00  0.00     0.065 A 
ATOM     12  C   UNN dAMED       1.584  -2.177  -0.990  0.00  0.00     0.181 A 
ENDROOT
BRANCH  12  13
ATOM     13  O   UNN dAMED       2.930  -2.062  -0.780  0.00  0.00    -0.310 OA
BRANCH  13  14
ATOM     14  C   UNN dAMED       3.046  -0.903  -0.009  0.00  0.00     0.177 C 
BRANCH  14  15
ATOM     15  C   UNN dAMED       2.138  -0.709   1.212  0.00  0.00     0.006 C 
ATOM     16  C   UNN dAMED       2.563  -1.082   2.418  0.00  0.00    -0.002 C 
ENDBRANCH  14  15
ENDBRANCH  13  14
ENDBRANCH  12  13
TORSDOF 3
