REMARK  4 active torsions:
REMARK  status: ('A' for Active; 'I' for Inactive)
REMARK    1  A    between atoms: C_3  and  C_17 
REMARK    2  A    between atoms: C_5  and  C_19 
REMARK    3  A    between atoms: C_9  and  N_16 
REMARK    4  A    between atoms: C_10  and  N_13 
REMARK       I    between atoms: N_16  and  C_17 
ROOT
ATOM      1  N   UNN dAMED       0.394  -1.177   1.664  0.00  0.00    -0.206 NA
ATOM      2  C   UNN dAMED       0.593  -1.092   0.344  0.00  0.00     0.279 C 
ATOM      3  O   UNN dAMED      -0.221  -1.086  -0.578  0.00  0.00    -0.265 OA
ENDROOT
BRANCH   2   4
ATOM      4  C   UNN dAMED       1.998  -0.875  -0.049  0.00  0.00     0.064 A 
ATOM      5  C   UNN dAMED       2.712  -2.024  -0.402  0.00  0.00     0.005 A 
ATOM      6  C   UNN dAMED       4.011  -1.919  -0.889  0.00  0.00     0.000 A 
ATOM      7  C   UNN dAMED       4.592  -0.665  -1.047  0.00  0.00     0.000 A 
ATOM      8  C   UNN dAMED       3.867   0.483  -0.729  0.00  0.00     0.006 A 
ATOM      9  C   UNN dAMED       2.560   0.403  -0.228  0.00  0.00     0.069 A 
BRANCH   9  10
ATOM     10  C   UNN dAMED       1.852   1.687   0.085  0.00  0.00     0.211 C 
ATOM     11  O   UNN dAMED       2.531   2.574   0.692  0.00  0.00    -0.644 OA
ATOM     12  O   UNN dAMED       0.648   1.801  -0.298  0.00  0.00    -0.644 OA
ENDBRANCH   9  10
ENDBRANCH   2   4
BRANCH   1  13
ATOM     13  C   UNN dAMED      -0.593  -2.000   2.118  0.00  0.00     0.106 A 
ATOM     14  C   UNN dAMED      -1.619  -2.521   1.311  0.00  0.00     0.021 A 
ATOM     15  C   UNN dAMED      -2.675  -3.295   1.804  0.00  0.00     0.002 A 
ATOM     16  C   UNN dAMED      -2.755  -3.574   3.162  0.00  0.00     0.002 A 
ATOM     17  C   UNN dAMED      -1.771  -3.089   4.013  0.00  0.00     0.025 A 
ATOM     18  C   UNN dAMED      -0.722  -2.328   3.483  0.00  0.00     0.144 A 
BRANCH  18  19
ATOM     19  N   UNN dAMED       0.223  -1.833   4.456  0.00  0.00    -0.112 N 
ATOM     20  O   UNN dAMED       0.192  -0.621   4.702  0.00  0.00    -0.532 OA
ATOM     21  O   UNN dAMED       0.976  -2.664   4.980  0.00  0.00    -0.532 OA
ENDBRANCH  18  19
ENDBRANCH   1  13
TORSDOF 4
