REMARK  1 active torsions:
REMARK  status: ('A' for Active; 'I' for Inactive)
REMARK       I    between atoms: C_5  and  N_7 
REMARK       I    between atoms: N_7  and  C_8 
REMARK    1  A    between atoms: C_8  and  C_10 
ROOT
ATOM      1  H   UNN dAMED      -3.382   0.951   0.067  0.00  0.00     0.191 HD
ATOM      2  N   UNN dAMED      -2.504   0.482  -0.121  0.00  0.00    -0.241 N 
ATOM      3  N   UNN dAMED      -1.633   0.291   0.881  0.00  0.00     0.022 NA
ATOM      4  N   UNN dAMED      -0.839  -0.542  -1.095  0.00  0.00    -0.036 NA
ATOM      5  C   UNN dAMED      -0.644  -0.353   0.250  0.00  0.00     0.771 A 
ATOM      6  C   UNN dAMED      -2.024  -0.010  -1.300  0.00  0.00     0.212 A 
ATOM      7  N   UNN dAMED       0.510  -0.750   0.879  0.00  0.00    -0.011 NA
ATOM      8  C   UNN dAMED       0.376  -1.903   1.535  0.00  0.00     0.359 C 
ATOM      9  O   UNN dAMED      -0.507  -2.753   1.503  0.00  0.00    -0.258 OA
ENDROOT
BRANCH   8  10
ATOM     10  C   UNN dAMED       1.477  -2.294   2.466  0.00  0.00     0.272 C 
ATOM     11  O   UNN dAMED       1.433  -1.751   3.607  0.00  0.00    -0.640 OA
ATOM     12  O   UNN dAMED       2.301  -3.130   1.997  0.00  0.00    -0.640 OA
ENDBRANCH   8  10
TORSDOF 1
