REMARK  3 active torsions:
REMARK  status: ('A' for Active; 'I' for Inactive)
REMARK    1  A    between atoms: O_4  and  C_8 
REMARK    2  A    between atoms: O_4  and  C_16 
REMARK    3  A    between atoms: C_15  and  N_17 
ROOT
ATOM      1  O   UNN dAMED       0.348   0.792   0.175  0.00  0.00    -0.287 OA
ENDROOT
BRANCH   1   2
ATOM      2  C   UNN dAMED      -0.950   0.425  -0.071  0.00  0.00     0.113 A 
ATOM      3  C   UNN dAMED      -1.372  -0.846   0.322  0.00  0.00     0.038 A 
ATOM      4  C   UNN dAMED      -2.711  -1.208   0.186  0.00  0.00     0.070 A 
ATOM      5 CL   UNN dAMED      -3.154  -2.800   0.675  0.00  0.00    -0.081 Cl
ATOM      6  C   UNN dAMED      -3.632  -0.289  -0.322  0.00  0.00     0.069 A 
ATOM      7 CL   UNN dAMED      -5.305  -0.654  -0.519  0.00  0.00    -0.082 Cl
ATOM      8  C   UNN dAMED      -3.210   0.988  -0.690  0.00  0.00     0.026 A 
ATOM      9  C   UNN dAMED      -1.873   1.350  -0.558  0.00  0.00     0.081 A 
ATOM     10 CL   UNN dAMED      -1.415   2.953  -0.981  0.00  0.00    -0.080 Cl
ENDBRANCH   1   2
BRANCH   1  11
ATOM     11  C   UNN dAMED       1.287   0.483  -0.804  0.00  0.00     0.205 A 
ATOM     12  N   UNN dAMED       0.902  -0.142  -1.942  0.00  0.00    -0.219 NA
ATOM     13  C   UNN dAMED       1.872  -0.415  -2.848  0.00  0.00     0.101 A 
ATOM     14  C   UNN dAMED       3.214  -0.105  -2.681  0.00  0.00     0.022 A 
ATOM     15  C   UNN dAMED       3.591   0.525  -1.504  0.00  0.00     0.029 A 
ATOM     16  C   UNN dAMED       2.613   0.824  -0.563  0.00  0.00     0.168 A 
BRANCH  16  17
ATOM     17  N   UNN dAMED       3.020   1.503   0.644  0.00  0.00    -0.110 N 
ATOM     18  O   UNN dAMED       3.730   2.509   0.512  0.00  0.00    -0.532 OA
ATOM     19  O   UNN dAMED       2.645   1.025   1.723  0.00  0.00    -0.532 OA
ENDBRANCH  16  17
ENDBRANCH   1  11
TORSDOF 3
