REMARK  0 active torsions:
REMARK  status: ('A' for Active; 'I' for Inactive)
ROOT
ATOM      1  O   UNN dAMED       0.260   1.908   0.096  0.00  0.00    -0.307 OA
ATOM      2  C   UNN dAMED      -1.142  -2.973  -0.116  0.00  0.00     0.000 A 
ATOM      3  C   UNN dAMED       0.098  -2.337  -0.138  0.00  0.00     0.000 A 
ATOM      4  C   UNN dAMED      -2.311  -2.222  -0.018  0.00  0.00     0.000 A 
ATOM      5  C   UNN dAMED      -2.246  -0.832   0.058  0.00  0.00     0.002 A 
ATOM      6  C   UNN dAMED       0.189  -0.943  -0.063  0.00  0.00     0.004 A 
ATOM      7  C   UNN dAMED      -3.410  -0.068   0.156  0.00  0.00     0.000 A 
ATOM      8  C   UNN dAMED      -0.989  -0.190   0.036  0.00  0.00     0.023 A 
ATOM      9  C   UNN dAMED       1.455  -0.219  -0.081  0.00  0.00     0.023 A 
ATOM     10  C   UNN dAMED       2.694  -0.859  -0.175  0.00  0.00     0.002 A 
ATOM     11  C   UNN dAMED       3.878  -0.124  -0.189  0.00  0.00     0.000 A 
ATOM     12  C   UNN dAMED      -3.335   1.322   0.232  0.00  0.00     0.002 A 
ATOM     13  C   UNN dAMED      -0.929   1.207   0.112  0.00  0.00     0.100 A 
ATOM     14  C   UNN dAMED       1.432   1.183   0.000  0.00  0.00     0.100 A 
ATOM     15  C   UNN dAMED       3.838   1.265  -0.108  0.00  0.00     0.002 A 
ATOM     16  C   UNN dAMED      -2.097   1.960   0.210  0.00  0.00     0.025 A 
ATOM     17  C   UNN dAMED       2.614   1.922  -0.013  0.00  0.00     0.025 A 
ENDROOT
TORSDOF 0
