REMARK  1 active torsions:
REMARK  status: ('A' for Active; 'I' for Inactive)
REMARK    1  A    between atoms: C_9  and  C_12 
ROOT
ATOM      1  N   UNN dAMED      -2.527   1.052   0.095  0.00  0.00    -0.197 NA
ATOM      2  S   UNN dAMED      -3.596  -1.395  -0.087  0.00  0.00    -0.037 SA
ATOM      3  N   UNN dAMED      -0.177   1.484   0.111  0.00  0.00    -0.321 N 
ATOM      4  H   UNN dAMED       0.591   2.148   0.160  0.00  0.00     0.169 HD
ATOM      5  N   UNN dAMED      -0.948  -0.699  -0.050  0.00  0.00    -0.187 N 
ATOM      6  N   UNN dAMED      -0.542  -1.988  -0.149  0.00  0.00    -0.160 NA
ATOM      7  C   UNN dAMED      -2.301  -0.311  -0.011  0.00  0.00     0.225 A 
ATOM      8  C   UNN dAMED       0.796  -1.902  -0.144  0.00  0.00     0.130 A 
ATOM      9  C   UNN dAMED       1.248  -0.573  -0.050  0.00  0.00     0.119 A 
ATOM     10  C   UNN dAMED       0.107   0.175   0.008  0.00  0.00     0.153 A 
ATOM     11  C   UNN dAMED      -1.582   1.886   0.153  0.00  0.00     0.179 A 
ENDROOT
BRANCH   9  12
ATOM     12  C   UNN dAMED       2.623  -0.089  -0.015  0.00  0.00     0.215 C 
ATOM     13  O   UNN dAMED       3.392  -0.508  -0.932  0.00  0.00    -0.644 OA
ATOM     14  O   UNN dAMED       2.917   0.716   0.920  0.00  0.00    -0.644 OA
ENDBRANCH   9  12
TORSDOF 1
