REMARK  5 active torsions:
REMARK  status: ('A' for Active; 'I' for Inactive)
REMARK    1  A    between atoms: C_3  and  N_7 
REMARK    2  A    between atoms: C_4  and  C_11 
REMARK    3  A    between atoms: N_7  and  C_8 
REMARK    4  A    between atoms: C_8  and  C_9 
REMARK    5  A    between atoms: C_11  and  O_13 
ROOT
ATOM      1  C   UNN dAMED       0.168  -2.617  -0.108  0.00  0.00     0.019 A 
ATOM      2  C   UNN dAMED       1.467  -3.126  -0.062  0.00  0.00     0.002 A 
ATOM      3  C   UNN dAMED      -0.087  -1.241  -0.077  0.00  0.00     0.081 A 
ATOM      4  C   UNN dAMED       1.030  -0.392   0.009  0.00  0.00     0.080 A 
ATOM      5  C   UNN dAMED       2.551  -2.262   0.035  0.00  0.00     0.000 A 
ATOM      6  C   UNN dAMED       2.335  -0.890   0.069  0.00  0.00     0.007 A 
ENDROOT
BRANCH   3   7
ATOM      7  N   UNN dAMED      -1.358  -0.802  -0.136  0.00  0.00    -0.268 NA
BRANCH   7   8
ATOM      8  C   UNN dAMED      -2.215  -0.868   1.043  0.00  0.00     0.161 C 
BRANCH   8   9
ATOM      9  C   UNN dAMED      -1.757  -1.595   2.318  0.00  0.00     0.208 C 
ATOM     10  O   UNN dAMED      -1.013  -0.943   3.265  0.00  0.00    -0.218 OA
ENDBRANCH   8   9
ENDBRANCH   7   8
ENDBRANCH   3   7
BRANCH   4  11
ATOM     11  C   UNN dAMED       0.923   1.067  -0.067  0.00  0.00     0.297 C 
ATOM     12  O   UNN dAMED       1.211   1.720  -1.053  0.00  0.00    -0.259 OA
BRANCH  11  13
ATOM     13  O   UNN dAMED       0.564   1.549   1.140  0.00  0.00    -0.296 OA
ATOM     14  C   UNN dAMED       1.103   2.837   1.188  0.00  0.00     0.185 C 
ENDBRANCH  11  13
ENDBRANCH   4  11
TORSDOF 5
