REMARK  2 active torsions:
REMARK  status: ('A' for Active; 'I' for Inactive)
REMARK    1  A    between atoms: N_1  and  N_17 
REMARK    2  A    between atoms: C_4  and  C_18 
ROOT
ATOM      1  N   UNN dAMED      -1.209  -2.369  -0.143  0.00  0.00    -0.242 NA
ATOM      2  C   UNN dAMED      -0.397  -0.110   0.077  0.00  0.00     0.021 A 
ATOM      3  C   UNN dAMED      -1.422  -1.035  -0.088  0.00  0.00     0.102 A 
ATOM      4  C   UNN dAMED       0.918  -0.562   0.212  0.00  0.00     0.003 A 
ATOM      5  C   UNN dAMED       1.149  -1.937   0.166  0.00  0.00     0.021 A 
ATOM      6  C   UNN dAMED       2.016   0.375   0.434  0.00  0.00     0.001 A 
ATOM      7  C   UNN dAMED       1.957   1.306   1.478  0.00  0.00     0.000 A 
ATOM      8  C   UNN dAMED       3.006   2.195   1.711  0.00  0.00     0.001 A 
ATOM      9  C   UNN dAMED       3.164   0.350  -0.367  0.00  0.00     0.014 A 
ATOM     10  C   UNN dAMED       4.142   2.150   0.910  0.00  0.00     0.014 A 
ATOM     11  C   UNN dAMED       0.069  -2.786  -0.017  0.00  0.00     0.099 A 
ATOM     12  C   UNN dAMED       4.223   1.225  -0.126  0.00  0.00     0.070 A 
ATOM     13  N   UNN dAMED       5.417   1.126  -0.894  0.00  0.00    -0.101 NA
ENDROOT
BRANCH   3  14
ATOM     14  C   UNN dAMED      -2.834  -0.510  -0.203  0.00  0.00     0.141 C 
ATOM     15  N   UNN dAMED      -3.752  -0.960   0.525  0.00  0.00    -0.143 NA
BRANCH  15  16
ATOM     16  N   UNN dAMED      -4.890  -0.278   0.680  0.00  0.00    -0.122 NA
ATOM     17  C   UNN dAMED      -5.352   0.075  -0.511  0.00  0.00     0.228 C 
ATOM     18  N   UNN dAMED      -4.538  -0.176  -1.654  0.00  0.00    -0.066 NA
ATOM     19  S   UNN dAMED      -6.830   0.823  -0.752  0.00  0.00    -0.041 SA
ENDBRANCH  15  16
ENDBRANCH   3  14
TORSDOF 2
