REMARK  2 active torsions:
REMARK  status: ('A' for Active; 'I' for Inactive)
REMARK    1  A    between atoms: C_4  and  C_8 
REMARK    2  A    between atoms: C_9  and  C_12 
ROOT
ATOM      1  C   UNN dAMED      -1.155  -0.785  -0.151  0.00  0.00     0.015 C 
ATOM      2  C   UNN dAMED      -2.105  -0.824   0.794  0.00  0.00     0.121 C 
ATOM      3  C   UNN dAMED      -1.887  -0.386   2.126  0.00  0.00     0.105 C 
ATOM      4  N   UNN dAMED      -1.709  -0.030   3.216  0.00  0.00    -0.191 NA
ENDROOT
BRANCH   2   5
ATOM      5  C   UNN dAMED      -3.411  -1.412   0.448  0.00  0.00     0.276 C 
ATOM      6  O   UNN dAMED      -3.710  -1.665  -0.712  0.00  0.00    -0.270 OA
ATOM      7  N   UNN dAMED      -4.315  -1.757   1.492  0.00  0.00    -0.057 NA
ENDBRANCH   2   5
BRANCH   1   8
ATOM      8  C   UNN dAMED       0.286  -0.358   0.045  0.00  0.00     0.007 A 
ATOM      9  C   UNN dAMED       1.201  -1.229   0.604  0.00  0.00     0.046 A 
ATOM     10  C   UNN dAMED       2.596  -1.044   0.564  0.00  0.00     0.237 A 
ATOM     11  C   UNN dAMED       3.095   0.133  -0.138  0.00  0.00     0.273 A 
ATOM     12  O   UNN dAMED       3.348  -1.915   1.129  0.00  0.00    -0.283 OA
ATOM     13  C   UNN dAMED       2.142   1.057  -0.743  0.00  0.00     0.237 A 
ATOM     14  O   UNN dAMED       4.364   0.350  -0.229  0.00  0.00    -0.280 OA
ATOM     15  C   UNN dAMED       0.773   0.752  -0.617  0.00  0.00     0.046 A 
ATOM     16  O   UNN dAMED       2.480   2.114  -1.386  0.00  0.00    -0.283 OA
ENDBRANCH   1   8
TORSDOF 2
