REMARK  7 active torsions:
REMARK  status: ('A' for Active; 'I' for Inactive)
REMARK    1  A    between atoms: N_1  and  C_2 
REMARK    2  A    between atoms: N_1  and  C_4 
REMARK    3  A    between atoms: N_1  and  C_6 
REMARK    4  A    between atoms: C_6  and  C_7 
REMARK    5  A    between atoms: C_7  and  O_8 
REMARK    6  A    between atoms: O_8  and  C_9 
REMARK    7  A    between atoms: C_9  and  C_10 
ROOT
ATOM      1  C   UNN dAMED      -1.551   0.522   0.874  0.00  0.00     0.282 C 
ENDROOT
BRANCH   1   2
ATOM      2  N   UNN dAMED      -2.079  -0.953   0.603  0.00  0.00     0.140 N 
BRANCH   2   3
ATOM      3  C   UNN dAMED      -1.106   0.169  -0.088  0.00  0.00     0.250 C 
ATOM      4  C   UNN dAMED      -1.045   0.270  -1.619  0.00  0.00     0.037 C 
ENDBRANCH   2   3
BRANCH   2   5
ATOM      5  C   UNN dAMED      -1.107   0.167  -0.087  0.00  0.00     0.250 C 
ATOM      6  C   UNN dAMED      -0.178   0.984   0.823  0.00  0.00     0.037 C 
ENDBRANCH   2   5
ENDBRANCH   1   2
BRANCH   1   7
ATOM      7  C   UNN dAMED      -1.587   1.541  -0.287  0.00  0.00     0.178 C 
BRANCH   7   8
ATOM      8  O   UNN dAMED      -0.851   1.321  -1.484  0.00  0.00    -0.347 OA
BRANCH   8   9
ATOM      9  C   UNN dAMED      -2.131   0.696  -1.430  0.00  0.00     0.169 C 
BRANCH   9  10
ATOM     10  C   UNN dAMED      -3.316   1.384  -0.733  0.00  0.00     0.006 C 
ATOM     11  C   UNN dAMED      -4.560   0.947  -0.927  0.00  0.00    -0.002 C 
ENDBRANCH   9  10
ENDBRANCH   8   9
ENDBRANCH   7   8
ENDBRANCH   1   7
TORSDOF 7
