REMARK  2 active torsions:
REMARK  status: ('A' for Active; 'I' for Inactive)
REMARK    1  A    between atoms: C_11  and  O_23 
REMARK    2  A    between atoms: C_18  and  O_23 
ROOT
ATOM      1  C   UNN dAMED      -3.220   0.480  -1.801  0.00  0.00     0.238 A 
ATOM      2  C   UNN dAMED      -2.084   0.104  -1.055  0.00  0.00     0.048 A 
ATOM      3  C   UNN dAMED      -0.412  -3.752   3.220  0.00  0.00     0.067 A 
ATOM      4  C   UNN dAMED      -4.388  -0.387  -1.723  0.00  0.00     0.273 A 
ATOM      5  C   UNN dAMED      -1.982  -1.037  -0.281  0.00  0.00     0.031 A 
ATOM      6  C   UNN dAMED      -0.780  -1.405   0.495  0.00  0.00     0.126 A 
ATOM      7  C   UNN dAMED      -0.037  -2.810   2.262  0.00  0.00     0.110 A 
ATOM      8  C   UNN dAMED       0.494  -4.338   4.100  0.00  0.00     0.201 A 
ATOM      9  C   UNN dAMED      -4.320  -1.591  -0.908  0.00  0.00     0.238 A 
ATOM     10  C   UNN dAMED      -3.106  -1.847  -0.243  0.00  0.00     0.048 A 
ATOM     11  C   UNN dAMED       0.450  -0.904   0.286  0.00  0.00     0.164 A 
ATOM     12  C   UNN dAMED       1.294  -2.407   2.145  0.00  0.00     0.103 A 
ATOM     13  C   UNN dAMED       1.816  -3.894   3.921  0.00  0.00     0.084 A 
ATOM     14  C   UNN dAMED       1.590  -1.388   1.102  0.00  0.00     0.225 A 
ATOM     15  C   UNN dAMED       2.299  -2.949   2.985  0.00  0.00     0.204 A 
ATOM     16  O   UNN dAMED       2.718  -0.954   0.904  0.00  0.00    -0.284 OA
ATOM     17  O   UNN dAMED      -1.055  -2.344   1.477  0.00  0.00    -0.305 OA
ATOM     18  O   UNN dAMED       0.160  -5.192   4.982  0.00  0.00    -0.286 OA
ATOM     19  O   UNN dAMED       3.542  -2.661   2.958  0.00  0.00    -0.286 OA
ATOM     20  O   UNN dAMED      -3.168   1.552  -2.501  0.00  0.00    -0.283 OA
ATOM     21  O   UNN dAMED      -5.288  -2.418  -0.763  0.00  0.00    -0.283 OA
ATOM     22  O   UNN dAMED      -5.467  -0.093  -2.366  0.00  0.00    -0.280 OA
ENDROOT
BRANCH  11  23
ATOM     23  O   UNN dAMED       0.738   0.070  -0.642  0.00  0.00    -0.278 OA
BRANCH  23  24
ATOM     24  C   UNN dAMED       1.396   1.079   0.077  0.00  0.00     0.232 C 
ATOM     25  O   UNN dAMED       2.461   1.769  -0.503  0.00  0.00    -0.286 OA
ATOM     26  C   UNN dAMED       3.325   2.587   0.229  0.00  0.00     0.108 C 
ATOM     27  C   UNN dAMED       3.036   2.887   1.709  0.00  0.00     0.177 C 
ATOM     28  C   UNN dAMED       4.459   3.327  -0.487  0.00  0.00     0.061 C 
ATOM     29  C   UNN dAMED       1.921   2.069   2.373  0.00  0.00     0.187 C 
ATOM     30  O   UNN dAMED       3.399   4.104   2.224  0.00  0.00    -0.186 OA
ATOM     31  C   UNN dAMED       0.832   1.610   1.405  0.00  0.00     0.205 C 
ATOM     32  O   UNN dAMED       2.183   1.332   3.501  0.00  0.00    -0.186 OA
ATOM     33  O   UNN dAMED      -0.352   2.304   1.394  0.00  0.00    -0.184 OA
ENDBRANCH  23  24
ENDBRANCH  11  23
TORSDOF 2
