REMARK  0 active torsions:
REMARK  status: ('A' for Active; 'I' for Inactive)
ROOT
ATOM      1  O   UNN dAMED       2.425  -2.283  -0.494  0.00  0.00    -0.267 OA
ATOM      2  H   UNN dAMED       3.580  -0.003  -0.230  0.00  0.00     0.173 HD
ATOM      3  N   UNN dAMED       2.567   0.002  -0.164  0.00  0.00    -0.275 N 
ATOM      4  O   UNN dAMED       2.556   2.272   0.172  0.00  0.00    -0.247 OA
ATOM      5  N   UNN dAMED       0.542   1.176   0.140  0.00  0.00    -0.304 N 
ATOM      6  H   UNN dAMED       0.048   2.050   0.301  0.00  0.00     0.171 HD
ATOM      7  N   UNN dAMED      -2.454   1.096   0.275  0.00  0.00    -0.141 NA
ATOM      8  N   UNN dAMED      -2.320  -1.057   0.043  0.00  0.00    -0.267 N 
ATOM      9  H   UNN dAMED      -2.009  -2.014  -0.078  0.00  0.00     0.185 HD
ATOM     10  N   UNN dAMED      -3.705   0.524   0.298  0.00  0.00     0.018 NA
ATOM     11  N   UNN dAMED      -3.630  -0.793   0.156  0.00  0.00    -0.005 NA
ATOM     12  C   UNN dAMED      -1.602   0.103   0.117  0.00  0.00     0.185 A 
ATOM     13  C   UNN dAMED      -0.205   0.033   0.017  0.00  0.00     0.102 A 
ATOM     14  C   UNN dAMED       0.394  -1.140  -0.194  0.00  0.00     0.081 A 
ATOM     15  C   UNN dAMED       1.893  -1.197  -0.298  0.00  0.00     0.263 A 
ATOM     16  C   UNN dAMED       1.927   1.217   0.057  0.00  0.00     0.327 A 
ENDROOT
TORSDOF 0
