REMARK  3 active torsions:
REMARK  status: ('A' for Active; 'I' for Inactive)
REMARK    1  A    between atoms: N_1  and  C_15 
REMARK    2  A    between atoms: N_2  and  C_21 
REMARK       I    between atoms: N_6  and  C_20 
REMARK    3  A    between atoms: N_7  and  C_10 
ROOT
ATOM      1  H   UNN dAMED       0.206  -0.644  -1.380  0.00  0.00     0.186 HD
ATOM      2  N   UNN dAMED       0.157  -0.071  -0.549  0.00  0.00    -0.166 N 
ATOM      3  N   UNN dAMED       0.831   1.141   1.175  0.00  0.00    -0.061 NA
ATOM      4  N   UNN dAMED       2.475   0.214  -0.380  0.00  0.00     0.044 NA
ATOM      5  N   UNN dAMED       3.416   0.635   0.325  0.00  0.00    -0.132 NA
ATOM      6  C   UNN dAMED       1.240   0.452   0.123  0.00  0.00     0.747 A 
ATOM      7  C   UNN dAMED      -0.997   0.317   0.087  0.00  0.00     0.191 A 
ATOM      8  C   UNN dAMED      -0.532   1.059   1.145  0.00  0.00     0.114 A 
ATOM      9  C   UNN dAMED      -1.423   1.795   2.100  0.00  0.00     0.056 C 
ENDROOT
BRANCH   7  10
ATOM     10  N   UNN dAMED      -2.241   0.011  -0.350  0.00  0.00    -0.129 NA
ATOM     11  N   UNN dAMED      -2.333  -1.066  -0.976  0.00  0.00    -0.147 NA
BRANCH  11  12
ATOM     12  C   UNN dAMED      -3.670  -1.315  -1.314  0.00  0.00     0.103 A 
ATOM     13  C   UNN dAMED      -4.374  -2.315  -0.639  0.00  0.00     0.021 A 
ATOM     14  C   UNN dAMED      -5.682  -2.625  -1.001  0.00  0.00     0.002 A 
ATOM     15  C   UNN dAMED      -6.293  -1.941  -2.048  0.00  0.00     0.000 A 
ATOM     16  C   UNN dAMED      -5.595  -0.952  -2.737  0.00  0.00     0.002 A 
ATOM     17  C   UNN dAMED      -4.283  -0.649  -2.379  0.00  0.00     0.021 A 
ENDBRANCH  11  12
ENDBRANCH   7  10
BRANCH   5  18
ATOM     18  C   UNN dAMED       4.645   0.308  -0.273  0.00  0.00     0.103 A 
ATOM     19  C   UNN dAMED       5.547   1.321  -0.607  0.00  0.00     0.021 A 
ATOM     20  C   UNN dAMED       6.799   1.005  -1.132  0.00  0.00     0.002 A 
ATOM     21  C   UNN dAMED       7.160  -0.326  -1.326  0.00  0.00     0.000 A 
ATOM     22  C   UNN dAMED       6.272  -1.343  -0.989  0.00  0.00     0.002 A 
ATOM     23  C   UNN dAMED       5.028  -1.026  -0.451  0.00  0.00     0.021 A 
ENDBRANCH   5  18
TORSDOF 3
