REMARK  3 active torsions:
REMARK  status: ('A' for Active; 'I' for Inactive)
REMARK    1  A    between atoms: C_7  and  C_23 
REMARK    2  A    between atoms: C_13  and  N_20 
REMARK    3  A    between atoms: C_17  and  O_18 
ROOT
ATOM      1  O   UNN dAMED      -0.104  -3.299   0.472  0.00  0.00    -0.300 OA
ATOM      2  O   UNN dAMED       2.156  -3.721   0.393  0.00  0.00    -0.300 OA
ATOM      3  C   UNN dAMED       0.899  -4.214   0.539  0.00  0.00     0.304 A 
ATOM      4  C   UNN dAMED       1.930  -2.387   0.217  0.00  0.00     0.119 A 
ATOM      5  C   UNN dAMED       0.563  -2.120   0.264  0.00  0.00     0.119 A 
ATOM      6  C   UNN dAMED       2.897  -1.423   0.023  0.00  0.00     0.032 A 
ATOM      7  C   UNN dAMED       2.395  -0.111  -0.130  0.00  0.00     0.068 A 
ATOM      8  C   UNN dAMED       0.016  -0.839   0.118  0.00  0.00     0.026 A 
ATOM      9  C   UNN dAMED       0.972   0.215  -0.087  0.00  0.00     0.030 A 
ATOM     10  C   UNN dAMED      -1.399  -0.632   0.177  0.00  0.00     0.004 A 
ATOM     11  C   UNN dAMED      -2.348  -1.657   0.382  0.00  0.00     0.000 A 
ATOM     12  C   UNN dAMED      -3.719  -1.416   0.434  0.00  0.00     0.002 A 
ATOM     13  C   UNN dAMED       0.370   1.494  -0.227  0.00  0.00     0.127 A 
ATOM     14  C   UNN dAMED      -1.899   0.677   0.022  0.00  0.00     0.024 A 
ATOM     15  C   UNN dAMED      -4.191  -0.123   0.276  0.00  0.00     0.024 A 
ATOM     16  C   UNN dAMED      -1.006   1.726  -0.177  0.00  0.00     0.025 A 
ATOM     17  C   UNN dAMED      -3.282   0.908   0.073  0.00  0.00     0.094 A 
ENDROOT
BRANCH   7  18
ATOM     18  C   UNN dAMED       3.455   0.919  -0.344  0.00  0.00     0.211 C 
ATOM     19  O   UNN dAMED       3.942   1.452   0.699  0.00  0.00    -0.644 OA
ATOM     20  O   UNN dAMED       3.799   1.132  -1.547  0.00  0.00    -0.644 OA
ENDBRANCH   7  18
BRANCH  13  21
ATOM     21  N   UNN dAMED       1.143   2.692  -0.424  0.00  0.00    -0.114 N 
ATOM     22  O   UNN dAMED       1.356   3.036  -1.593  0.00  0.00    -0.532 OA
ATOM     23  O   UNN dAMED       1.486   3.309   0.593  0.00  0.00    -0.532 OA
ENDBRANCH  13  21
BRANCH  17  24
ATOM     24  O   UNN dAMED      -3.785   2.170  -0.077  0.00  0.00    -0.328 OA
ATOM     25  C   UNN dAMED      -2.672   3.013  -0.035  0.00  0.00     0.181 C 
ENDBRANCH  17  24
TORSDOF 3
