REMARK  0 active torsions:
REMARK  status: ('A' for Active; 'I' for Inactive)
ROOT
ATOM      1  N   UNN dAMED       1.258   1.266  -0.691  0.00  0.00    -0.225 NA
ATOM      2  N   UNN dAMED      -0.025  -0.587   0.294  0.00  0.00    -0.212 N 
ATOM      3  N   UNN dAMED       0.233  -1.785   0.884  0.00  0.00    -0.162 NA
ATOM      4  C   UNN dAMED      -3.999   0.693  -0.144  0.00  0.00     0.000 A 
ATOM      5  C   UNN dAMED      -3.136   0.718  -1.239  0.00  0.00     0.002 A 
ATOM      6  C   UNN dAMED      -3.541   0.242   1.093  0.00  0.00     0.002 A 
ATOM      7  C   UNN dAMED      -2.219  -0.181   1.239  0.00  0.00     0.019 A 
ATOM      8  C   UNN dAMED      -1.813   0.291  -1.102  0.00  0.00     0.019 A 
ATOM      9  C   UNN dAMED      -1.358  -0.151   0.140  0.00  0.00     0.085 A 
ATOM     10  C   UNN dAMED       1.140   0.066  -0.082  0.00  0.00     0.165 A 
ATOM     11  C   UNN dAMED       2.188  -0.766   0.289  0.00  0.00     0.057 A 
ATOM     12  C   UNN dAMED       1.565  -1.880   0.876  0.00  0.00     0.124 A 
ATOM     13  C   UNN dAMED       3.501  -0.355   0.024  0.00  0.00     0.006 A 
ATOM     14  C   UNN dAMED       3.674   0.876  -0.603  0.00  0.00     0.021 A 
ATOM     15  C   UNN dAMED       2.547   1.617  -0.925  0.00  0.00     0.101 A 
ENDROOT
TORSDOF 0
