REMARK  2 active torsions:
REMARK  status: ('A' for Active; 'I' for Inactive)
REMARK    1  A    between atoms: C_7  and  C_15 
REMARK    2  A    between atoms: C_9  and  N_11 
ROOT
ATOM      1  O   UNN dAMED       3.862  -3.907   1.840  0.00  0.00    -0.281 OA
ATOM      2  O   UNN dAMED       5.152  -2.216   0.518  0.00  0.00    -0.281 OA
ATOM      3  P   UNN dAMED       4.024  -2.298   1.683  0.00  0.00     0.413 P 
ATOM      4  O   UNN dAMED       4.489  -1.653   2.961  0.00  0.00    -0.239 OA
ATOM      5  N   UNN dAMED       2.615  -1.746   1.021  0.00  0.00    -0.187 NA
ATOM      6  C   UNN dAMED       1.344  -2.071   1.638  0.00  0.00     0.099 A 
ATOM      7  C   UNN dAMED       1.907  -0.648   1.651  0.00  0.00     0.084 A 
ATOM      8  C   UNN dAMED       3.391  -4.369   0.604  0.00  0.00     0.182 C 
ATOM      9  C   UNN dAMED       4.267  -4.314  -0.671  0.00  0.00     0.182 C 
ATOM     10  C   UNN dAMED       4.578  -2.807  -0.615  0.00  0.00     0.182 C 
ATOM     11  C   UNN dAMED       3.468  -4.875  -1.842  0.00  0.00     0.034 C 
ENDROOT
BRANCH   7  12
ATOM     12  C   UNN dAMED       2.455  -0.049   2.950  0.00  0.00     0.018 C 
ATOM     13  C   UNN dAMED       3.963   0.174   3.111  0.00  0.00     0.002 C 
ENDBRANCH   7  12
BRANCH   9  14
ATOM     14  N   UNN dAMED       5.506  -5.114  -0.493  0.00  0.00    -0.137 N 
ATOM     15  O   UNN dAMED       5.416  -6.126   0.208  0.00  0.00    -0.536 OA
ATOM     16  O   UNN dAMED       6.518  -4.702  -1.068  0.00  0.00    -0.536 OA
ENDBRANCH   9  14
TORSDOF 2
