REMARK  11 active torsions:
REMARK  status: ('A' for Active; 'I' for Inactive)
REMARK    1  A    between atoms: C_1  and  N_2 
REMARK    2  A    between atoms: C_1  and  C_19 
REMARK    3  A    between atoms: O_4  and  C_7 
REMARK    4  A    between atoms: O_4  and  N_20 
REMARK    5  A    between atoms: C_5  and  C_19 
REMARK       I    between atoms: C_5  and  N_21 
REMARK    6  A    between atoms: C_7  and  C_22 
REMARK    7  A    between atoms: O_9  and  C_10 
REMARK    8  A    between atoms: O_9  and  N_21 
REMARK    9  A    between atoms: C_10  and  C_28 
REMARK   10  A    between atoms: C_12  and  C_18 
REMARK   11  A    between atoms: C_18  and  C_19 
ROOT
ATOM      1  C   UNN dAMED      -0.239  -1.274  -0.141  0.00  0.00     0.097 C 
ENDROOT
BRANCH   1   2
ATOM      2  C   UNN dAMED      -1.437  -0.353  -0.170  0.00  0.00     0.186 C 
ATOM      3  N   UNN dAMED      -1.983   0.082   0.961  0.00  0.00    -0.104 NA
BRANCH   2   4
ATOM      4  N   UNN dAMED      -2.137  -0.355  -1.258  0.00  0.00    -0.280 NA
ATOM      5  H   UNN dAMED      -1.586  -0.821  -1.988  0.00  0.00     0.188 HD
ENDBRANCH   2   4
BRANCH   3   6
ATOM      6  O   UNN dAMED      -1.579   1.429   1.218  0.00  0.00    -0.168 OA
BRANCH   6   7
ATOM      7  C   UNN dAMED      -2.662   2.224   1.429  0.00  0.00     0.319 C 
ATOM      8  O   UNN dAMED      -3.402   2.237   2.398  0.00  0.00    -0.257 OA
BRANCH   7   9
ATOM      9  C   UNN dAMED      -2.769   3.169   0.317  0.00  0.00     0.065 A 
ATOM     10  C   UNN dAMED      -3.211   2.699  -0.917  0.00  0.00     0.005 A 
ATOM     11  C   UNN dAMED      -3.306   3.578  -1.990  0.00  0.00     0.000 A 
ATOM     12  C   UNN dAMED      -2.988   4.923  -1.812  0.00  0.00     0.000 A 
ATOM     13  C   UNN dAMED      -2.578   5.391  -0.563  0.00  0.00     0.000 A 
ATOM     14  C   UNN dAMED      -2.460   4.512   0.512  0.00  0.00     0.005 A 
ENDBRANCH   7   9
ENDBRANCH   6   7
ENDBRANCH   3   6
ENDBRANCH   1   2
BRANCH   1  15
ATOM     15  C   UNN dAMED       1.143  -0.723  -0.416  0.00  0.00     0.305 C 
ATOM     16  O   UNN dAMED       1.717  -0.163   0.510  0.00  0.00    -0.263 OA
ATOM     17  N   UNN dAMED       1.641  -0.922  -1.634  0.00  0.00    -0.080 NA
BRANCH  17  18
ATOM     18  O   UNN dAMED       1.056  -2.092  -2.213  0.00  0.00    -0.166 OA
BRANCH  18  19
ATOM     19  C   UNN dAMED       1.655  -2.399  -3.396  0.00  0.00     0.319 C 
ATOM     20  O   UNN dAMED       2.777  -2.109  -3.778  0.00  0.00    -0.257 OA
BRANCH  19  21
ATOM     21  C   UNN dAMED       0.734  -3.190  -4.212  0.00  0.00     0.065 A 
ATOM     22  C   UNN dAMED      -0.286  -2.534  -4.896  0.00  0.00     0.005 A 
ATOM     23  C   UNN dAMED      -1.064  -3.247  -5.804  0.00  0.00     0.000 A 
ATOM     24  C   UNN dAMED      -0.804  -4.596  -6.043  0.00  0.00     0.000 A 
ATOM     25  C   UNN dAMED       0.237  -5.237  -5.372  0.00  0.00     0.000 A 
ATOM     26  C   UNN dAMED       1.018  -4.533  -4.457  0.00  0.00     0.005 A 
ENDBRANCH  19  21
ENDBRANCH  18  19
ENDBRANCH  17  18
ENDBRANCH   1  15
BRANCH   1  27
ATOM     27  C   UNN dAMED      -0.498  -2.698  -0.635  0.00  0.00     0.008 C 
BRANCH  27  28
ATOM     28  C   UNN dAMED      -0.589  -3.869   0.296  0.00  0.00     0.000 A 
ATOM     29  C   UNN dAMED       0.033  -5.062  -0.064  0.00  0.00     0.000 A 
ATOM     30  C   UNN dAMED      -0.105  -6.189   0.740  0.00  0.00     0.000 A 
ATOM     31  C   UNN dAMED      -0.871  -6.123   1.901  0.00  0.00     0.000 A 
ATOM     32  C   UNN dAMED      -1.512  -4.935   2.247  0.00  0.00     0.000 A 
ATOM     33  C   UNN dAMED      -1.373  -3.805   1.444  0.00  0.00     0.000 A 
ENDBRANCH  27  28
ENDBRANCH   1  27
TORSDOF 11
