REMARK  3 active torsions:
REMARK  status: ('A' for Active; 'I' for Inactive)
REMARK    1  A    between atoms: C_2  and  C_10 
REMARK    2  A    between atoms: C_5  and  C_7 
REMARK       I    between atoms: C_10  and  N_12 
REMARK    3  A    between atoms: N_12  and  C_13 
ROOT
ATOM      1  C   UNN dAMED       0.380   0.423  -0.429  0.00  0.00     0.005 A 
ATOM      2  C   UNN dAMED       0.704  -0.791   0.180  0.00  0.00     0.058 A 
ATOM      3  C   UNN dAMED      -0.960   0.795  -0.552  0.00  0.00    -0.001 A 
ATOM      4  C   UNN dAMED      -0.306  -1.618   0.674  0.00  0.00     0.005 A 
ATOM      5  C   UNN dAMED      -1.968  -0.045  -0.078  0.00  0.00    -0.008 A 
ATOM      6  C   UNN dAMED      -1.641  -1.252   0.533  0.00  0.00    -0.001 A 
ENDROOT
BRANCH   2   7
ATOM      7  C   UNN dAMED       2.123  -1.186   0.331  0.00  0.00     0.279 C 
ATOM      8  O   UNN dAMED       2.964  -0.322   0.554  0.00  0.00    -0.265 OA
ATOM      9  N   UNN dAMED       2.353  -2.492   0.214  0.00  0.00    -0.217 NA
BRANCH   9  10
ATOM     10  C   UNN dAMED       1.250  -3.438   0.307  0.00  0.00     0.041 C 
ATOM     11  C   UNN dAMED       0.030  -3.244  -0.599  0.00  0.00     0.047 C 
ATOM     12  C   UNN dAMED       1.503  -4.826   0.909  0.00  0.00     0.047 C 
ENDBRANCH   9  10
ENDBRANCH   2   7
BRANCH   5  13
ATOM     13  C   UNN dAMED      -3.410   0.373  -0.155  0.00  0.00    -0.044 C 
ATOM     14  C   UNN dAMED      -4.313   0.212   1.074  0.00  0.00     0.026 C 
ATOM     15  C   UNN dAMED      -3.908   1.174  -1.361  0.00  0.00     0.026 C 
ENDBRANCH   5  13
TORSDOF 3
