REMARK  2 active torsions:
REMARK  status: ('A' for Active; 'I' for Inactive)
REMARK    1  A    between atoms: C_4  and  N_18 
REMARK    2  A    between atoms: C_10  and  N_15 
REMARK       I    between atoms: N_15  and  C_16 
REMARK       I    between atoms: C_16  and  N_18 
ROOT
ATOM      1  N   UNN dAMED      -1.500   1.167  -0.405  0.00  0.00    -0.190 NA
ATOM      2  C   UNN dAMED      -0.771   1.149  -1.549  0.00  0.00     0.369 C 
ATOM      3  O   UNN dAMED      -0.936   0.433  -2.534  0.00  0.00    -0.242 OA
ATOM      4  N   UNN dAMED       0.145   2.143  -1.516  0.00  0.00    -0.191 NA
ENDROOT
BRANCH   1   5
ATOM      5  C   UNN dAMED      -2.523   0.290  -0.234  0.00  0.00     0.097 A 
ATOM      6  C   UNN dAMED      -2.592  -0.959  -0.873  0.00  0.00     0.020 A 
ATOM      7  C   UNN dAMED      -3.630  -1.868  -0.665  0.00  0.00     0.002 A 
ATOM      8  C   UNN dAMED      -4.637  -1.565   0.239  0.00  0.00     0.001 A 
ATOM      9  C   UNN dAMED      -4.591  -0.363   0.930  0.00  0.00     0.013 A 
ATOM     10  C   UNN dAMED      -3.553   0.547   0.698  0.00  0.00     0.075 A 
ATOM     11 CL   UNN dAMED      -3.593   1.991   1.654  0.00  0.00    -0.081 Cl
ENDBRANCH   1   5
BRANCH   4  12
ATOM     12  C   UNN dAMED       1.355   1.754  -1.053  0.00  0.00     0.086 A 
ATOM     13  C   UNN dAMED       1.759   2.121   0.238  0.00  0.00     0.020 A 
ATOM     14  C   UNN dAMED       3.052   1.881   0.697  0.00  0.00     0.008 A 
ATOM     15  C   UNN dAMED       3.970   1.272  -0.146  0.00  0.00     0.035 A 
ATOM     16 BR   UNN dAMED       5.738   1.021   0.449  0.00  0.00    -0.049 Br
ATOM     17  C   UNN dAMED       3.603   0.879  -1.428  0.00  0.00     0.008 A 
ATOM     18  C   UNN dAMED       2.304   1.129  -1.875  0.00  0.00     0.020 A 
ENDBRANCH   4  12
TORSDOF 2
