REMARK  3 active torsions:
REMARK  status: ('A' for Active; 'I' for Inactive)
REMARK    1  A    between atoms: C_8  and  S_11 
REMARK    2  A    between atoms: S_11  and  C_12 
REMARK    3  A    between atoms: N_14  and  C_21 
ROOT
ATOM      1  N   UNN dAMED      -2.933  -1.676  -1.228  0.00  0.00    -0.269 N 
ATOM      2  C   UNN dAMED      -3.599  -0.760  -2.051  0.00  0.00     0.333 C 
ATOM      3  N   UNN dAMED      -2.949   0.474  -2.019  0.00  0.00    -0.263 N 
ATOM      4  C   UNN dAMED      -1.748   0.654  -1.420  0.00  0.00     0.170 A 
ATOM      5  C   UNN dAMED      -1.283  -0.400  -0.513  0.00  0.00     0.144 A 
ATOM      6  C   UNN dAMED      -1.892  -1.548  -0.369  0.00  0.00     0.141 C 
ATOM      7  N   UNN dAMED      -0.871   1.602  -1.507  0.00  0.00    -0.202 NA
ATOM      8  C   UNN dAMED       0.149   1.133  -0.683  0.00  0.00     0.192 A 
ATOM      9  S   UNN dAMED      -1.561  -2.717   0.670  0.00  0.00    -0.057 SA
ATOM     10  O   UNN dAMED      -4.574  -1.022  -2.747  0.00  0.00    -0.246 OA
ATOM     11  N   UNN dAMED      -0.033  -0.024  -0.099  0.00  0.00    -0.216 NA
ATOM     12  C   UNN dAMED      -3.120   1.226  -3.210  0.00  0.00     0.137 C 
ATOM     13  C   UNN dAMED      -3.770  -2.772  -0.891  0.00  0.00     0.136 C 
ENDROOT
BRANCH   8  14
ATOM     14  S   UNN dAMED       1.620   2.040  -0.481  0.00  0.00    -0.074 SA
BRANCH  14  15
ATOM     15  C   UNN dAMED       2.229   1.697  -2.129  0.00  0.00     0.088 C 
ATOM     16  C   UNN dAMED       3.453   0.794  -2.339  0.00  0.00     0.261 C 
ATOM     17  N   UNN dAMED       3.311  -0.425  -3.128  0.00  0.00     0.138 N 
ATOM     18  C   UNN dAMED       2.612  -0.093  -4.365  0.00  0.00     0.250 C 
ATOM     19  C   UNN dAMED       1.293   0.678  -4.269  0.00  0.00     0.036 C 
ATOM     20  C   UNN dAMED       1.318   1.884  -3.338  0.00  0.00     0.015 C 
BRANCH  17  21
ATOM     21  C   UNN dAMED       4.532  -1.172  -3.355  0.00  0.00     0.250 C 
ATOM     22  C   UNN dAMED       5.395  -0.874  -4.586  0.00  0.00     0.037 C 
ENDBRANCH  17  21
ENDBRANCH  14  15
ENDBRANCH   8  14
TORSDOF 3
