REMARK  3 active torsions:
REMARK  status: ('A' for Active; 'I' for Inactive)
REMARK    1  A    between atoms: N_3  and  C_15 
REMARK    2  A    between atoms: C_9  and  C_11 
REMARK    3  A    between atoms: C_15  and  C_16 
ROOT
ATOM      1  N   UNN dAMED       0.716   3.145  -0.114  0.00  0.00    -0.012 NA
ATOM      2  N   UNN dAMED      -0.581   3.453  -0.138  0.00  0.00    -0.163 NA
ATOM      3  N   UNN dAMED       0.818   1.840   0.224  0.00  0.00    -0.120 NA
ATOM      4  C   UNN dAMED      -0.406   1.241   0.225  0.00  0.00     0.158 C 
ATOM      5  C   UNN dAMED      -1.258   2.309   0.112  0.00  0.00     0.128 C 
ATOM      6  C   UNN dAMED      -2.669   1.953  -0.210  0.00  0.00     0.149 C 
ATOM      7  N   UNN dAMED      -0.656  -0.086   0.267  0.00  0.00    -0.215 NA
ATOM      8  N   UNN dAMED      -2.971   0.530  -0.048  0.00  0.00    -0.354 N 
ATOM      9  C   UNN dAMED      -1.931  -0.396   0.145  0.00  0.00     0.158 C 
ATOM     10  H   UNN dAMED      -3.904   0.152  -0.194  0.00  0.00     0.162 HD
ENDROOT
BRANCH   3  11
ATOM     11  C   UNN dAMED       1.670   1.172  -0.710  0.00  0.00     0.072 C 
BRANCH  11  12
ATOM     12  C   UNN dAMED       3.183   1.188  -0.620  0.00  0.00     0.013 A 
ATOM     13  C   UNN dAMED       3.843   1.698   0.498  0.00  0.00     0.001 A 
ATOM     14  C   UNN dAMED       5.235   1.721   0.543  0.00  0.00     0.000 A 
ATOM     15  C   UNN dAMED       5.973   1.229  -0.530  0.00  0.00     0.000 A 
ATOM     16  C   UNN dAMED       5.319   0.716  -1.647  0.00  0.00     0.000 A 
ATOM     17  C   UNN dAMED       3.927   0.697  -1.693  0.00  0.00     0.001 A 
ENDBRANCH  11  12
ENDBRANCH   3  11
BRANCH   9  18
ATOM     18  C   UNN dAMED      -2.294  -1.881   0.166  0.00  0.00     0.248 C 
ATOM     19 CL   UNN dAMED      -4.028  -2.127   0.479  0.00  0.00    -0.075 Cl
ATOM     20 CL   UNN dAMED      -1.869  -2.538  -1.431  0.00  0.00    -0.075 Cl
ATOM     21 CL   UNN dAMED      -1.367  -2.700   1.448  0.00  0.00    -0.075 Cl
ENDBRANCH   9  18
TORSDOF 3
