REMARK  3 active torsions:
REMARK  status: ('A' for Active; 'I' for Inactive)
REMARK       I    between atoms: N_2  and  C_13 
REMARK    1  A    between atoms: C_6  and  C_16 
REMARK    2  A    between atoms: C_9  and  N_17 
REMARK    3  A    between atoms: C_13  and  C_15 
ROOT
ATOM      1  C   UNN dAMED      -2.629  -0.494   1.932  0.00  0.00     0.056 C 
ATOM      2  C   UNN dAMED      -3.758  -1.037   2.385  0.00  0.00     0.029 C 
ENDROOT
BRANCH   1   3
ATOM      3  C   UNN dAMED      -2.686   0.716   1.041  0.00  0.00     0.237 C 
ATOM      4  N   UNN dAMED      -2.214   0.595  -0.244  0.00  0.00    -0.216 NA
ATOM      5  C   UNN dAMED      -3.031   1.464  -1.045  0.00  0.00     0.115 C 
ATOM      6  C   UNN dAMED      -2.682  -0.669  -0.735  0.00  0.00     0.115 C 
ATOM      7  C   UNN dAMED      -4.113   0.892  -1.974  0.00  0.00     0.268 C 
ATOM      8  N   UNN dAMED      -5.082  -0.127  -1.491  0.00  0.00     0.142 N 
ATOM      9  C   UNN dAMED      -4.184  -0.959  -0.738  0.00  0.00     0.268 C 
ATOM     10  C   UNN dAMED      -5.763   0.270  -2.702  0.00  0.00     0.285 C 
ATOM     11  O   UNN dAMED      -3.277   1.706   1.461  0.00  0.00    -0.274 OA
ENDBRANCH   1   3
BRANCH   2  12
ATOM     12  C   UNN dAMED      -3.704  -2.079   3.462  0.00  0.00     0.102 A 
ATOM     13  O   UNN dAMED      -3.883  -3.407   3.226  0.00  0.00    -0.286 OA
ATOM     14  C   UNN dAMED      -3.424  -4.018   4.343  0.00  0.00     0.227 A 
ATOM     15  C   UNN dAMED      -2.941  -3.137   5.275  0.00  0.00     0.051 A 
ATOM     16  C   UNN dAMED      -3.113  -1.859   4.686  0.00  0.00     0.029 A 
BRANCH  14  17
ATOM     17  N   UNN dAMED      -3.527  -5.424   4.348  0.00  0.00    -0.089 N 
ATOM     18  O   UNN dAMED      -4.001  -5.936   5.367  0.00  0.00    -0.530 OA
ATOM     19  O   UNN dAMED      -3.116  -6.018   3.345  0.00  0.00    -0.530 OA
ENDBRANCH  14  17
ENDBRANCH   2  12
TORSDOF 3
