REMARK  4 active torsions:
REMARK  status: ('A' for Active; 'I' for Inactive)
REMARK    1  A    between atoms: C_6  and  C_21 
REMARK    2  A    between atoms: C_8  and  C_19 
REMARK    3  A    between atoms: C_19  and  O_25 
REMARK    4  A    between atoms: C_21  and  O_23 
ROOT
ATOM      1  N   UNN dAMED      -2.196  -2.069   0.218  0.00  0.00    -0.070 NA
ATOM      2  N   UNN dAMED      -2.119  -0.748  -0.055  0.00  0.00    -0.242 N 
ATOM      3  N   UNN dAMED      -1.120  -2.631  -0.113  0.00  0.00    -0.167 NA
ATOM      4  C   UNN dAMED      -0.189  -1.692  -0.777  0.00  0.00     0.167 A 
ATOM      5  C   UNN dAMED       1.162  -1.765  -0.068  0.00  0.00     0.065 C 
ATOM      6  C   UNN dAMED       1.948  -0.497  -0.248  0.00  0.00     0.037 C 
ATOM      7  C   UNN dAMED      -0.896  -0.344  -0.687  0.00  0.00     0.149 A 
ATOM      8  C   UNN dAMED       1.341   0.699  -0.134  0.00  0.00     0.037 C 
ATOM      9  C   UNN dAMED       0.892  -1.932   1.433  0.00  0.00    -0.000 C 
ATOM     10  C   UNN dAMED      -0.230  -1.097   2.047  0.00  0.00    -0.000 C 
ATOM     11  C   UNN dAMED      -0.346   0.367   1.624  0.00  0.00    -0.000 C 
ATOM     12  C   UNN dAMED      -0.147   0.707   0.139  0.00  0.00     0.064 C 
ATOM     13  C   UNN dAMED      -3.278   0.024   0.044  0.00  0.00     0.079 A 
ATOM     14  C   UNN dAMED      -3.549   0.693   1.237  0.00  0.00     0.019 A 
ATOM     15  C   UNN dAMED      -4.718   1.440   1.363  0.00  0.00     0.002 A 
ATOM     16  C   UNN dAMED      -5.616   1.513   0.300  0.00  0.00     0.000 A 
ATOM     17  C   UNN dAMED      -5.347   0.837  -0.889  0.00  0.00     0.002 A 
ATOM     18  C   UNN dAMED      -4.178   0.089  -1.019  0.00  0.00     0.019 A 
ENDROOT
BRANCH   8  19
ATOM     19  C   UNN dAMED       2.104   1.977  -0.220  0.00  0.00     0.291 C 
ATOM     20  O   UNN dAMED       3.285   2.098  -0.506  0.00  0.00    -0.260 OA
BRANCH  19  21
ATOM     21  O   UNN dAMED       1.312   3.029   0.088  0.00  0.00    -0.296 OA
ATOM     22  C   UNN dAMED       0.015   2.510   0.077  0.00  0.00     0.185 C 
ENDBRANCH  19  21
ENDBRANCH   8  19
BRANCH   6  23
ATOM     23  C   UNN dAMED       3.395  -0.622  -0.494  0.00  0.00     0.291 C 
ATOM     24  O   UNN dAMED       4.254  -0.582   0.371  0.00  0.00    -0.260 OA
BRANCH  23  25
ATOM     25  O   UNN dAMED       3.619  -0.723  -1.823  0.00  0.00    -0.296 OA
ATOM     26  C   UNN dAMED       4.875  -0.141  -2.023  0.00  0.00     0.185 C 
ENDBRANCH  23  25
ENDBRANCH   6  23
TORSDOF 4
