REMARK  2 active torsions:
REMARK  status: ('A' for Active; 'I' for Inactive)
REMARK    1  A    between atoms: C_12  and  O_19 
REMARK    2  A    between atoms: C_14  and  C_18 
ROOT
ATOM      1  C   UNN dAMED      -1.638   1.307  -0.307  0.00  0.00     0.191 C 
ATOM      2  C   UNN dAMED      -0.462   0.423  -0.182  0.00  0.00     0.017 C 
ATOM      3  C   UNN dAMED      -0.664  -0.999   0.230  0.00  0.00     0.034 C 
ATOM      4  C   UNN dAMED      -1.996  -1.611  -0.167  0.00  0.00     0.031 C 
ATOM      5  C   UNN dAMED      -3.176  -0.692  -0.120  0.00  0.00    -0.019 A 
ATOM      6  C   UNN dAMED      -2.982   0.687  -0.245  0.00  0.00     0.035 A 
ATOM      7  O   UNN dAMED      -1.494   2.513  -0.469  0.00  0.00    -0.287 OA
ATOM      8  C   UNN dAMED      -4.090   1.531  -0.344  0.00  0.00     0.003 A 
ATOM      9  C   UNN dAMED      -5.379   1.001  -0.325  0.00  0.00     0.000 A 
ATOM     10  C   UNN dAMED      -5.566  -0.375  -0.212  0.00  0.00    -0.000 A 
ATOM     11  C   UNN dAMED      -4.465  -1.222  -0.116  0.00  0.00    -0.004 A 
ATOM     12  C   UNN dAMED       0.772   0.922  -0.276  0.00  0.00    -0.001 C 
ENDROOT
BRANCH  12  13
ATOM     13  C   UNN dAMED       1.978   0.036  -0.088  0.00  0.00     0.002 A 
ATOM     14  C   UNN dAMED       2.401  -0.803  -1.119  0.00  0.00     0.024 A 
ATOM     15  C   UNN dAMED       3.501  -1.627  -0.914  0.00  0.00     0.094 A 
ATOM     16  C   UNN dAMED       4.194  -1.624   0.290  0.00  0.00     0.024 A 
ATOM     17  C   UNN dAMED       3.772  -0.780   1.314  0.00  0.00     0.002 A 
ATOM     18  C   UNN dAMED       2.665   0.048   1.126  0.00  0.00     0.000 A 
BRANCH  15  19
ATOM     19  O   UNN dAMED       3.900  -2.464  -1.912  0.00  0.00    -0.328 OA
ATOM     20  C   UNN dAMED       2.980  -2.262  -2.944  0.00  0.00     0.181 C 
ENDBRANCH  15  19
ENDBRANCH  12  13
TORSDOF 2
