REMARK  2 active torsions:
REMARK  status: ('A' for Active; 'I' for Inactive)
REMARK    1  A    between atoms: C_9  and  C_22 
REMARK    2  A    between atoms: C_11  and  C_22 
ROOT
ATOM      1  C   UNN dAMED       0.216   0.450  -0.822  0.00  0.00     0.009 C 
ENDROOT
BRANCH   1   2
ATOM      2  C   UNN dAMED      -1.254   0.152  -0.612  0.00  0.00     0.068 A 
ATOM      3  C   UNN dAMED      -2.241   0.296  -1.714  0.00  0.00     0.260 A 
ATOM      4  N   UNN dAMED      -3.552   0.001  -1.368  0.00  0.00    -0.299 N 
ATOM      5  O   UNN dAMED      -1.890   0.651  -2.834  0.00  0.00    -0.267 OA
ATOM      6  C   UNN dAMED      -3.977  -0.415  -0.116  0.00  0.00     0.178 A 
ATOM      7  H   UNN dAMED      -4.256   0.092  -2.094  0.00  0.00     0.171 HD
ATOM      8  N   UNN dAMED      -2.993  -0.537   0.840  0.00  0.00    -0.335 N 
ATOM      9  S   UNN dAMED      -5.581  -0.750   0.208  0.00  0.00    -0.040 SA
ATOM     10  H   UNN dAMED      -3.243  -0.840   1.777  0.00  0.00     0.168 HD
ATOM     11  C   UNN dAMED      -1.675  -0.262   0.590  0.00  0.00     0.040 A 
ATOM     12  C   UNN dAMED      -0.673  -0.420   1.699  0.00  0.00     0.050 C 
ENDBRANCH   1   2
BRANCH   1  13
ATOM     13  C   UNN dAMED       0.745   1.789  -1.297  0.00  0.00     0.039 A 
ATOM     14  C   UNN dAMED       1.350   1.834  -2.572  0.00  0.00     0.196 A 
ATOM     15  C   UNN dAMED       1.830   3.098  -2.954  0.00  0.00     0.042 A 
ATOM     16  O   UNN dAMED       1.459   0.808  -3.318  0.00  0.00    -0.287 OA
ATOM     17  C   UNN dAMED       1.740   4.238  -2.152  0.00  0.00     0.003 A 
ATOM     18  C   UNN dAMED       1.156   4.150  -0.897  0.00  0.00     0.000 A 
ATOM     19  C   UNN dAMED       0.654   2.912  -0.456  0.00  0.00     0.003 A 
ATOM     20  C   UNN dAMED       1.066   5.275  -0.077  0.00  0.00     0.000 A 
ATOM     21  C   UNN dAMED       0.077   2.829   0.813  0.00  0.00     0.000 A 
ATOM     22  C   UNN dAMED      -0.010   3.955   1.629  0.00  0.00     0.000 A 
ATOM     23  C   UNN dAMED       0.483   5.178   1.184  0.00  0.00     0.000 A 
ENDBRANCH   1  13
TORSDOF 2
