REMARK  1 active torsions:
REMARK  status: ('A' for Active; 'I' for Inactive)
REMARK    1  A    between atoms: C_5  and  C_8 
ROOT
ATOM      1  N   UNN dAMED      -1.408   0.001  -0.886  0.00  0.00    -0.137 NA
ATOM      2  N   UNN dAMED      -0.219   0.004   1.077  0.00  0.00    -0.196 NA
ATOM      3  N   UNN dAMED      -0.086   0.026  -1.114  0.00  0.00    -0.259 N 
ATOM      4  H   UNN dAMED       0.255   0.011  -2.068  0.00  0.00     0.190 HD
ATOM      5  C   UNN dAMED       0.603   0.063   0.057  0.00  0.00     0.169 A 
ATOM      6  C   UNN dAMED      -1.433  -0.009   0.451  0.00  0.00     0.256 A 
ATOM      7  N   UNN dAMED      -2.655  -0.018   1.177  0.00  0.00    -0.058 NA
ENDROOT
BRANCH   5   8
ATOM      8  C   UNN dAMED       2.091  -0.122   0.159  0.00  0.00     0.247 C 
ATOM      9  O   UNN dAMED       2.855   0.732   0.909  0.00  0.00    -0.212 OA
ENDBRANCH   5   8
TORSDOF 1
