REMARK  6 active torsions:
REMARK  status: ('A' for Active; 'I' for Inactive)
REMARK    1  A    between atoms: C_3  and  C_6 
REMARK    2  A    between atoms: C_10  and  C_11 
REMARK    3  A    between atoms: C_12  and  C_21 
REMARK    4  A    between atoms: C_17  and  N_18 
REMARK    5  A    between atoms: N_18  and  C_23 
REMARK    6  A    between atoms: C_23  and  C_24 
ROOT
ATOM      1  C   UNN dAMED      -1.550  -1.186   0.149  0.00  0.00     0.068 C 
ATOM      2  C   UNN dAMED      -0.621  -0.175  -0.233  0.00  0.00     0.101 C 
ATOM      3  N   UNN dAMED       0.142   0.643  -0.541  0.00  0.00    -0.191 NA
ATOM      4  C   UNN dAMED      -1.144  -2.430   0.447  0.00  0.00     0.010 C 
ENDROOT
BRANCH   1   5
ATOM      5  C   UNN dAMED      -2.989  -0.932   0.214  0.00  0.00     0.010 A 
ATOM      6  C   UNN dAMED      -3.556   0.312  -0.074  0.00  0.00     0.004 A 
ATOM      7  C   UNN dAMED      -4.939   0.498  -0.018  0.00  0.00     0.071 A 
ATOM      8  C   UNN dAMED      -5.756  -0.575   0.344  0.00  0.00     0.004 A 
ATOM      9  C   UNN dAMED      -5.200  -1.819   0.633  0.00  0.00    -0.000 A 
ATOM     10  C   UNN dAMED      -3.820  -1.995   0.566  0.00  0.00     0.001 A 
BRANCH   7  11
ATOM     11  C   UNN dAMED      -5.541   1.836  -0.312  0.00  0.00     0.419 C 
ATOM     12  F   UNN dAMED      -5.753   2.568   0.816  0.00  0.00    -0.166 F 
ATOM     13  F   UNN dAMED      -6.748   1.752  -0.936  0.00  0.00    -0.166 F 
ATOM     14  F   UNN dAMED      -4.763   2.610  -1.119  0.00  0.00    -0.166 F 
ENDBRANCH   7  11
ENDBRANCH   1   5
BRANCH   4  15
ATOM     15  C   UNN dAMED       0.262  -2.971   0.288  0.00  0.00     0.001 A 
ATOM     16  C   UNN dAMED       1.188  -2.845   1.323  0.00  0.00     0.002 A 
ATOM     17  C   UNN dAMED       2.473  -3.366   1.175  0.00  0.00     0.017 A 
ATOM     18  C   UNN dAMED       2.834  -4.023  -0.001  0.00  0.00     0.056 A 
ATOM     19  C   UNN dAMED       1.896  -4.167  -1.024  0.00  0.00     0.017 A 
ATOM     20  C   UNN dAMED       0.612  -3.648  -0.879  0.00  0.00     0.002 A 
BRANCH  18  21
ATOM     21  N   UNN dAMED       4.138  -4.522  -0.166  0.00  0.00    -0.345 N 
ATOM     22  C   UNN dAMED       4.377  -5.639  -1.073  0.00  0.00     0.126 C 
BRANCH  21  23
ATOM     23  C   UNN dAMED       4.993  -4.742   0.997  0.00  0.00     0.118 C 
BRANCH  23  24
ATOM     24  C   UNN dAMED       4.603  -5.765   2.073  0.00  0.00     0.129 C 
ATOM     25  C   UNN dAMED       4.368  -7.156   1.723  0.00  0.00     0.076 C 
ATOM     26  N   UNN dAMED       4.173  -8.263   1.437  0.00  0.00    -0.196 NA
ENDBRANCH  23  24
ENDBRANCH  21  23
ENDBRANCH  18  21
ENDBRANCH   4  15
TORSDOF 6
