REMARK  5 active torsions:
REMARK  status: ('A' for Active; 'I' for Inactive)
REMARK    1  A    between atoms: C_3  and  N_9 
REMARK    2  A    between atoms: C_4  and  O_16 
REMARK    3  A    between atoms: C_5  and  O_7 
REMARK       I    between atoms: N_9  and  C_10 
REMARK    4  A    between atoms: C_10  and  C_12 
REMARK    5  A    between atoms: C_12  and  C_13 
ROOT
ATOM      1  C   UNN dAMED       1.034  -1.571  -0.988  0.00  0.00     0.023 A 
ATOM      2  C   UNN dAMED       2.375  -1.350  -0.663  0.00  0.00     0.026 A 
ATOM      3  C   UNN dAMED       0.001  -0.754  -0.498  0.00  0.00     0.107 A 
ATOM      4  C   UNN dAMED       0.396   0.325   0.315  0.00  0.00     0.114 A 
ATOM      5  C   UNN dAMED       2.703  -0.287   0.163  0.00  0.00     0.096 A 
ATOM      6  C   UNN dAMED       1.727   0.560   0.655  0.00  0.00     0.050 A 
ENDROOT
BRANCH   3   7
ATOM      7  N   UNN dAMED      -1.278  -0.971  -0.886  0.00  0.00    -0.206 NA
ATOM      8  C   UNN dAMED      -1.982  -1.697  -0.010  0.00  0.00     0.282 C 
ATOM      9  O   UNN dAMED      -2.137  -1.454   1.182  0.00  0.00    -0.265 OA
BRANCH   8  10
ATOM     10  C   UNN dAMED      -2.864  -2.803  -0.561  0.00  0.00     0.100 C 
BRANCH  10  11
ATOM     11  C   UNN dAMED      -3.079  -3.031  -2.143  0.00  0.00     0.178 C 
ATOM     12  O   UNN dAMED      -4.051  -2.539  -2.697  0.00  0.00    -0.291 OA
ATOM     13  C   UNN dAMED      -2.882  -2.820  -0.559  0.00  0.00     0.077 C 
ENDBRANCH  10  11
ENDBRANCH   8  10
ENDBRANCH   3   7
BRANCH   4  14
ATOM     14  O   UNN dAMED      -0.506   1.211   0.840  0.00  0.00    -0.327 OA
ATOM     15  C   UNN dAMED       0.237   1.947   1.771  0.00  0.00     0.181 C 
ENDBRANCH   4  14
BRANCH   5  16
ATOM     16  O   UNN dAMED       4.003  -0.074   0.508  0.00  0.00    -0.328 OA
ATOM     17  C   UNN dAMED       4.112   1.306   0.695  0.00  0.00     0.181 C 
ENDBRANCH   5  16
TORSDOF 5
