REMARK  4 active torsions:
REMARK  status: ('A' for Active; 'I' for Inactive)
REMARK    1  A    between atoms: C_4  and  C_15 
REMARK    2  A    between atoms: C_15  and  C_16 
REMARK    3  A    between atoms: C_16  and  C_17 
REMARK    4  A    between atoms: C_17  and  C_18 
ROOT
ATOM      1  H   UNN dAMED      -0.545  -1.950  -0.676  0.00  0.00     0.166 HD
ATOM      2  N   UNN dAMED      -1.001  -1.089  -0.409  0.00  0.00    -0.352 N 
ATOM      3  N   UNN dAMED       1.417   1.494   0.602  0.00  0.00    -0.247 NA
ATOM      4  C   UNN dAMED       1.016   0.267   0.184  0.00  0.00     0.075 A 
ATOM      5  C   UNN dAMED      -0.345   0.036   0.022  0.00  0.00     0.070 A 
ATOM      6  C   UNN dAMED      -1.309   1.006   0.290  0.00  0.00     0.020 A 
ATOM      7  C   UNN dAMED      -0.892   2.268   0.740  0.00  0.00     0.022 A 
ATOM      8  C   UNN dAMED       0.481   2.435   0.867  0.00  0.00     0.099 A 
ATOM      9  C   UNN dAMED      -2.583   0.425   0.011  0.00  0.00     0.017 A 
ATOM     10  C   UNN dAMED      -3.394  -1.750  -0.786  0.00  0.00     0.017 A 
ATOM     11  C   UNN dAMED      -2.360  -0.882  -0.423  0.00  0.00     0.057 A 
ATOM     12  C   UNN dAMED      -4.697  -1.255  -0.702  0.00  0.00     0.002 A 
ATOM     13  C   UNN dAMED      -4.953   0.043  -0.275  0.00  0.00     0.000 A 
ATOM     14  C   UNN dAMED      -3.908   0.895   0.086  0.00  0.00     0.002 A 
ENDROOT
BRANCH   4  15
ATOM     15  C   UNN dAMED       2.026  -0.769  -0.241  0.00  0.00     0.047 C 
BRANCH  15  16
ATOM     16  C   UNN dAMED       1.765  -2.275  -0.064  0.00  0.00     0.009 C 
BRANCH  16  17
ATOM     17  C   UNN dAMED       2.696  -3.301  -0.729  0.00  0.00     0.036 C 
BRANCH  17  18
ATOM     18  C   UNN dAMED       4.120  -2.897  -1.128  0.00  0.00     0.182 C 
ATOM     19  O   UNN dAMED       4.358  -1.650  -1.636  0.00  0.00    -0.221 OA
ENDBRANCH  17  18
ENDBRANCH  16  17
ENDBRANCH  15  16
ENDBRANCH   4  15
TORSDOF 4
