REMARK  0 active torsions:
REMARK  status: ('A' for Active; 'I' for Inactive)
ROOT
ATOM      1  N   UNN dAMED       0.381  -1.355  -0.003  0.00  0.00    -0.252 NA
ATOM      2  N   UNN dAMED      -0.381   1.355   0.003  0.00  0.00    -0.252 NA
ATOM      3  C   UNN dAMED      -1.954  -2.079  -0.053  0.00  0.00     0.047 A 
ATOM      4  C   UNN dAMED      -3.448  -1.760  -0.079  0.00  0.00     0.007 A 
ATOM      5  C   UNN dAMED      -0.922  -0.981  -0.025  0.00  0.00     0.072 A 
ATOM      6  C   UNN dAMED      -3.860  -0.295  -0.076  0.00  0.00     0.007 A 
ATOM      7  C   UNN dAMED      -1.298   0.357  -0.022  0.00  0.00     0.072 A 
ATOM      8  C   UNN dAMED      -2.752   0.756  -0.047  0.00  0.00     0.047 A 
ATOM      9  C   UNN dAMED       2.752  -0.756   0.047  0.00  0.00     0.047 A 
ATOM     10  C   UNN dAMED       3.860   0.295   0.076  0.00  0.00     0.007 A 
ATOM     11  C   UNN dAMED       1.298  -0.357   0.022  0.00  0.00     0.072 A 
ATOM     12  C   UNN dAMED       0.922   0.981   0.025  0.00  0.00     0.072 A 
ATOM     13  C   UNN dAMED       3.448   1.760   0.079  0.00  0.00     0.007 A 
ATOM     14  C   UNN dAMED       1.954   2.079   0.053  0.00  0.00     0.047 A 
ENDROOT
TORSDOF 0
