REMARK  3 active torsions:
REMARK  status: ('A' for Active; 'I' for Inactive)
REMARK    1  A    between atoms: C_1  and  N_8 
REMARK    2  A    between atoms: C_6  and  N_8 
REMARK    3  A    between atoms: N_9  and  C_10 
ROOT
ATOM      1  C   UNN dAMED      -0.732   1.391  -0.816  0.00  0.00     0.223 C 
ATOM      2  S   UNN dAMED      -1.477   2.551  -1.825  0.00  0.00    -0.037 SA
ATOM      3  N   UNN dAMED       0.393   1.610  -0.092  0.00  0.00    -0.217 NA
ENDROOT
BRANCH   1   4
ATOM      4  N   UNN dAMED      -1.182   0.131  -0.597  0.00  0.00    -0.192 NA
BRANCH   4   5
ATOM      5  C   UNN dAMED      -2.520  -0.009  -0.388  0.00  0.00     0.196 A 
ATOM      6  N   UNN dAMED      -3.332  -0.630  -1.223  0.00  0.00    -0.219 NA
ATOM      7  C   UNN dAMED      -4.614  -0.632  -0.716  0.00  0.00     0.108 A 
ATOM      8  C   UNN dAMED      -4.765  -0.026   0.504  0.00  0.00     0.059 A 
ATOM      9  S   UNN dAMED      -3.270   0.555   1.069  0.00  0.00    -0.046 SA
ENDBRANCH   4   5
ENDBRANCH   1   4
BRANCH   3  10
ATOM     10  C   UNN dAMED       1.488   2.056  -0.760  0.00  0.00     0.084 A 
ATOM     11  C   UNN dAMED       1.897   1.581  -2.016  0.00  0.00     0.019 A 
ATOM     12  C   UNN dAMED       3.030   2.080  -2.661  0.00  0.00     0.002 A 
ATOM     13  C   UNN dAMED       3.816   3.041  -2.037  0.00  0.00     0.000 A 
ATOM     14  C   UNN dAMED       3.462   3.503  -0.775  0.00  0.00     0.002 A 
ATOM     15  C   UNN dAMED       2.311   3.014  -0.153  0.00  0.00     0.019 A 
ENDBRANCH   3  10
TORSDOF 3
