REMARK  1 active torsions:
REMARK  status: ('A' for Active; 'I' for Inactive)
REMARK    1  A    between atoms: C_10  and  C_15 
ROOT
ATOM      1  O   UNN dAMED       8.670   0.014   4.627  0.00  0.00    -0.246 OA
ATOM      2  N   UNN dAMED       7.007  -1.606   4.449  0.00  0.00    -0.246 N 
ATOM      3  N   UNN dAMED       7.148   0.117   2.883  0.00  0.00    -0.263 N 
ATOM      4  O   UNN dAMED       5.111  -2.930   4.711  0.00  0.00    -0.266 OA
ATOM      5  N   UNN dAMED       4.023  -1.293   2.366  0.00  0.00    -0.207 NA
ATOM      6  N   UNN dAMED       5.189   0.354   1.425  0.00  0.00    -0.214 NA
ATOM      7  C   UNN dAMED       5.728  -2.059   4.109  0.00  0.00     0.278 C 
ATOM      8  C   UNN dAMED       5.219  -1.282   3.011  0.00  0.00     0.133 A 
ATOM      9  C   UNN dAMED       5.897  -0.231   2.433  0.00  0.00     0.164 A 
ATOM     10  C   UNN dAMED       4.064  -0.338   1.386  0.00  0.00     0.147 A 
ATOM     11  C   UNN dAMED       7.706  -0.455   4.026  0.00  0.00     0.335 C 
ATOM     12  C   UNN dAMED       7.391  -2.015   5.753  0.00  0.00     0.138 C 
ATOM     13  C   UNN dAMED       7.426   1.503   2.759  0.00  0.00     0.137 C 
ATOM     14  C   UNN dAMED       3.813  -2.565   1.769  0.00  0.00     0.101 C 
ENDROOT
BRANCH  10  15
ATOM     15  C   UNN dAMED       3.312  -0.509   0.095  0.00  0.00     0.138 C 
ATOM     16  O   UNN dAMED       2.335   0.384  -0.259  0.00  0.00    -0.192 OA
ATOM     17  C   UNN dAMED       3.635  -1.688  -0.828  0.00  0.00     0.064 C 
ENDBRANCH  10  15
TORSDOF 1
