REMARK  2 active torsions:
REMARK  status: ('A' for Active; 'I' for Inactive)
REMARK    1  A    between atoms: O_1  and  C_3 
REMARK    2  A    between atoms: O_2  and  C_4 
ROOT
ATOM      1  C   UNN dAMED       2.580   0.516   0.111  0.00  0.00     0.116 A 
ATOM      2  C   UNN dAMED       2.693  -0.868   0.082  0.00  0.00     0.116 A 
ATOM      3  C   UNN dAMED       1.562  -1.669  -0.003  0.00  0.00     0.031 A 
ATOM      4  C   UNN dAMED       1.332   1.129   0.061  0.00  0.00     0.026 A 
ATOM      5  C   UNN dAMED       0.172   0.354  -0.029  0.00  0.00     0.008 A 
ATOM      6  C   UNN dAMED       0.306  -1.064  -0.061  0.00  0.00     0.058 A 
ATOM      7  C   UNN dAMED      -1.161   0.961  -0.065  0.00  0.00     0.016 A 
ATOM      8  C   UNN dAMED      -1.472   2.302   0.152  0.00  0.00     0.001 A 
ATOM      9  C   UNN dAMED      -0.905  -1.949  -0.148  0.00  0.00     0.261 C 
ATOM     10  O   UNN dAMED      -0.811  -3.167  -0.069  0.00  0.00    -0.267 OA
ATOM     11  N   UNN dAMED      -2.065  -1.258  -0.341  0.00  0.00    -0.296 N 
ATOM     12  C   UNN dAMED      -2.817   2.722   0.230  0.00  0.00    -0.000 A 
ATOM     13  C   UNN dAMED      -2.240   0.114  -0.236  0.00  0.00     0.059 A 
ATOM     14  C   UNN dAMED      -3.574   0.501  -0.144  0.00  0.00    -0.004 A 
ATOM     15  C   UNN dAMED      -3.883   1.817   0.117  0.00  0.00    -0.003 A 
ATOM     16  C   UNN dAMED      -4.386  -0.742   0.022  0.00  0.00     0.052 C 
ATOM     17  C   UNN dAMED      -3.327  -1.862  -0.049  0.00  0.00     0.114 C 
ENDROOT
BRANCH   1  18
ATOM     18  O   UNN dAMED       3.690   1.302   0.190  0.00  0.00    -0.326 OA
ATOM     19  C   UNN dAMED       4.725   0.526  -0.337  0.00  0.00     0.181 C 
ENDBRANCH   1  18
BRANCH   2  20
ATOM     20  O   UNN dAMED       3.914  -1.469   0.139  0.00  0.00    -0.326 OA
ATOM     21  C   UNN dAMED       4.840  -0.435  -0.022  0.00  0.00     0.181 C 
ENDBRANCH   2  20
TORSDOF 2
