REMARK  2 active torsions:
REMARK  status: ('A' for Active; 'I' for Inactive)
REMARK    1  A    between atoms: C_6  and  C_17 
REMARK    2  A    between atoms: C_13  and  C_17 
ROOT
ATOM      1  N   UNN dAMED       3.729  -0.730  -0.244  0.00  0.00    -0.250 NA
ATOM      2  C   UNN dAMED       1.834  -2.105  -0.232  0.00  0.00     0.019 A 
ATOM      3  C   UNN dAMED       2.397  -0.836  -0.168  0.00  0.00     0.084 A 
ATOM      4  C   UNN dAMED       0.460  -2.314  -0.150  0.00  0.00     0.005 A 
ATOM      5  C   UNN dAMED       1.547   0.290  -0.022  0.00  0.00     0.057 A 
ATOM      6  C   UNN dAMED      -0.370  -1.217   0.006  0.00  0.00     0.039 A 
ATOM      7  C   UNN dAMED       2.102   1.600   0.046  0.00  0.00     0.198 A 
ATOM      8  C   UNN dAMED       4.266   0.502  -0.172  0.00  0.00     0.063 A 
ATOM      9  C   UNN dAMED       3.501   1.648  -0.032  0.00  0.00     0.057 A 
ATOM     10  C   UNN dAMED       0.157   0.069   0.052  0.00  0.00     0.008 A 
ATOM     11  O   UNN dAMED       1.421   2.674   0.172  0.00  0.00    -0.286 OA
ATOM     12  C   UNN dAMED       5.761   0.641  -0.239  0.00  0.00     0.052 C 
ENDROOT
BRANCH   6  13
ATOM     13  C   UNN dAMED      -1.821  -1.413  -0.009  0.00  0.00     0.196 C 
ATOM     14  O   UNN dAMED      -2.411  -1.598  -1.065  0.00  0.00    -0.287 OA
BRANCH  13  15
ATOM     15  C   UNN dAMED      -2.557  -1.410   1.255  0.00  0.00     0.039 A 
ATOM     16  C   UNN dAMED      -2.965  -2.625   1.801  0.00  0.00     0.003 A 
ATOM     17  C   UNN dAMED      -3.756  -2.620   2.946  0.00  0.00     0.000 A 
ATOM     18  C   UNN dAMED      -4.140  -1.411   3.526  0.00  0.00     0.000 A 
ATOM     19  C   UNN dAMED      -3.732  -0.202   2.964  0.00  0.00     0.000 A 
ATOM     20  C   UNN dAMED      -2.946  -0.196   1.815  0.00  0.00     0.003 A 
ENDBRANCH  13  15
ENDBRANCH   6  13
TORSDOF 2
