REMARK  4 active torsions:
REMARK  status: ('A' for Active; 'I' for Inactive)
REMARK    1  A    between atoms: O_1  and  C_4 
REMARK    2  A    between atoms: O_1  and  C_10 
REMARK    3  A    between atoms: O_2  and  C_5 
REMARK    4  A    between atoms: O_2  and  C_12 
ROOT
ATOM      1  C   UNN dAMED      -0.050   1.227  -0.260  0.00  0.00     0.050 A 
ATOM      2  C   UNN dAMED      -1.205   0.452  -0.195  0.00  0.00     0.106 A 
ATOM      3  C   UNN dAMED       1.180   0.604  -0.067  0.00  0.00     0.106 A 
ATOM      4  C   UNN dAMED      -1.143  -0.912   0.096  0.00  0.00     0.025 A 
ATOM      5  C   UNN dAMED       1.267  -0.773   0.144  0.00  0.00     0.025 A 
ATOM      6  C   UNN dAMED       0.099  -1.525   0.246  0.00  0.00     0.004 A 
ENDROOT
BRANCH   2   7
ATOM      7  O   UNN dAMED      -2.435   1.065  -0.317  0.00  0.00    -0.262 OA
BRANCH   7   8
ATOM      8  C   UNN dAMED      -2.704   0.899  -1.654  0.00  0.00     0.378 C 
ATOM      9  N   UNN dAMED      -1.760   0.186  -2.446  0.00  0.00    -0.032 NA
ATOM     10  O   UNN dAMED      -3.687   1.384  -2.199  0.00  0.00    -0.242 OA
ENDBRANCH   7   8
ENDBRANCH   2   7
BRANCH   3  11
ATOM     11  O   UNN dAMED       2.334   1.351  -0.204  0.00  0.00    -0.262 OA
BRANCH  11  12
ATOM     12  C   UNN dAMED       2.653   1.661   1.097  0.00  0.00     0.378 C 
ATOM     13  O   UNN dAMED       3.133   2.739   1.423  0.00  0.00    -0.242 OA
ATOM     14  N   UNN dAMED       2.559   0.635   2.078  0.00  0.00    -0.032 NA
ENDBRANCH  11  12
ENDBRANCH   3  11
TORSDOF 4
