REMARK  2 active torsions:
REMARK  status: ('A' for Active; 'I' for Inactive)
REMARK    1  A    between atoms: C_4  and  AS_8 
REMARK    2  A    between atoms: C_5  and  C_11 
ROOT
ATOM      1  C   UNN dAMED       0.065  -1.782   0.219  0.00  0.00     0.000 A 
ATOM      2  C   UNN dAMED       1.291  -2.428   0.077  0.00  0.00     0.000 A 
ATOM      3  C   UNN dAMED      -0.020  -0.382   0.115  0.00  0.00     0.006 A 
ATOM      4  C   UNN dAMED       1.122   0.354  -0.163  0.00  0.00     0.064 A 
ATOM      5  C   UNN dAMED       2.438  -1.682  -0.176  0.00  0.00     0.000 A 
ATOM      6  C   UNN dAMED       2.352  -0.298  -0.306  0.00  0.00     0.006 A 
ENDROOT
BRANCH   3   7
ATOM      7 AS   UNN dAMED      -1.812   0.188   0.509  0.00  0.00     0.000 As
ATOM      8  O   UNN dAMED      -1.792   1.665   1.095  0.00  0.00     0.000 OA
ATOM      9  O   UNN dAMED      -2.537  -0.878   1.707  0.00  0.00     0.000 OA
ATOM     10  O   UNN dAMED      -2.791   0.163  -0.953  0.00  0.00     0.000 OA
ENDBRANCH   3   7
BRANCH   4  11
ATOM     11  C   UNN dAMED       1.053   1.830  -0.325  0.00  0.00     0.211 C 
ATOM     12  O   UNN dAMED       1.775   2.520   0.458  0.00  0.00    -0.644 OA
ATOM     13  O   UNN dAMED       0.285   2.265  -1.236  0.00  0.00    -0.644 OA
ENDBRANCH   4  11
TORSDOF 2
