REMARK  1 active torsions:
REMARK  status: ('A' for Active; 'I' for Inactive)
REMARK    1  A    between atoms: N_7  and  C_21 
ROOT
ATOM      1  C   UNN dAMED       3.238  -2.765   0.087  0.00  0.00     0.000 A 
ATOM      2  C   UNN dAMED       4.309  -1.879   0.138  0.00  0.00     0.001 A 
ATOM      3  C   UNN dAMED       1.922  -2.297   0.103  0.00  0.00     0.001 A 
ATOM      4  C   UNN dAMED       4.110  -0.499   0.224  0.00  0.00     0.011 A 
ATOM      5  C   UNN dAMED       1.687  -0.911   0.188  0.00  0.00     0.013 A 
ATOM      6  C   UNN dAMED       2.786  -0.054   0.254  0.00  0.00     0.040 A 
ATOM      7  N   UNN dAMED       2.280   1.206   0.375  0.00  0.00    -0.232 NA
ATOM      8  C   UNN dAMED       0.504  -0.096   0.177  0.00  0.00     0.031 A 
ATOM      9  C   UNN dAMED       0.922   1.237   0.251  0.00  0.00     0.042 A 
ATOM     10  N   UNN dAMED      -1.332  -1.674  -0.018  0.00  0.00    -0.241 NA
ATOM     11  C   UNN dAMED       0.044   2.329   0.216  0.00  0.00     0.013 A 
ATOM     12  C   UNN dAMED      -0.879  -0.343   0.078  0.00  0.00     0.098 A 
ATOM     13  C   UNN dAMED      -1.769   0.750   0.051  0.00  0.00     0.082 A 
ATOM     14  C   UNN dAMED      -2.559  -1.938  -0.152  0.00  0.00     0.116 A 
ATOM     15  C   UNN dAMED      -1.323   2.062   0.113  0.00  0.00     0.020 A 
ATOM     16  N   UNN dAMED      -3.133   0.460  -0.055  0.00  0.00    -0.302 N 
ATOM     17  C   UNN dAMED      -3.571  -0.825  -0.115  0.00  0.00     0.083 A 
ATOM     18  C   UNN dAMED      -4.924  -0.869  -0.288  0.00  0.00     0.021 A 
ATOM     19  C   UNN dAMED      -4.219   1.290  -0.127  0.00  0.00     0.080 A 
ATOM     20  C   UNN dAMED      -5.339   0.491  -0.276  0.00  0.00     0.021 A 
ENDROOT
BRANCH   7  21
ATOM     21  C   UNN dAMED       2.857   2.042  -0.621  0.00  0.00     0.082 C 
ATOM     22  C   UNN dAMED       4.357   1.956  -0.921  0.00  0.00     0.020 C 
ENDBRANCH   7  21
TORSDOF 1
