REMARK  6 active torsions:
REMARK  status: ('A' for Active; 'I' for Inactive)
REMARK    1  A    between atoms: O_1  and  C_17 
REMARK    2  A    between atoms: O_1  and  C_23 
REMARK    3  A    between atoms: N_2  and  C_26 
REMARK    4  A    between atoms: C_19  and  O_21 
REMARK    5  A    between atoms: C_23  and  C_24 
REMARK    6  A    between atoms: C_24  and  C_26 
ROOT
ATOM      1  N   UNN dAMED      -1.089   4.253   4.493  0.00  0.00     0.143 N 
ATOM      2  N   UNN dAMED      -4.421   1.867   4.565  0.00  0.00    -0.248 NA
ATOM      3 CL   UNN dAMED      -8.526   6.063   4.201  0.00  0.00    -0.082 Cl
ATOM      4  C   UNN dAMED      -6.604   2.726   5.223  0.00  0.00     0.012 A 
ATOM      5  C   UNN dAMED      -7.577   3.717   5.130  0.00  0.00     0.012 A 
ATOM      6  C   UNN dAMED      -5.365   2.906   4.607  0.00  0.00     0.037 A 
ATOM      7  C   UNN dAMED      -7.300   4.886   4.423  0.00  0.00     0.058 A 
ATOM      8  C   UNN dAMED      -5.084   4.107   3.942  0.00  0.00     0.012 A 
ATOM      9  C   UNN dAMED      -6.050   5.099   3.843  0.00  0.00     0.012 A 
ATOM     10  C   UNN dAMED      -2.914   2.206   4.539  0.00  0.00     0.112 C 
ATOM     11  C   UNN dAMED      -2.472   3.575   4.007  0.00  0.00     0.268 C 
ATOM     12  C   UNN dAMED      -2.952   2.289   4.686  0.00  0.00     0.112 C 
ATOM     13  C   UNN dAMED      -2.471   3.576   4.008  0.00  0.00     0.268 C 
ENDROOT
BRANCH   1  14
ATOM     14  C   UNN dAMED      -1.207   2.773   4.067  0.00  0.00     0.286 C 
BRANCH  14  15
ATOM     15  C   UNN dAMED       0.016   1.851   4.217  0.00  0.00     0.215 C 
ATOM     16  O   UNN dAMED       0.254   1.253   5.422  0.00  0.00    -0.219 OA
BRANCH  15  17
ATOM     17  C   UNN dAMED       1.178   1.937   3.222  0.00  0.00     0.184 C 
BRANCH  17  18
ATOM     18  O   UNN dAMED       1.406   3.123   2.530  0.00  0.00    -0.328 OA
BRANCH  18  19
ATOM     19  C   UNN dAMED       2.763   3.258   2.499  0.00  0.00     0.094 A 
ATOM     20  C   UNN dAMED       3.505   2.592   1.536  0.00  0.00     0.026 A 
ATOM     21  C   UNN dAMED       4.887   2.769   1.492  0.00  0.00     0.026 A 
ATOM     22  C   UNN dAMED       5.494   3.610   2.415  0.00  0.00     0.094 A 
ATOM     23  C   UNN dAMED       4.750   4.290   3.372  0.00  0.00     0.026 A 
ATOM     24  C   UNN dAMED       3.368   4.112   3.414  0.00  0.00     0.026 A 
BRANCH  22  25
ATOM     25  O   UNN dAMED       6.853   3.757   2.398  0.00  0.00    -0.328 OA
ATOM     26  C   UNN dAMED       7.254   3.307   1.140  0.00  0.00     0.181 C 
ENDBRANCH  22  25
ENDBRANCH  18  19
ENDBRANCH  17  18
ENDBRANCH  15  17
ENDBRANCH  14  15
ENDBRANCH   1  14
TORSDOF 6
