REMARK  4 active torsions:
REMARK  status: ('A' for Active; 'I' for Inactive)
REMARK    1  A    between atoms: C_4  and  C_18 
REMARK    2  A    between atoms: C_5  and  C_20 
REMARK    3  A    between atoms: C_10  and  N_17 
REMARK    4  A    between atoms: C_12  and  AS_14 
REMARK       I    between atoms: N_17  and  C_18 
ROOT
ATOM      1  N   UNN dAMED      -0.045   0.260   0.419  0.00  0.00    -0.208 NA
ATOM      2  C   UNN dAMED       0.665   0.846  -0.550  0.00  0.00     0.279 C 
ATOM      3  O   UNN dAMED       0.687   2.036  -0.853  0.00  0.00    -0.265 OA
ENDROOT
BRANCH   1   4
ATOM      4  C   UNN dAMED      -1.384   0.277   0.235  0.00  0.00     0.085 A 
ATOM      5  C   UNN dAMED      -2.010  -0.395  -0.826  0.00  0.00     0.019 A 
ATOM      6  C   UNN dAMED      -3.398  -0.558  -0.881  0.00  0.00     0.002 A 
ATOM      7  C   UNN dAMED      -4.202  -0.074   0.145  0.00  0.00     0.000 A 
ATOM      8  C   UNN dAMED      -3.607   0.609   1.204  0.00  0.00     0.002 A 
ATOM      9  C   UNN dAMED      -2.220   0.780   1.242  0.00  0.00     0.019 A 
BRANCH   7  10
ATOM     10 AS   UNN dAMED      -6.105  -0.345   0.183  0.00  0.00     0.000 As
ATOM     11  O   UNN dAMED      -6.427  -1.839   0.621  0.00  0.00     0.000 OA
ATOM     12  O   UNN dAMED      -6.864   0.757   1.326  0.00  0.00     0.000 OA
ATOM     13  O   UNN dAMED      -6.783  -0.059  -1.415  0.00  0.00     0.000 OA
ENDBRANCH   7  10
ENDBRANCH   1   4
BRANCH   2  14
ATOM     14  C   UNN dAMED       1.602  -0.060  -1.253  0.00  0.00     0.058 A 
ATOM     15  C   UNN dAMED       1.517  -0.150  -2.642  0.00  0.00     0.005 A 
ATOM     16  C   UNN dAMED       2.409  -0.965  -3.333  0.00  0.00     0.004 A 
ATOM     17  C   UNN dAMED       3.377  -1.674  -2.626  0.00  0.00     0.053 A 
ATOM     18  C   UNN dAMED       3.477  -1.587  -1.240  0.00  0.00     0.004 A 
ATOM     19  C   UNN dAMED       2.590  -0.759  -0.551  0.00  0.00     0.005 A 
BRANCH  17  20
ATOM     20  C   UNN dAMED       4.276  -2.571  -3.351  0.00  0.00     0.266 C 
ATOM     21  O   UNN dAMED       4.820  -2.213  -4.387  0.00  0.00    -0.271 OA
ATOM     22  N   UNN dAMED       4.439  -3.915  -2.909  0.00  0.00    -0.057 NA
ENDBRANCH  17  20
ENDBRANCH   2  14
TORSDOF 4
