REMARK  1 active torsions:
REMARK  status: ('A' for Active; 'I' for Inactive)
REMARK    1  A    between atoms: C_9  and  S_10 
ROOT
ATOM      1 CL   UNN dAMED      -1.539  -2.864  -0.365  0.00  0.00    -0.063 Cl
ATOM      2  H   UNN dAMED       0.862  -1.889   0.298  0.00  0.00     0.169 HD
ATOM      3  N   UNN dAMED       0.298  -1.068   0.115  0.00  0.00    -0.325 N 
ATOM      4  O   UNN dAMED      -1.861   2.162  -0.592  0.00  0.00    -0.265 OA
ATOM      5  N   UNN dAMED       0.195   1.325   0.020  0.00  0.00    -0.185 NA
ATOM      6  C   UNN dAMED      -0.995  -1.257  -0.251  0.00  0.00     0.122 A 
ATOM      7  C   UNN dAMED      -1.740  -0.180  -0.495  0.00  0.00     0.091 A 
ATOM      8  C   UNN dAMED      -1.130   1.208  -0.357  0.00  0.00     0.283 A 
ATOM      9  C   UNN dAMED       0.813   0.201   0.228  0.00  0.00     0.172 A 
ENDROOT
BRANCH   9  10
ATOM     10  S   UNN dAMED       2.504   0.284   0.709  0.00  0.00    -0.076 SA
ATOM     11  C   UNN dAMED       2.741  -1.490   0.749  0.00  0.00     0.077 C 
ENDBRANCH   9  10
TORSDOF 1
