REMARK  3 active torsions:
REMARK  status: ('A' for Active; 'I' for Inactive)
REMARK    1  A    between atoms: C_2  and  C_15 
REMARK    2  A    between atoms: C_2  and  C_16 
REMARK    3  A    between atoms: C_14  and  C_15 
ROOT
ATOM      1  O   UNN dAMED       0.098   1.908   1.124  0.00  0.00    -0.272 OA
ATOM      2  C   UNN dAMED       0.309  -0.067  -0.176  0.00  0.00     0.146 A 
ATOM      3  O   UNN dAMED       0.230  -2.149  -1.315  0.00  0.00    -0.272 OA
ATOM      4  C   UNN dAMED      -0.383  -1.288  -0.687  0.00  0.00     0.244 A 
ATOM      5  C   UNN dAMED      -0.455   0.926   0.634  0.00  0.00     0.244 A 
ATOM      6  N   UNN dAMED      -1.737  -1.358  -0.422  0.00  0.00    -0.302 N 
ATOM      7  N   UNN dAMED      -1.803   0.660   0.781  0.00  0.00    -0.302 N 
ATOM      8  H   UNN dAMED      -2.347   1.330   1.316  0.00  0.00     0.171 HD
ATOM      9  C   UNN dAMED      -2.478  -0.437   0.288  0.00  0.00     0.181 A 
ATOM     10  H   UNN dAMED      -2.232  -2.170  -0.779  0.00  0.00     0.171 HD
ATOM     11  S   UNN dAMED      -4.117  -0.645   0.546  0.00  0.00    -0.040 SA
ENDROOT
BRANCH   2  12
ATOM     12  C   UNN dAMED       1.602  -0.458   0.565  0.00  0.00     0.043 C 
BRANCH  12  13
ATOM     13  C   UNN dAMED       2.660  -1.305  -0.147  0.00  0.00    -0.030 C 
ATOM     14  C   UNN dAMED       3.125  -0.926  -1.336  0.00  0.00    -0.030 C 
ATOM     15  C   UNN dAMED       4.186  -1.776  -2.040  0.00  0.00     0.030 C 
ENDBRANCH  12  13
ENDBRANCH   2  12
BRANCH   2  16
ATOM     16  C   UNN dAMED       1.028   0.643  -1.340  0.00  0.00     0.018 C 
ATOM     17  C   UNN dAMED       0.402   0.633  -2.738  0.00  0.00     0.001 C 
ENDBRANCH   2  16
TORSDOF 3
