REMARK  0 active torsions:
REMARK  status: ('A' for Active; 'I' for Inactive)
ROOT
ATOM      1 BR   UNN dAMED      -2.701  -2.058  -0.000  0.00  0.00    -0.028 Br
ATOM      2 BR   UNN dAMED      -2.778   1.428   0.000  0.00  0.00    -0.047 Br
ATOM      3  N   UNN dAMED       0.042  -1.673  -0.000  0.00  0.00    -0.242 NA
ATOM      4 BR   UNN dAMED       2.840   1.361   0.000  0.00  0.00    -0.048 Br
ATOM      5  C   UNN dAMED      -1.129  -0.983  -0.000  0.00  0.00     0.121 A 
ATOM      6  C   UNN dAMED      -1.187   0.409  -0.000  0.00  0.00     0.055 A 
ATOM      7  C   UNN dAMED       0.010   1.117  -0.000  0.00  0.00    -0.006 A 
ATOM      8  C   UNN dAMED       1.191  -0.955  -0.000  0.00  0.00     0.066 A 
ATOM      9  C   UNN dAMED       1.212   0.428  -0.000  0.00  0.00     0.045 A 
ATOM     10  C   UNN dAMED      -0.002   2.618   0.000  0.00  0.00     0.032 C 
ATOM     11  C   UNN dAMED       2.503  -1.692   0.000  0.00  0.00     0.053 C 
ENDROOT
TORSDOF 0
