REMARK  2 active torsions:
REMARK  status: ('A' for Active; 'I' for Inactive)
REMARK    1  A    between atoms: AS_2  and  C_3 
REMARK    2  A    between atoms: C_8  and  N_13 
REMARK       I    between atoms: C_9  and  N_13 
ROOT
ATOM      1  C   UNN dAMED      -1.348  -0.080  -0.041  0.00  0.00     0.000 A 
ATOM      2  C   UNN dAMED      -0.535   0.932  -0.522  0.00  0.00     0.002 A 
ATOM      3  C   UNN dAMED      -0.776  -1.187   0.591  0.00  0.00     0.002 A 
ATOM      4  C   UNN dAMED       0.846   0.856  -0.344  0.00  0.00     0.019 A 
ATOM      5  C   UNN dAMED       0.607  -1.259   0.752  0.00  0.00     0.019 A 
ATOM      6  C   UNN dAMED       1.449  -0.240   0.292  0.00  0.00     0.084 A 
ENDROOT
BRANCH   1   7
ATOM      7 AS   UNN dAMED      -3.264  -0.107  -0.115  0.00  0.00     0.000 As
ATOM      8  O   UNN dAMED      -3.861   0.267   1.310  0.00  0.00     0.000 OA
ATOM      9  O   UNN dAMED      -3.825   1.061  -1.305  0.00  0.00     0.000 OA
ATOM     10  O   UNN dAMED      -3.811  -1.714  -0.576  0.00  0.00     0.000 OA
ENDBRANCH   1   7
BRANCH   6  11
ATOM     11  N   UNN dAMED       2.762  -0.257   0.597  0.00  0.00    -0.212 NA
ATOM     12  C   UNN dAMED       3.517  -0.298  -0.496  0.00  0.00     0.256 C 
ATOM     13  O   UNN dAMED       4.742  -0.297  -0.529  0.00  0.00    -0.270 OA
ATOM     14  C   UNN dAMED       2.798  -0.218  -1.815  0.00  0.00     0.100 C 
ENDBRANCH   6  11
TORSDOF 2
