REMARK  1 active torsions:
REMARK  status: ('A' for Active; 'I' for Inactive)
REMARK    1  A    between atoms: C_1  and  C_11 
ROOT
ATOM      1  C   UNN dAMED      -3.309  -0.438  -0.300  0.00  0.00     0.092 A 
ATOM      2  N   UNN dAMED      -3.489  -1.733  -0.585  0.00  0.00    -0.131 NA
ATOM      3  O   UNN dAMED      -2.197  -2.278  -0.593  0.00  0.00    -0.211 OA
ATOM      4  C   UNN dAMED      -1.966  -0.092  -0.120  0.00  0.00     0.097 A 
ATOM      5  C   UNN dAMED      -1.328  -1.289  -0.307  0.00  0.00     0.132 A 
ATOM      6  C   UNN dAMED      -1.247   1.128   0.170  0.00  0.00     0.264 A 
ATOM      7  O   UNN dAMED      -1.806   2.204   0.351  0.00  0.00    -0.267 OA
ATOM      8  C   UNN dAMED       0.177  -1.352  -0.248  0.00  0.00     0.044 A 
ATOM      9  C   UNN dAMED       0.831  -0.214   0.031  0.00  0.00     0.065 A 
ATOM     10  N   UNN dAMED       0.114   0.932   0.209  0.00  0.00    -0.294 N 
ATOM     11  C   UNN dAMED       0.883   2.085   0.507  0.00  0.00     0.134 C 
ATOM     12  C   UNN dAMED       2.279  -0.169   0.093  0.00  0.00     0.016 A 
ATOM     13  C   UNN dAMED       3.021  -0.192  -1.087  0.00  0.00     0.001 A 
ATOM     14  C   UNN dAMED       4.413  -0.174  -1.036  0.00  0.00     0.000 A 
ATOM     15  C   UNN dAMED       5.064  -0.136   0.195  0.00  0.00     0.000 A 
ATOM     16  C   UNN dAMED       4.325  -0.119   1.375  0.00  0.00     0.000 A 
ATOM     17  C   UNN dAMED       2.932  -0.140   1.324  0.00  0.00     0.001 A 
ENDROOT
BRANCH   1  18
ATOM     18  C   UNN dAMED      -4.438   0.548  -0.243  0.00  0.00     0.048 C 
ATOM     19  C   UNN dAMED      -5.124   0.856   1.092  0.00  0.00     0.007 C 
ENDBRANCH   1  18
TORSDOF 1
