REMARK  0 active torsions:
REMARK  status: ('A' for Active; 'I' for Inactive)
ROOT
ATOM      1  C   UNN dAMED       0.200  -0.467  -0.018  0.00  0.00     0.107 A 
ATOM      2  N   UNN dAMED      -0.949  -1.239  -0.203  0.00  0.00    -0.211 N 
ATOM      3  N   UNN dAMED      -0.608  -2.539  -0.392  0.00  0.00    -0.059 NA
ATOM      4  N   UNN dAMED       0.701  -2.658  -0.283  0.00  0.00    -0.125 NA
ATOM      5  C   UNN dAMED       1.219  -1.416  -0.068  0.00  0.00     0.157 A 
ATOM      6  C   UNN dAMED       0.311   0.986   0.123  0.00  0.00     0.019 A 
ATOM      7  C   UNN dAMED       1.282   1.666  -0.626  0.00  0.00     0.002 A 
ATOM      8  C   UNN dAMED       0.766   3.724   0.491  0.00  0.00     0.058 A 
ATOM      9  C   UNN dAMED      -0.209   3.072   1.242  0.00  0.00     0.011 A 
ATOM     10  C   UNN dAMED      -0.418   1.700   1.075  0.00  0.00     0.002 A 
ATOM     11  C   UNN dAMED       1.520   3.025  -0.442  0.00  0.00     0.011 A 
ATOM     12 CL   UNN dAMED       1.024   5.410   0.689  0.00  0.00    -0.082 Cl
ATOM     13  C   UNN dAMED       2.638  -1.213  -0.022  0.00  0.00     0.175 C 
ATOM     14  N   UNN dAMED       3.137  -0.883   1.163  0.00  0.00    -0.252 NA
ATOM     15  C   UNN dAMED       4.552  -0.576   1.286  0.00  0.00     0.129 C 
ATOM     16  C   UNN dAMED       5.427  -1.257   0.253  0.00  0.00     0.053 C 
ATOM     17  N   UNN dAMED       3.338  -1.463  -1.082  0.00  0.00    -0.252 NA
ATOM     18  C   UNN dAMED      -2.317  -0.903  -0.183  0.00  0.00     0.085 A 
ATOM     19  C   UNN dAMED      -2.772   0.322  -0.659  0.00  0.00     0.020 A 
ATOM     20  C   UNN dAMED      -4.142   0.593  -0.658  0.00  0.00     0.013 A 
ATOM     21  C   UNN dAMED      -5.045  -0.383  -0.235  0.00  0.00     0.058 A 
ATOM     22 CL   UNN dAMED      -6.729  -0.044  -0.230  0.00  0.00    -0.082 Cl
ATOM     23  C   UNN dAMED      -4.597  -1.625   0.199  0.00  0.00     0.013 A 
ATOM     24  C   UNN dAMED      -3.230  -1.882   0.229  0.00  0.00     0.020 A 
ATOM     25  C   UNN dAMED       4.748  -1.259  -1.103  0.00  0.00     0.129 C 
ENDROOT
TORSDOF 0
