REMARK  3 active torsions:
REMARK  status: ('A' for Active; 'I' for Inactive)
REMARK    1  A    between atoms: C_13  and  C_21 
REMARK    2  A    between atoms: C_14  and  N_22 
REMARK    3  A    between atoms: C_17  and  C_21 
REMARK       I    between atoms: N_22  and  C_23 
ROOT
ATOM      1  O   UNN dAMED      -6.150  -0.045  -1.101  0.00  0.00    -0.246 OA
ATOM      2  N   UNN dAMED      -4.525   1.013   0.187  0.00  0.00    -0.246 N 
ATOM      3  O   UNN dAMED      -3.113   1.812   1.854  0.00  0.00    -0.265 OA
ATOM      4  N   UNN dAMED      -3.935  -0.705  -1.270  0.00  0.00    -0.263 N 
ATOM      5  N   UNN dAMED      -1.111  -0.188   0.699  0.00  0.00    -0.333 N 
ATOM      6  H   UNN dAMED      -0.548   0.254   1.414  0.00  0.00     0.168 HD
ATOM      7  N   UNN dAMED      -1.667  -1.583  -0.972  0.00  0.00    -0.210 NA
ATOM      8  C   UNN dAMED      -3.321   1.081   0.892  0.00  0.00     0.283 C 
ATOM      9  C   UNN dAMED      -2.395   0.120   0.356  0.00  0.00     0.149 A 
ATOM     10  C   UNN dAMED      -2.698  -0.747  -0.675  0.00  0.00     0.169 A 
ATOM     11  C   UNN dAMED      -0.734  -1.218  -0.120  0.00  0.00     0.142 A 
ATOM     12  C   UNN dAMED      -4.973   0.080  -0.771  0.00  0.00     0.335 C 
ATOM     13  C   UNN dAMED      -5.593   1.664   0.857  0.00  0.00     0.139 C 
ATOM     14  C   UNN dAMED      -4.368  -1.954  -1.788  0.00  0.00     0.137 C 
ENDROOT
BRANCH  11  15
ATOM     15  C   UNN dAMED       0.659  -1.785  -0.130  0.00  0.00     0.037 C 
BRANCH  15  16
ATOM     16  C   UNN dAMED       1.043  -3.061   0.581  0.00  0.00     0.003 A 
ATOM     17  C   UNN dAMED       2.328  -3.563   0.407  0.00  0.00     0.002 A 
ATOM     18  C   UNN dAMED       2.730  -4.703   1.103  0.00  0.00     0.019 A 
ATOM     19  C   UNN dAMED       1.869  -5.386   1.977  0.00  0.00     0.084 A 
ATOM     20  C   UNN dAMED       0.586  -4.848   2.139  0.00  0.00     0.019 A 
ATOM     21  C   UNN dAMED       0.173  -3.703   1.458  0.00  0.00     0.002 A 
BRANCH  19  22
ATOM     22  N   UNN dAMED       2.201  -6.487   2.689  0.00  0.00    -0.212 NA
ATOM     23  C   UNN dAMED       3.326  -7.076   2.291  0.00  0.00     0.256 C 
ATOM     24  O   UNN dAMED       3.423  -8.143   1.697  0.00  0.00    -0.270 OA
ATOM     25  C   UNN dAMED       4.608  -6.419   2.727  0.00  0.00     0.100 C 
ENDBRANCH  19  22
ENDBRANCH  15  16
ENDBRANCH  11  15
TORSDOF 3
