REMARK  5 active torsions:
REMARK  status: ('A' for Active; 'I' for Inactive)
REMARK    1  A    between atoms: C_2  and  C_20 
REMARK    2  A    between atoms: C_8  and  C_15 
REMARK    3  A    between atoms: C_10  and  O_13 
REMARK    4  A    between atoms: C_16  and  C_17 
REMARK    5  A    between atoms: C_17  and  C_19 
ROOT
ATOM      1  C   UNN dAMED       1.231   1.642   3.154  0.00  0.00     0.196 C 
ATOM      2  O   UNN dAMED       0.023   1.592   2.981  0.00  0.00    -0.287 OA
ENDROOT
BRANCH   1   3
ATOM      3  C   UNN dAMED       1.795   2.269   4.399  0.00  0.00     0.042 C 
ATOM      4  C   UNN dAMED       2.072   1.517   5.463  0.00  0.00     0.005 C 
BRANCH   4   5
ATOM      5  C   UNN dAMED       2.694   2.151   6.674  0.00  0.00     0.022 A 
ATOM      6  C   UNN dAMED       1.918   2.434   7.794  0.00  0.00     0.002 A 
ATOM      7  C   UNN dAMED       2.479   3.112   8.875  0.00  0.00     0.000 A 
ATOM      8  C   UNN dAMED       3.816   3.507   8.836  0.00  0.00     0.002 A 
ATOM      9  C   UNN dAMED       4.596   3.224   7.718  0.00  0.00     0.024 A 
ATOM     10  C   UNN dAMED       4.025   2.549   6.647  0.00  0.00     0.094 A 
BRANCH  10  11
ATOM     11  O   UNN dAMED       4.778   2.298   5.540  0.00  0.00    -0.328 OA
ATOM     12  C   UNN dAMED       4.532   0.960   5.222  0.00  0.00     0.181 C 
ENDBRANCH  10  11
ENDBRANCH   4   5
ENDBRANCH   1   3
BRANCH   1  13
ATOM     13  C   UNN dAMED       2.166   1.676   1.978  0.00  0.00     0.042 C 
ATOM     14  C   UNN dAMED       1.921   0.926   0.905  0.00  0.00     0.006 C 
BRANCH  14  15
ATOM     15  C   UNN dAMED       3.036   0.646  -0.063  0.00  0.00     0.039 A 
ATOM     16  C   UNN dAMED       4.074  -0.194   0.355  0.00  0.00     0.003 A 
ATOM     17  C   UNN dAMED       5.146  -0.445  -0.488  0.00  0.00     0.000 A 
ATOM     18  C   UNN dAMED       5.173   0.147  -1.741  0.00  0.00     0.003 A 
ATOM     19  C   UNN dAMED       4.123   0.981  -2.134  0.00  0.00     0.042 A 
ATOM     20  C   UNN dAMED       3.013   1.270  -1.322  0.00  0.00     0.196 A 
ATOM     21  O   UNN dAMED       2.067   2.037  -1.695  0.00  0.00    -0.287 OA
ENDBRANCH  14  15
ENDBRANCH   1  13
TORSDOF 5
