REMARK  4 active torsions:
REMARK  status: ('A' for Active; 'I' for Inactive)
REMARK    1  A    between atoms: C_8  and  C_13 
REMARK    2  A    between atoms: C_10  and  C_17 
REMARK    3  A    between atoms: C_17  and  C_19 
REMARK    4  A    between atoms: C_17  and  O_18 
ROOT
ATOM      1  C   UNN dAMED       2.342   4.631  -2.273  0.00  0.00     0.059 A 
ATOM      2  C   UNN dAMED       3.471   5.390  -2.537  0.00  0.00     0.024 A 
ATOM      3  C   UNN dAMED       4.671   5.085  -1.891  0.00  0.00     0.076 A 
ATOM      4  C   UNN dAMED       4.776   4.031  -0.977  0.00  0.00     0.092 A 
ATOM      5  C   UNN dAMED       3.608   3.281  -0.737  0.00  0.00     0.021 A 
ATOM      6  C   UNN dAMED       2.405   3.575  -1.377  0.00  0.00     0.013 A 
ATOM      7  N   UNN dAMED       5.932   3.730  -0.344  0.00  0.00    -0.241 NA
ATOM      8  C   UNN dAMED       5.956   2.692   0.529  0.00  0.00     0.153 A 
ATOM      9  C   UNN dAMED       4.847   1.909   0.804  0.00  0.00     0.025 A 
ATOM     10  C   UNN dAMED       3.659   2.220   0.160  0.00  0.00     0.026 A 
ATOM     11 CL   UNN dAMED       0.862   5.000  -3.055  0.00  0.00    -0.082 Cl
ATOM     12 CL   UNN dAMED       6.038   6.071  -2.268  0.00  0.00    -0.081 Cl
ENDROOT
BRANCH  10  13
ATOM     13  C   UNN dAMED       2.431   1.379   0.390  0.00  0.00     0.102 C 
BRANCH  13  14
ATOM     14  C   UNN dAMED       1.777   0.670  -0.803  0.00  0.00     0.076 C 
ATOM     15  C   UNN dAMED       0.393   1.157  -1.250  0.00  0.00     0.048 C 
ATOM     16  C   UNN dAMED      -0.767   0.318  -0.730  0.00  0.00     0.008 C 
ATOM     17  C   UNN dAMED      -0.443  -1.170  -0.698  0.00  0.00     0.027 C 
ATOM     18  C   UNN dAMED       1.012  -1.491  -0.338  0.00  0.00     0.125 C 
ATOM     19  N   UNN dAMED       2.073  -0.747  -1.016  0.00  0.00    -0.273 NA
ENDBRANCH  13  14
BRANCH  13  20
ATOM     20  O   UNN dAMED       1.731   1.485   1.597  0.00  0.00    -0.358 OA
ATOM     21  H   UNN dAMED       1.605   0.568   1.896  0.00  0.00     0.217 HD
ENDBRANCH  13  20
ENDBRANCH  10  13
BRANCH   8  22
ATOM     22  C   UNN dAMED       7.252   2.394   1.218  0.00  0.00     0.435 C 
ATOM     23  F   UNN dAMED       7.133   2.376   2.574  0.00  0.00    -0.165 F 
ATOM     24  F   UNN dAMED       7.764   1.182   0.868  0.00  0.00    -0.165 F 
ATOM     25  F   UNN dAMED       8.227   3.303   0.943  0.00  0.00    -0.165 F 
ENDBRANCH   8  22
TORSDOF 4
