REMARK  6 active torsions:
REMARK  status: ('A' for Active; 'I' for Inactive)
REMARK    1  A    between atoms: C_1  and  O_9 
REMARK    2  A    between atoms: C_2  and  O_10 
REMARK    3  A    between atoms: C_7  and  C_19 
REMARK    4  A    between atoms: O_9  and  C_12 
REMARK    5  A    between atoms: O_10  and  C_15 
REMARK    6  A    between atoms: C_19  and  O_21 
ROOT
ATOM      1  C   UNN dAMED      -1.530  -0.577  -0.334  0.00  0.00     0.126 A 
ATOM      2  C   UNN dAMED      -1.497   0.816  -0.172  0.00  0.00     0.127 A 
ATOM      3  C   UNN dAMED      -0.296   1.472   0.129  0.00  0.00     0.045 A 
ATOM      4  C   UNN dAMED       0.855   0.714   0.322  0.00  0.00     0.075 A 
ATOM      5  C   UNN dAMED       0.773  -0.674   0.181  0.00  0.00    -0.000 A 
ATOM      6  C   UNN dAMED      -0.388  -1.350  -0.137  0.00  0.00     0.024 A 
ATOM      7  C   UNN dAMED       2.992   0.007   0.717  0.00  0.00     0.166 C 
ATOM      8  C   UNN dAMED       2.139  -1.212   0.336  0.00  0.00     0.060 C 
ATOM      9  N   UNN dAMED       2.093   1.190   0.591  0.00  0.00    -0.265 NA
ATOM     10  C   UNN dAMED       3.508  -0.092   2.153  0.00  0.00     0.035 C 
ENDROOT
BRANCH   7  11
ATOM     11  C   UNN dAMED       4.149   0.148  -0.228  0.00  0.00     0.292 C 
ATOM     12  O   UNN dAMED       4.435  -0.670  -1.092  0.00  0.00    -0.262 OA
BRANCH  11  13
ATOM     13  O   UNN dAMED       4.892   1.246   0.053  0.00  0.00    -0.298 OA
ATOM     14  C   UNN dAMED       3.969   2.288   0.167  0.00  0.00     0.185 C 
ENDBRANCH  11  13
ENDBRANCH   7  11
BRANCH   1  15
ATOM     15  O   UNN dAMED      -2.737  -1.242  -0.556  0.00  0.00    -0.274 OA
BRANCH  15  16
ATOM     16  C   UNN dAMED      -2.967  -1.411  -1.916  0.00  0.00     0.277 C 
ATOM     17  O   UNN dAMED      -2.247  -2.096  -2.634  0.00  0.00    -0.264 OA
ATOM     18  C   UNN dAMED      -4.383  -1.200  -2.385  0.00  0.00     0.107 C 
ENDBRANCH  15  16
ENDBRANCH   1  15
BRANCH   2  19
ATOM     19  O   UNN dAMED      -2.648   1.558  -0.439  0.00  0.00    -0.274 OA
BRANCH  19  20
ATOM     20  C   UNN dAMED      -3.121   2.208   0.695  0.00  0.00     0.277 C 
ATOM     21  O   UNN dAMED      -3.402   1.628   1.739  0.00  0.00    -0.264 OA
ATOM     22  C   UNN dAMED      -3.722   3.572   0.485  0.00  0.00     0.107 C 
ENDBRANCH  19  20
ENDBRANCH   2  19
TORSDOF 6
