REMARK  5 active torsions:
REMARK  status: ('A' for Active; 'I' for Inactive)
REMARK    1  A    between atoms: C_3  and  C_9 
REMARK    2  A    between atoms: C_6  and  C_10 
REMARK    3  A    between atoms: C_10  and  N_12 
REMARK    4  A    between atoms: N_12  and  C_14 
REMARK    5  A    between atoms: C_14  and  C_15 
ROOT
ATOM      1  O   UNN dAMED      -1.215   1.114  -0.633  0.00  0.00    -0.308 OA
ATOM      2  O   UNN dAMED      -2.441  -2.201   1.275  0.00  0.00    -0.283 OA
ATOM      3  C   UNN dAMED      -2.539   0.959  -0.300  0.00  0.00     0.114 C 
ATOM      4  C   UNN dAMED      -2.950  -0.104   0.386  0.00  0.00     0.068 C 
ATOM      5  C   UNN dAMED      -1.996  -1.214   0.702  0.00  0.00     0.238 C 
ATOM      6  C   UNN dAMED      -0.309   0.139  -0.270  0.00  0.00     0.153 C 
ATOM      7  C   UNN dAMED      -0.550  -1.019   0.384  0.00  0.00     0.255 C 
ATOM      8  O   UNN dAMED       0.236  -1.931   0.750  0.00  0.00    -0.281 OA
ENDROOT
BRANCH   6   9
ATOM      9  C   UNN dAMED       1.144   0.400  -0.641  0.00  0.00     0.305 C 
BRANCH   9  10
ATOM     10  N   UNN dAMED       2.013   1.510   0.299  0.00  0.00     0.157 N 
ATOM     11  C   UNN dAMED       1.150   0.403  -0.641  0.00  0.00     0.287 C 
BRANCH  10  12
ATOM     12  C   UNN dAMED       1.348   0.384  -0.760  0.00  0.00     0.347 C 
BRANCH  12  13
ATOM     13  C   UNN dAMED       2.248  -0.210  -1.833  0.00  0.00     0.221 C 
ATOM     14  O   UNN dAMED       2.434  -1.464  -1.789  0.00  0.00    -0.646 OA
ATOM     15  O   UNN dAMED       2.752   0.601  -2.670  0.00  0.00    -0.646 OA
ENDBRANCH  12  13
ENDBRANCH  10  12
ENDBRANCH   9  10
ENDBRANCH   6   9
BRANCH   3  16
ATOM     16  C   UNN dAMED      -3.511   2.111  -0.396  0.00  0.00     0.233 C 
ATOM     17  O   UNN dAMED      -3.584   2.891  -1.518  0.00  0.00    -0.213 OA
ENDBRANCH   3  16
TORSDOF 5
