REMARK  0 active torsions:
REMARK  status: ('A' for Active; 'I' for Inactive)
ROOT
ATOM      1  O   UNN dAMED       4.418   2.487   0.627  0.00  0.00    -0.236 OA
ATOM      2  O   UNN dAMED       2.451   1.298   0.572  0.00  0.00    -0.238 OA
ATOM      3  N   UNN dAMED       4.060   0.635  -0.759  0.00  0.00    -0.220 N 
ATOM      4  H   UNN dAMED       4.935   0.521  -1.255  0.00  0.00     0.194 HD
ATOM      5  N   UNN dAMED      -1.912  -0.993   0.275  0.00  0.00    -0.246 NA
ATOM      6  N   UNN dAMED       3.021  -0.205  -1.002  0.00  0.00    -0.143 NA
ATOM      7  C   UNN dAMED      -4.022   0.840   0.032  0.00  0.00     0.002 A 
ATOM      8  C   UNN dAMED      -5.078   1.750  -0.005  0.00  0.00     0.000 A 
ATOM      9  C   UNN dAMED      -2.687   1.267   0.032  0.00  0.00     0.018 A 
ATOM     10  C   UNN dAMED      -4.815   3.115  -0.049  0.00  0.00     0.000 A 
ATOM     11  C   UNN dAMED      -2.452   2.647  -0.008  0.00  0.00     0.002 A 
ATOM     12  C   UNN dAMED      -1.579   0.307   0.071  0.00  0.00     0.081 A 
ATOM     13  C   UNN dAMED      -0.260   0.708  -0.089  0.00  0.00     0.023 A 
ATOM     14  C   UNN dAMED      -3.500   3.565  -0.051  0.00  0.00     0.000 A 
ATOM     15  C   UNN dAMED       0.745  -0.250  -0.017  0.00  0.00     0.046 A 
ATOM     16  C   UNN dAMED       0.422  -1.602   0.187  0.00  0.00     0.021 A 
ATOM     17  C   UNN dAMED      -1.302  -3.249   0.516  0.00  0.00     0.019 A 
ATOM     18  C   UNN dAMED      -0.355  -4.267   0.576  0.00  0.00     0.002 A 
ATOM     19  C   UNN dAMED      -0.943  -1.922   0.325  0.00  0.00     0.081 A 
ATOM     20  C   UNN dAMED       0.991  -3.958   0.440  0.00  0.00     0.000 A 
ATOM     21  C   UNN dAMED       1.376  -2.634   0.250  0.00  0.00     0.002 A 
ATOM     22  C   UNN dAMED       2.111   0.228  -0.191  0.00  0.00     0.205 A 
ATOM     23  C   UNN dAMED       3.733   1.576   0.190  0.00  0.00     0.387 A 
ENDROOT
TORSDOF 0
