REMARK  4 active torsions:
REMARK  status: ('A' for Active; 'I' for Inactive)
REMARK    1  A    between atoms: C_3  and  N_20 
REMARK    2  A    between atoms: C_4  and  O_21 
REMARK    3  A    between atoms: C_8  and  C_18 
REMARK       I    between atoms: C_18  and  N_20 
REMARK    4  A    between atoms: O_21  and  C_22 
ROOT
ATOM      1  C   UNN dAMED      -0.134  -0.337  -0.101  0.00  0.00     0.282 C 
ATOM      2  O   UNN dAMED       0.431  -1.403  -0.329  0.00  0.00    -0.265 OA
ATOM      3  N   UNN dAMED       0.453   0.841   0.158  0.00  0.00    -0.208 NA
ENDROOT
BRANCH   1   4
ATOM      4  C   UNN dAMED      -1.616  -0.323  -0.217  0.00  0.00     0.097 A 
ATOM      5  C   UNN dAMED      -2.305  -0.665   0.960  0.00  0.00     0.008 A 
ATOM      6  C   UNN dAMED      -3.689  -0.602   0.997  0.00  0.00     0.000 A 
ATOM      7  C   UNN dAMED      -4.382  -0.233  -0.166  0.00  0.00     0.003 A 
ATOM      8  C   UNN dAMED      -4.389  -0.876   2.172  0.00  0.00     0.000 A 
ATOM      9  C   UNN dAMED      -5.774  -0.152  -0.141  0.00  0.00     0.000 A 
ATOM     10  C   UNN dAMED      -3.661   0.065  -1.331  0.00  0.00     0.042 A 
ATOM     11  C   UNN dAMED      -6.470  -0.421   1.036  0.00  0.00     0.000 A 
ATOM     12  C   UNN dAMED      -5.779  -0.779   2.192  0.00  0.00     0.000 A 
ATOM     13  C   UNN dAMED      -2.257   0.046  -1.424  0.00  0.00     0.200 A 
ATOM     14  O   UNN dAMED      -1.659   0.350  -2.511  0.00  0.00    -0.286 OA
ENDBRANCH   1   4
BRANCH   3  15
ATOM     15  C   UNN dAMED       0.170   1.330   1.385  0.00  0.00     0.085 A 
ATOM     16  C   UNN dAMED       0.694   0.764   2.557  0.00  0.00     0.021 A 
ATOM     17  C   UNN dAMED       0.330   1.236   3.817  0.00  0.00     0.026 A 
ATOM     18  C   UNN dAMED      -0.555   2.300   3.908  0.00  0.00     0.094 A 
ATOM     19  C   UNN dAMED      -1.057   2.920   2.773  0.00  0.00     0.026 A 
ATOM     20  C   UNN dAMED      -0.686   2.435   1.522  0.00  0.00     0.021 A 
BRANCH  18  21
ATOM     21  O   UNN dAMED      -0.918   2.764   5.135  0.00  0.00    -0.331 OA
BRANCH  21  22
ATOM     22  C   UNN dAMED      -1.290   4.092   4.915  0.00  0.00     0.149 C 
ATOM     23  C   UNN dAMED      -0.726   4.841   3.703  0.00  0.00     0.035 C 
ENDBRANCH  21  22
ENDBRANCH  18  21
ENDBRANCH   3  15
TORSDOF 4
