REMARK  0 active torsions:
REMARK  status: ('A' for Active; 'I' for Inactive)
ROOT
ATOM      1  O   UNN dAMED      -1.402  -2.509  -1.312  0.00  0.00    -0.061 OA
ATOM      2  N   UNN dAMED      -0.697  -1.565  -0.817  0.00  0.00    -0.102 N 
ATOM      3  N   UNN dAMED       0.574  -1.670  -0.787  0.00  0.00    -0.142 NA
ATOM      4  C   UNN dAMED       1.463  -0.718  -0.275  0.00  0.00     0.101 A 
ATOM      5  C   UNN dAMED       2.519  -1.149   0.529  0.00  0.00     0.035 A 
ATOM      6  C   UNN dAMED       3.497  -0.254   0.964  0.00  0.00     0.072 A 
ATOM      7  C   UNN dAMED       3.441   1.081   0.574  0.00  0.00     0.014 A 
ATOM      8  C   UNN dAMED       1.440   0.617  -0.685  0.00  0.00     0.002 A 
ATOM      9  C   UNN dAMED       2.409   1.521  -0.249  0.00  0.00    -0.001 A 
ATOM     10  C   UNN dAMED       0.224   1.105  -1.408  0.00  0.00     0.056 C 
ATOM     11  C   UNN dAMED      -1.090   0.885  -0.724  0.00  0.00     0.002 A 
ATOM     12  C   UNN dAMED      -1.430  -0.406  -0.314  0.00  0.00     0.108 A 
ATOM     13  C   UNN dAMED      -2.592  -0.625   0.429  0.00  0.00     0.035 A 
ATOM     14  C   UNN dAMED      -3.387   0.458   0.798  0.00  0.00     0.072 A 
ATOM     15  C   UNN dAMED      -3.037   1.748   0.404  0.00  0.00     0.014 A 
ATOM     16  C   UNN dAMED      -1.883   1.965  -0.348  0.00  0.00    -0.001 A 
ATOM     17  N   UNN dAMED      -4.627   0.233   1.459  0.00  0.00    -0.101 NA
ATOM     18  N   UNN dAMED       4.579  -0.718   1.763  0.00  0.00    -0.101 NA
ENDROOT
TORSDOF 0
