REMARK  4 active torsions:
REMARK  status: ('A' for Active; 'I' for Inactive)
REMARK    1  A    between atoms: C_2  and  C_9 
REMARK    2  A    between atoms: C_5  and  C_7 
REMARK    3  A    between atoms: C_10  and  C_11 
REMARK    4  A    between atoms: C_10  and  C_13 
ROOT
ATOM      1  N   UNN dAMED      -0.973  -1.460   0.042  0.00  0.00    -0.244 NA
ATOM      2  C   UNN dAMED      -0.108  -0.469   0.367  0.00  0.00     0.081 A 
ATOM      3  C   UNN dAMED      -0.516   0.826   0.662  0.00  0.00     0.019 A 
ATOM      4  C   UNN dAMED      -1.876   1.117   0.615  0.00  0.00    -0.001 A 
ATOM      5  C   UNN dAMED      -2.782   0.119   0.287  0.00  0.00    -0.003 A 
ATOM      6  C   UNN dAMED      -2.286  -1.142   0.007  0.00  0.00     0.095 A 
ENDROOT
BRANCH   2   7
ATOM      7  C   UNN dAMED       1.363  -0.798   0.456  0.00  0.00     0.011 C 
ATOM      8  C   UNN dAMED       2.121  -0.860  -0.645  0.00  0.00    -0.043 C 
BRANCH   8   9
ATOM      9  C   UNN dAMED       3.139  -1.202   0.434  0.00  0.00     0.022 C 
ATOM     10  C   UNN dAMED       4.473  -1.853   0.053  0.00  0.00     0.005 C 
ENDBRANCH   8   9
BRANCH   8  11
ATOM     11  C   UNN dAMED       2.250  -0.751  -2.112  0.00  0.00     0.022 C 
ATOM     12  C   UNN dAMED       1.339   0.206  -2.890  0.00  0.00     0.005 C 
ENDBRANCH   8  11
ENDBRANCH   2   7
BRANCH   5  13
ATOM     13  C   UNN dAMED      -4.251   0.418   0.168  0.00  0.00     0.028 C 
ATOM     14  C   UNN dAMED      -4.812   0.991  -1.139  0.00  0.00     0.005 C 
ENDBRANCH   5  13
TORSDOF 4
