REMARK  3 active torsions:
REMARK  status: ('A' for Active; 'I' for Inactive)
REMARK    1  A    between atoms: C_2  and  C_5 
REMARK    2  A    between atoms: C_9  and  C_10 
REMARK    3  A    between atoms: C_10  and  C_13 
ROOT
ATOM      1  C   UNN dAMED      -0.083  -0.247  -0.154  0.00  0.00    -0.060 C 
ATOM      2  C   UNN dAMED       1.062  -0.269   0.208  0.00  0.00    -0.057 C 
ENDROOT
BRANCH   1   3
ATOM      3  C   UNN dAMED      -1.483  -0.107  -0.362  0.00  0.00     0.061 A 
ATOM      4  C   UNN dAMED      -1.981   1.094  -0.851  0.00  0.00     0.011 A 
ATOM      5  C   UNN dAMED      -3.340   1.367  -0.752  0.00  0.00     0.015 A 
ATOM      6  C   UNN dAMED      -4.161   0.420  -0.152  0.00  0.00     0.059 A 
ATOM      7  N   UNN dAMED      -3.719  -0.781   0.291  0.00  0.00    -0.248 NA
ATOM      8  C   UNN dAMED      -5.532   0.867   0.273  0.00  0.00     0.052 C 
ATOM      9  C   UNN dAMED      -2.379  -1.003   0.200  0.00  0.00     0.107 A 
ENDBRANCH   1   3
BRANCH   2  10
ATOM     10  C   UNN dAMED       2.393  -0.230   0.805  0.00  0.00     0.179 C 
ATOM     11  C   UNN dAMED       2.259   0.101   2.296  0.00  0.00     0.046 C 
ATOM     12  O   UNN dAMED       2.979  -1.391   0.671  0.00  0.00    -0.213 OA
BRANCH  10  13
ATOM     13  C   UNN dAMED       3.261   0.821   0.149  0.00  0.00     0.037 C 
ATOM     14  C   UNN dAMED       2.884   0.810  -1.656  0.00  0.00     0.003 C 
ATOM     15  C   UNN dAMED       2.884   0.810  -1.657  0.00  0.00     0.003 C 
ATOM     16  C   UNN dAMED       2.884   0.810  -1.654  0.00  0.00     0.003 C 
ENDBRANCH  10  13
ENDBRANCH   2  10
TORSDOF 3
