REMARK  9 active torsions:
REMARK  status: ('A' for Active; 'I' for Inactive)
REMARK    1  A    between atoms: C_3  and  P_16 
REMARK    2  A    between atoms: O_11  and  C_12 
REMARK    3  A    between atoms: O_11  and  P_16 
REMARK    4  A    between atoms: C_12  and  C_13 
REMARK    5  A    between atoms: C_13  and  C_14 
REMARK    6  A    between atoms: P_16  and  O_17 
REMARK    7  A    between atoms: O_17  and  C_18 
REMARK    8  A    between atoms: C_18  and  C_19 
REMARK    9  A    between atoms: C_19  and  C_20 
ROOT
ATOM      1  O   UNN dAMED       0.407   1.360  -1.782  0.00  0.00    -0.257 OA
ATOM      2  P   UNN dAMED       0.122   0.772  -0.436  0.00  0.00     0.346 P 
ENDROOT
BRANCH   2   3
ATOM      3  C   UNN dAMED       1.247  -0.474   0.101  0.00  0.00     0.116 C 
ATOM      4  C   UNN dAMED       2.577   0.083   0.778  0.00  0.00     0.022 C 
ATOM      5  C   UNN dAMED       3.525   1.090   0.059  0.00  0.00     0.169 C 
ATOM      6  O   UNN dAMED       4.713   1.076   0.354  0.00  0.00    -0.292 OA
ATOM      7  C   UNN dAMED       2.779  -0.235  -0.340  0.00  0.00     0.069 C 
ATOM      8  C   UNN dAMED       3.831  -1.883  -0.405  0.00  0.00     0.008 C 
ATOM      9  C   UNN dAMED       2.775  -0.231  -0.340  0.00  0.00     0.016 C 
ATOM     10  C   UNN dAMED       2.776  -0.232  -0.340  0.00  0.00     0.001 C 
ATOM     11  C   UNN dAMED       2.776  -0.232  -0.340  0.00  0.00     0.001 C 
ATOM     12  C   UNN dAMED       0.646  -1.256   1.268  0.00  0.00     0.017 C 
ENDBRANCH   2   3
BRANCH   2  13
ATOM     13  O   UNN dAMED       0.041   1.828   0.778  0.00  0.00    -0.294 OA
BRANCH  13  14
ATOM     14  C   UNN dAMED      -1.318   2.161   0.841  0.00  0.00     0.152 C 
BRANCH  14  15
ATOM     15  C   UNN dAMED      -1.801   3.497   0.263  0.00  0.00     0.033 C 
BRANCH  15  16
ATOM     16  C   UNN dAMED      -3.273   3.916   0.366  0.00  0.00     0.003 C 
ATOM     17  C   UNN dAMED      -3.848   4.366   1.713  0.00  0.00     0.000 C 
ENDBRANCH  15  16
ENDBRANCH  14  15
ENDBRANCH  13  14
ENDBRANCH   2  13
BRANCH   2  18
ATOM     18  O   UNN dAMED      -1.312   0.038  -0.299  0.00  0.00    -0.294 OA
BRANCH  18  19
ATOM     19  C   UNN dAMED      -1.232  -0.618   0.933  0.00  0.00     0.152 C 
BRANCH  19  20
ATOM     20  C   UNN dAMED      -0.174  -0.218   1.975  0.00  0.00     0.033 C 
BRANCH  20  21
ATOM     21  C   UNN dAMED       0.583   1.111   1.869  0.00  0.00     0.003 C 
ATOM     22  C   UNN dAMED      -0.183   2.435   1.954  0.00  0.00     0.000 C 
ENDBRANCH  20  21
ENDBRANCH  19  20
ENDBRANCH  18  19
ENDBRANCH   2  18
TORSDOF 9
