REMARK  3 active torsions:
REMARK  status: ('A' for Active; 'I' for Inactive)
REMARK    1  A    between atoms: C_17  and  C_26 
REMARK    2  A    between atoms: O_19  and  P_20 
REMARK    3  A    between atoms: O_19  and  C_26 
ROOT
ATOM      1  N   UNN dAMED       4.084  -0.559  -2.283  0.00  0.00    -0.154 NA
ATOM      2  N   UNN dAMED       4.687  -0.738  -1.059  0.00  0.00    -0.231 N 
ATOM      3  O   UNN dAMED      -1.003   0.490   1.987  0.00  0.00    -0.335 OA
ATOM      4  N   UNN dAMED       0.868   0.771   0.428  0.00  0.00    -0.190 NA
ATOM      5  N   UNN dAMED       4.579  -0.580   1.339  0.00  0.00    -0.205 NA
ATOM      6  N   UNN dAMED       2.413   0.208   2.286  0.00  0.00    -0.212 NA
ATOM      7  C   UNN dAMED       4.151  -0.329   0.083  0.00  0.00     0.164 A 
ATOM      8  C   UNN dAMED       2.875   0.152  -0.056  0.00  0.00     0.068 A 
ATOM      9  C   UNN dAMED       2.205   0.270  -1.261  0.00  0.00     0.050 A 
ATOM     10  C   UNN dAMED       2.800  -0.094  -2.456  0.00  0.00     0.172 C 
ATOM     11  C   UNN dAMED       2.054   0.388   1.004  0.00  0.00     0.130 A 
ATOM     12  C   UNN dAMED       0.915   0.634  -0.954  0.00  0.00     0.057 A 
ATOM     13  C   UNN dAMED       3.697  -0.276   2.346  0.00  0.00     0.201 A 
ATOM     14  C   UNN dAMED      -0.181  -0.046   0.955  0.00  0.00     0.219 C 
ATOM     15  C   UNN dAMED      -0.013  -1.574   1.017  0.00  0.00     0.228 C 
ATOM     16  C   UNN dAMED      -0.607  -1.941   2.350  0.00  0.00     0.216 C 
ATOM     17  C   UNN dAMED      -1.163  -0.620   2.856  0.00  0.00     0.180 C 
ATOM     18  N   UNN dAMED       2.172   0.007  -3.727  0.00  0.00    -0.078 NA
ATOM     19  C   UNN dAMED       6.038  -1.273  -1.029  0.00  0.00     0.156 C 
ATOM     20  O   UNN dAMED       0.067  -2.767   3.211  0.00  0.00    -0.218 OA
ATOM     21  O   UNN dAMED      -0.271  -2.359  -0.081  0.00  0.00    -0.216 OA
ENDROOT
BRANCH  17  22
ATOM     22  C   UNN dAMED      -1.694  -0.467   4.287  0.00  0.00     0.188 C 
BRANCH  22  23
ATOM     23  O   UNN dAMED      -2.519   0.608   4.626  0.00  0.00    -0.261 OA
BRANCH  23  24
ATOM     24  P   UNN dAMED      -1.504   1.720   5.297  0.00  0.00     0.423 P 
ATOM     25  O   UNN dAMED      -1.927   1.768   6.761  0.00  0.00    -0.617 OA
ATOM     26  O   UNN dAMED      -0.113   1.139   5.063  0.00  0.00    -0.617 OA
ATOM     27  O   UNN dAMED      -1.791   2.997   4.516  0.00  0.00    -0.617 OA
ENDBRANCH  23  24
ENDBRANCH  22  23
ENDBRANCH  17  22
TORSDOF 3
