REMARK  3 active torsions:
REMARK  status: ('A' for Active; 'I' for Inactive)
REMARK    1  A    between atoms: C_4  and  N_6 
REMARK       I    between atoms: N_6  and  C_7 
REMARK    2  A    between atoms: C_7  and  O_9 
REMARK    3  A    between atoms: O_9  and  C_10 
ROOT
ATOM      1  N   UNN dAMED       0.162  -1.500  -0.005  0.00  0.00    -0.165 NA
ATOM      2  C   UNN dAMED       1.222  -1.363  -0.803  0.00  0.00     0.389 C 
ATOM      3  O   UNN dAMED       1.536  -0.424  -1.529  0.00  0.00    -0.236 OA
ENDROOT
BRANCH   1   4
ATOM      4  C   UNN dAMED      -0.653  -0.397   0.014  0.00  0.00     0.191 A 
ATOM      5  N   UNN dAMED      -1.604  -0.166  -0.968  0.00  0.00    -0.148 NA
ATOM      6  N   UNN dAMED      -2.286   0.944  -0.729  0.00  0.00    -0.035 NA
ATOM      7  S   UNN dAMED      -1.812   1.706   0.688  0.00  0.00     0.007 SA
ATOM      8  C   UNN dAMED      -0.627   0.526   1.038  0.00  0.00     0.090 A 
ENDBRANCH   1   4
BRANCH   2   9
ATOM      9  O   UNN dAMED       2.003  -2.480  -0.733  0.00  0.00    -0.283 OA
BRANCH   9  10
ATOM     10  C   UNN dAMED       1.516  -3.198   0.361  0.00  0.00     0.154 C 
ATOM     11  C   UNN dAMED       2.174  -3.039   1.735  0.00  0.00     0.035 C 
ENDBRANCH   9  10
ENDBRANCH   2   9
TORSDOF 3
