REMARK  0 active torsions:
REMARK  status: ('A' for Active; 'I' for Inactive)
ROOT
ATOM      1  O   UNN dAMED       1.198   1.945   1.544  0.00  0.00    -0.285 OA
ATOM      2  C   UNN dAMED       0.674   1.045   0.806  0.00  0.00     0.215 A 
ATOM      3  C   UNN dAMED      -0.723   0.861   0.770  0.00  0.00     0.066 A 
ATOM      4  C   UNN dAMED      -1.377  -0.123   0.002  0.00  0.00     0.125 A 
ATOM      5  N   UNN dAMED      -2.785  -0.172   0.122  0.00  0.00    -0.225 N 
ATOM      6  C   UNN dAMED      -3.501  -1.129   0.801  0.00  0.00     0.102 A 
ATOM      7  C   UNN dAMED      -4.822  -0.750   0.745  0.00  0.00     0.043 A 
ATOM      8  C   UNN dAMED      -4.800   0.467   0.036  0.00  0.00     0.122 A 
ATOM      9  N   UNN dAMED      -3.570   0.825  -0.346  0.00  0.00    -0.164 NA
ATOM     10  C   UNN dAMED      -0.679  -1.022  -0.829  0.00  0.00     0.215 A 
ATOM     11  O   UNN dAMED      -1.200  -1.946  -1.539  0.00  0.00    -0.285 OA
ATOM     12  C   UNN dAMED       0.713  -0.828  -0.801  0.00  0.00     0.066 A 
ATOM     13  C   UNN dAMED       1.374   0.141  -0.021  0.00  0.00     0.125 A 
ATOM     14  N   UNN dAMED       2.789   0.100  -0.074  0.00  0.00    -0.225 N 
ATOM     15  C   UNN dAMED       3.555  -1.018   0.164  0.00  0.00     0.102 A 
ATOM     16  C   UNN dAMED       4.856  -0.682  -0.123  0.00  0.00     0.043 A 
ATOM     17  C   UNN dAMED       4.780   0.666  -0.525  0.00  0.00     0.122 A 
ATOM     18  N   UNN dAMED       3.529   1.139  -0.529  0.00  0.00    -0.164 NA
ENDROOT
TORSDOF 0
