REMARK  3 active torsions:
REMARK  status: ('A' for Active; 'I' for Inactive)
REMARK    1  A    between atoms: C_4  and  C_20 
REMARK    2  A    between atoms: C_15  and  C_18 
REMARK    3  A    between atoms: C_19  and  C_20 
ROOT
ATOM      1  C   UNN dAMED      -0.166  -1.058  -0.552  0.00  0.00     0.022 C 
ATOM      2  C   UNN dAMED       0.242  -2.287  -0.864  0.00  0.00     0.044 C 
ENDROOT
BRANCH   1   3
ATOM      3  C   UNN dAMED      -1.606  -0.800  -0.203  0.00  0.00     0.082 A 
ATOM      4  N   UNN dAMED      -2.327  -0.025  -1.050  0.00  0.00    -0.246 NA
ATOM      5  C   UNN dAMED      -3.555   0.366  -0.668  0.00  0.00     0.081 A 
ATOM      6  C   UNN dAMED      -4.318   1.185  -1.488  0.00  0.00     0.019 A 
ATOM      7  C   UNN dAMED      -4.103  -0.016   0.570  0.00  0.00     0.018 A 
ATOM      8  C   UNN dAMED      -5.581   1.635  -1.103  0.00  0.00     0.002 A 
ATOM      9  C   UNN dAMED      -6.105   1.259   0.128  0.00  0.00     0.000 A 
ATOM     10  C   UNN dAMED      -5.367   0.428   0.963  0.00  0.00     0.002 A 
ATOM     11  C   UNN dAMED      -3.350  -0.835   1.406  0.00  0.00     0.003 A 
ATOM     12  C   UNN dAMED      -2.078  -1.236   1.023  0.00  0.00     0.019 A 
ENDBRANCH   1   3
BRANCH   2  13
ATOM     13  C   UNN dAMED       1.592  -2.496  -1.490  0.00  0.00     0.199 C 
ATOM     14  O   UNN dAMED       2.443  -1.625  -1.373  0.00  0.00    -0.286 OA
BRANCH  13  15
ATOM     15  C   UNN dAMED       1.687  -3.498  -2.562  0.00  0.00     0.079 A 
ATOM     16  C   UNN dAMED       0.613  -3.648  -3.471  0.00  0.00     0.199 A 
ATOM     17  C   UNN dAMED       0.796  -4.703  -4.384  0.00  0.00     0.043 A 
ATOM     18  O   UNN dAMED      -0.440  -2.927  -3.488  0.00  0.00    -0.286 OA
ATOM     19  C   UNN dAMED       1.918  -5.538  -4.402  0.00  0.00     0.015 A 
ATOM     20  C   UNN dAMED       2.930  -5.331  -3.480  0.00  0.00     0.058 A 
ATOM     21 CL   UNN dAMED       4.306  -6.353  -3.473  0.00  0.00    -0.082 Cl
ATOM     22  C   UNN dAMED       2.823  -4.313  -2.547  0.00  0.00     0.018 A 
ENDBRANCH  13  15
ENDBRANCH   2  13
TORSDOF 3
