REMARK  0 active torsions:
REMARK  status: ('A' for Active; 'I' for Inactive)
REMARK       I    between atoms: C_5  and  N_12 
REMARK       I    between atoms: C_9  and  N_12 
ROOT
ATOM      1  N   UNN dAMED      -0.652  -1.324  -0.468  0.00  0.00    -0.190 N 
ATOM      2  H   UNN dAMED      -0.460  -2.202  -0.935  0.00  0.00     0.184 HD
ATOM      3  O   UNN dAMED      -1.525   2.311   0.907  0.00  0.00    -0.265 OA
ATOM      4  N   UNN dAMED       0.091   0.830   0.189  0.00  0.00    -0.021 NA
ATOM      5  C   UNN dAMED       1.800  -0.547  -1.947  0.00  0.00     0.761 C 
ATOM      6  C   UNN dAMED      -1.962  -1.013  -0.216  0.00  0.00     0.051 A 
ATOM      7  C   UNN dAMED      -2.297   0.192   0.264  0.00  0.00     0.049 A 
ATOM      8  C   UNN dAMED      -1.211   1.196   0.499  0.00  0.00     0.293 A 
ATOM      9  C   UNN dAMED       0.310  -0.359  -0.297  0.00  0.00     0.746 A 
ATOM     10  C   UNN dAMED      -3.042  -2.003  -0.547  0.00  0.00     0.050 C 
ATOM     11  C   UNN dAMED      -3.734   0.560   0.490  0.00  0.00     0.037 C 
ATOM     12  N   UNN dAMED       1.541  -0.706  -0.672  0.00  0.00     0.132 NA
ATOM     13  N   UNN dAMED       1.213   0.345  -2.696  0.00  0.00     0.061 N 
ATOM     14  N   UNN dAMED       2.845  -1.224  -2.477  0.00  0.00    -0.177 N 
ATOM     15  C   UNN dAMED       3.906  -1.725  -1.625  0.00  0.00     0.144 C 
ATOM     16  C   UNN dAMED       2.936  -1.410  -3.913  0.00  0.00     0.144 C 
ENDROOT
TORSDOF 0
