REMARK  0 active torsions:
REMARK  status: ('A' for Active; 'I' for Inactive)
ROOT
ATOM      1  C   UNN dAMED       3.272  -1.874  -0.473  0.00  0.00     0.030 A 
ATOM      2  C   UNN dAMED       3.177  -0.424  -0.084  0.00  0.00    -0.026 A 
ATOM      3  C   UNN dAMED       1.804  -2.347  -0.614  0.00  0.00     0.031 A 
ATOM      4  C   UNN dAMED       0.957  -1.140  -0.298  0.00  0.00    -0.022 A 
ATOM      5  C   UNN dAMED       1.779  -0.058   0.001  0.00  0.00    -0.008 A 
ATOM      6  C   UNN dAMED       4.123   0.477   0.168  0.00  0.00    -0.026 A 
ATOM      7  C   UNN dAMED      -0.415  -0.989  -0.270  0.00  0.00    -0.004 A 
ATOM      8  C   UNN dAMED      -1.244  -2.067  -0.568  0.00  0.00    -0.000 A 
ATOM      9  C   UNN dAMED      -2.625  -1.907  -0.538  0.00  0.00    -0.000 A 
ATOM     10  C   UNN dAMED       3.651   1.881   0.540  0.00  0.00    -0.004 A 
ATOM     11  C   UNN dAMED       1.300   1.183   0.330  0.00  0.00    -0.001 A 
ATOM     12  C   UNN dAMED      -0.957   0.286   0.068  0.00  0.00    -0.000 A 
ATOM     13  C   UNN dAMED      -3.188  -0.676  -0.212  0.00  0.00    -0.000 A 
ATOM     14  C   UNN dAMED       2.352   2.220   0.619  0.00  0.00    -0.000 A 
ATOM     15  C   UNN dAMED      -0.075   1.361   0.365  0.00  0.00    -0.000 A 
ATOM     16  C   UNN dAMED      -2.365   0.434   0.094  0.00  0.00    -0.000 A 
ATOM     17  C   UNN dAMED      -4.577  -0.550  -0.191  0.00  0.00     0.000 A 
ATOM     18  C   UNN dAMED      -2.992   1.649   0.416  0.00  0.00    -0.000 A 
ATOM     19  C   UNN dAMED      -5.172   0.667   0.131  0.00  0.00     0.000 A 
ATOM     20  C   UNN dAMED      -4.380   1.768   0.435  0.00  0.00     0.000 A 
ATOM     21  C   UNN dAMED       5.573   0.105   0.082  0.00  0.00     0.030 C 
ENDROOT
TORSDOF 0
