REMARK  8 active torsions:
REMARK  status: ('A' for Active; 'I' for Inactive)
REMARK    1  A    between atoms: O_1  and  C_2 
REMARK    2  A    between atoms: O_1  and  C_26 
REMARK    3  A    between atoms: C_2  and  C_28 
REMARK    4  A    between atoms: N_4  and  C_28 
REMARK    5  A    between atoms: C_11  and  C_31 
REMARK    6  A    between atoms: N_14  and  C_32 
REMARK    7  A    between atoms: C_21  and  O_33 
REMARK    8  A    between atoms: C_31  and  C_32 
ROOT
ATOM      1  N   UNN dAMED      -5.740   0.643  -0.705  0.00  0.00    -0.131 NA
ATOM      2  N   UNN dAMED      -5.196   0.366  -1.910  0.00  0.00    -0.162 NA
ATOM      3  C   UNN dAMED      -4.857   0.671   0.332  0.00  0.00     0.044 C 
ATOM      4  C   UNN dAMED      -3.635   0.534  -0.253  0.00  0.00     0.047 A 
ATOM      5  C   UNN dAMED      -3.895   0.389  -1.613  0.00  0.00     0.199 A 
ATOM      6  O   UNN dAMED      -2.949   0.152  -2.544  0.00  0.00    -0.254 OA
ATOM      7  C   UNN dAMED      -2.327   0.412   0.229  0.00  0.00    -0.017 A 
ATOM      8  C   UNN dAMED      -1.342   0.185  -0.654  0.00  0.00     0.040 A 
ATOM      9  C   UNN dAMED      -1.638   0.064  -2.118  0.00  0.00     0.297 A 
ATOM     10  O   UNN dAMED      -0.717  -0.126  -2.908  0.00  0.00    -0.259 OA
ATOM     11  C   UNN dAMED      -5.175   0.246   1.733  0.00  0.00     0.046 C 
ATOM     12  C   UNN dAMED      -2.030   0.504   1.697  0.00  0.00     0.031 C 
ENDROOT
BRANCH   8  13
ATOM     13  C   UNN dAMED       0.066   0.018  -0.155  0.00  0.00     0.067 C 
BRANCH  13  14
ATOM     14  C   UNN dAMED       1.258   0.101  -1.114  0.00  0.00     0.255 C 
BRANCH  14  15
ATOM     15  N   UNN dAMED       2.568  -0.365  -0.681  0.00  0.00     0.140 N 
ATOM     16  C   UNN dAMED       2.889   0.146   0.655  0.00  0.00     0.268 C 
ATOM     17  C   UNN dAMED       2.936   1.657   0.916  0.00  0.00     0.112 C 
ATOM     18  N   UNN dAMED       4.001   2.485   0.327  0.00  0.00    -0.247 NA
ATOM     19  C   UNN dAMED       3.618   1.992  -1.005  0.00  0.00     0.112 C 
ATOM     20  C   UNN dAMED       5.329   2.334   0.769  0.00  0.00     0.059 A 
ATOM     21  C   UNN dAMED       3.590   0.487  -1.298  0.00  0.00     0.268 C 
ATOM     22  C   UNN dAMED       5.725   1.142   1.379  0.00  0.00     0.013 A 
ATOM     23  C   UNN dAMED       6.270   3.354   0.619  0.00  0.00     0.104 A 
ATOM     24  C   UNN dAMED       7.037   0.978   1.825  0.00  0.00     0.001 A 
ATOM     25  C   UNN dAMED       7.964   2.006   1.665  0.00  0.00     0.002 A 
ATOM     26  C   UNN dAMED       7.582   3.200   1.059  0.00  0.00     0.025 A 
BRANCH  23  27
ATOM     27  O   UNN dAMED       5.923   4.536   0.031  0.00  0.00    -0.327 OA
ATOM     28  C   UNN dAMED       6.428   5.524   0.879  0.00  0.00     0.181 C 
ENDBRANCH  23  27
ENDBRANCH  14  15
ENDBRANCH  13  14
ENDBRANCH   8  13
BRANCH   1  29
ATOM     29  C   UNN dAMED      -6.868  -0.189  -0.408  0.00  0.00     0.142 C 
BRANCH  29  30
ATOM     30  C   UNN dAMED      -6.923  -1.696  -0.584  0.00  0.00     0.309 C 
ATOM     31  O   UNN dAMED      -8.005  -2.199  -0.860  0.00  0.00    -0.258 OA
BRANCH  30  32
ATOM     32  O   UNN dAMED      -5.840  -2.445  -0.243  0.00  0.00    -0.298 OA
BRANCH  32  33
ATOM     33  C   UNN dAMED      -6.304  -3.763  -0.233  0.00  0.00     0.152 C 
ATOM     34  C   UNN dAMED      -6.426  -4.522   1.092  0.00  0.00     0.035 C 
ENDBRANCH  32  33
ENDBRANCH  30  32
ENDBRANCH  29  30
ENDBRANCH   1  29
TORSDOF 8
