REMARK  3 active torsions:
REMARK  status: ('A' for Active; 'I' for Inactive)
REMARK    1  A    between atoms: C_6  and  C_7 
REMARK    2  A    between atoms: C_7  and  C_8 
REMARK    3  A    between atoms: C_7  and  C_10 
ROOT
ATOM      1  H   UNN dAMED      -1.377   0.551  -1.586  0.00  0.00     0.167 HD
ATOM      2  N   UNN dAMED      -1.553   0.118  -0.689  0.00  0.00    -0.337 N 
ATOM      3  N   UNN dAMED      -1.146  -0.762   1.315  0.00  0.00    -0.226 NA
ATOM      4  C   UNN dAMED      -2.754  -0.364  -0.242  0.00  0.00     0.095 A 
ATOM      5  C   UNN dAMED      -2.475  -0.902   0.998  0.00  0.00     0.119 A 
ATOM      6  C   UNN dAMED      -0.637  -0.125   0.289  0.00  0.00     0.133 A 
ENDROOT
BRANCH   6   7
ATOM      7  C   UNN dAMED       0.839  -0.007   0.064  0.00  0.00    -0.010 C 
BRANCH   7   8
ATOM      8  C   UNN dAMED       1.354   0.009  -1.380  0.00  0.00     0.025 C 
ATOM      9  C   UNN dAMED       2.698   0.664  -1.714  0.00  0.00     0.005 C 
ENDBRANCH   7   8
BRANCH   7  10
ATOM     10  C   UNN dAMED       1.775  -0.501   1.169  0.00  0.00     0.025 C 
ATOM     11  C   UNN dAMED       1.982  -2.007   1.356  0.00  0.00     0.005 C 
ENDBRANCH   7  10
ENDBRANCH   6   7
TORSDOF 3
