REMARK  1 active torsions:
REMARK  status: ('A' for Active; 'I' for Inactive)
REMARK    1  A    between atoms: C_1  and  C_21 
ROOT
ATOM      1  C   UNN dAMED       0.291   2.119   0.291  0.00  0.00     0.067 A 
ATOM      2  C   UNN dAMED      -0.991   1.603   0.078  0.00  0.00     0.024 A 
ATOM      3  C   UNN dAMED       1.383   1.245   0.320  0.00  0.00     0.024 A 
ATOM      4  C   UNN dAMED      -3.660   0.438  -0.442  0.00  0.00     0.267 A 
ATOM      5  C   UNN dAMED      -1.197   0.235  -0.118  0.00  0.00     0.071 A 
ATOM      6  C   UNN dAMED       1.213  -0.129   0.131  0.00  0.00     0.071 A 
ATOM      7  C   UNN dAMED      -4.810  -0.506  -0.675  0.00  0.00     0.066 A 
ATOM      8  C   UNN dAMED      -0.082  -0.611  -0.092  0.00  0.00     0.035 A 
ATOM      9  C   UNN dAMED       3.647  -0.664   0.116  0.00  0.00     0.267 A 
ATOM     10  C   UNN dAMED      -4.308  -1.737  -0.704  0.00  0.00     0.066 A 
ATOM     11  C   UNN dAMED      -2.823  -1.615  -0.489  0.00  0.00     0.267 A 
ATOM     12  C   UNN dAMED       2.256  -2.388   0.238  0.00  0.00     0.267 A 
ATOM     13  C   UNN dAMED       4.489  -1.912   0.170  0.00  0.00     0.066 A 
ATOM     14  C   UNN dAMED       3.655  -2.945   0.240  0.00  0.00     0.066 A 
ATOM     15  O   UNN dAMED       4.186   0.428   0.050  0.00  0.00    -0.267 OA
ATOM     16  N   UNN dAMED       2.315  -1.013   0.161  0.00  0.00    -0.242 N 
ATOM     17  O   UNN dAMED       1.302  -3.146   0.291  0.00  0.00    -0.267 OA
ATOM     18  O   UNN dAMED      -2.131  -2.619  -0.470  0.00  0.00    -0.267 OA
ATOM     19  N   UNN dAMED      -2.493  -0.286  -0.339  0.00  0.00    -0.242 N 
ATOM     20  O   UNN dAMED      -3.868   1.638  -0.374  0.00  0.00    -0.267 OA
ENDROOT
BRANCH   1  21
ATOM     21  C   UNN dAMED       0.491   3.582   0.490  0.00  0.00     0.211 C 
ATOM     22  O   UNN dAMED       0.130   4.341  -0.461  0.00  0.00    -0.644 OA
ATOM     23  O   UNN dAMED       1.004   3.942   1.594  0.00  0.00    -0.644 OA
ENDBRANCH   1  21
TORSDOF 1
