REMARK  4 active torsions:
REMARK  status: ('A' for Active; 'I' for Inactive)
REMARK    1  A    between atoms: C_2  and  C_9 
REMARK    2  A    between atoms: C_9  and  C_11 
REMARK    3  A    between atoms: C_11  and  C_12 
REMARK    4  A    between atoms: C_12  and  C_13 
ROOT
ATOM      1  C   UNN dAMED      -1.619  -1.434  -0.038  0.00  0.00    -0.019 A 
ATOM      2  C   UNN dAMED      -0.712  -0.420  -0.318  0.00  0.00     0.030 A 
ATOM      3  C   UNN dAMED      -2.859  -1.111   0.501  0.00  0.00    -0.004 A 
ATOM      4  C   UNN dAMED      -3.176   0.223   0.758  0.00  0.00    -0.005 A 
ATOM      5  C   UNN dAMED      -1.009   0.914  -0.065  0.00  0.00    -0.002 A 
ATOM      6  C   UNN dAMED      -2.252   1.231   0.476  0.00  0.00    -0.022 A 
ATOM      7  C   UNN dAMED      -1.260  -2.861  -0.337  0.00  0.00     0.031 C 
ATOM      8  C   UNN dAMED      -2.607   2.667   0.733  0.00  0.00     0.031 C 
ENDROOT
BRANCH   2   9
ATOM      9  C   UNN dAMED       0.586  -0.734  -0.911  0.00  0.00     0.173 C 
ATOM     10  O   UNN dAMED       0.755  -1.769  -1.542  0.00  0.00    -0.291 OA
BRANCH   9  11
ATOM     11  C   UNN dAMED       1.551   0.396  -1.113  0.00  0.00     0.080 C 
BRANCH  11  12
ATOM     12  C   UNN dAMED       3.012   0.118  -1.462  0.00  0.00     0.106 C 
BRANCH  12  13
ATOM     13  C   UNN dAMED       3.708   1.068  -2.394  0.00  0.00     0.186 C 
ATOM     14  O   UNN dAMED       4.341   2.024  -1.854  0.00  0.00    -0.647 OA
ATOM     15  O   UNN dAMED       3.451   0.924  -3.626  0.00  0.00    -0.647 OA
ENDBRANCH  12  13
ENDBRANCH  11  12
ENDBRANCH   9  11
ENDBRANCH   2   9
TORSDOF 4
