REMARK  4 active torsions:
REMARK  status: ('A' for Active; 'I' for Inactive)
REMARK    1  A    between atoms: N_2  and  C_22 
REMARK    2  A    between atoms: C_12  and  C_26 
REMARK    3  A    between atoms: C_22  and  C_23 
REMARK    4  A    between atoms: C_22  and  C_26 
ROOT
ATOM      1  C   UNN dAMED      -0.546  -0.758  -0.965  0.00  0.00     0.116 C 
ENDROOT
BRANCH   1   2
ATOM      2  N   UNN dAMED       0.080  -1.875  -1.602  0.00  0.00    -0.239 N 
ATOM      3  C   UNN dAMED       0.872  -2.669  -0.821  0.00  0.00     0.267 C 
ATOM      4  O   UNN dAMED       0.890  -2.826   0.383  0.00  0.00    -0.267 OA
ATOM      5  C   UNN dAMED       1.835  -3.236  -1.775  0.00  0.00     0.061 A 
ATOM      6  C   UNN dAMED       1.623  -2.633  -3.016  0.00  0.00     0.061 A 
ATOM      7  C   UNN dAMED       2.849  -4.149  -1.574  0.00  0.00     0.005 A 
ATOM      8  C   UNN dAMED       2.411  -2.906  -4.113  0.00  0.00     0.005 A 
ATOM      9  C   UNN dAMED       0.529  -1.669  -2.875  0.00  0.00     0.267 C 
ATOM     10  C   UNN dAMED       3.430  -3.843  -3.932  0.00  0.00     0.000 A 
ATOM     11  C   UNN dAMED       3.644  -4.456  -2.682  0.00  0.00     0.000 A 
ATOM     12  O   UNN dAMED       0.224  -0.823  -3.692  0.00  0.00    -0.267 OA
ENDBRANCH   1   2
BRANCH   1  13
ATOM     13  C   UNN dAMED       0.213   0.497  -0.560  0.00  0.00     0.224 C 
ATOM     14  O   UNN dAMED       1.472   0.508  -0.714  0.00  0.00    -0.643 OA
ATOM     15  O   UNN dAMED      -0.498   1.447  -0.112  0.00  0.00    -0.643 OA
ENDBRANCH   1  13
BRANCH   1  16
ATOM     16  C   UNN dAMED      -2.080  -0.670  -0.995  0.00  0.00     0.079 C 
BRANCH  16  17
ATOM     17  C   UNN dAMED      -2.921  -1.894  -0.790  0.00  0.00     0.002 A 
ATOM     18  C   UNN dAMED      -3.345  -2.756  -1.821  0.00  0.00     0.013 A 
ATOM     19  C   UNN dAMED      -3.882  -3.878  -1.186  0.00  0.00     0.056 A 
ATOM     20  C   UNN dAMED      -3.317  -2.712  -3.224  0.00  0.00     0.001 A 
ATOM     21  N   UNN dAMED      -3.765  -3.677   0.174  0.00  0.00    -0.352 N 
ATOM     22  C   UNN dAMED      -4.405  -4.968  -1.888  0.00  0.00     0.017 A 
ATOM     23  C   UNN dAMED      -3.158  -2.475   0.427  0.00  0.00     0.069 A 
ATOM     24  H   UNN dAMED      -4.061  -4.336   0.880  0.00  0.00     0.166 HD
ATOM     25  C   UNN dAMED      -4.369  -4.898  -3.282  0.00  0.00     0.002 A 
ATOM     26  C   UNN dAMED      -3.836  -3.794  -3.940  0.00  0.00     0.000 A 
ENDBRANCH  16  17
ENDBRANCH   1  16
TORSDOF 4
