REMARK  2 active torsions:
REMARK  status: ('A' for Active; 'I' for Inactive)
REMARK    1  A    between atoms: S_2  and  C_10 
REMARK    2  A    between atoms: S_2  and  C_12 
ROOT
ATOM      1  N   UNN dAMED      -2.169  -1.936   0.026  0.00  0.00    -0.224 NA
ATOM      2  N   UNN dAMED       0.070  -1.129  -0.319  0.00  0.00    -0.217 NA
ATOM      3  C   UNN dAMED      -3.972  -0.435   0.256  0.00  0.00     0.019 A 
ATOM      4  C   UNN dAMED      -2.618  -0.675   0.061  0.00  0.00     0.085 A 
ATOM      5  C   UNN dAMED      -4.494   0.857   0.304  0.00  0.00     0.002 A 
ATOM      6  C   UNN dAMED      -1.762   0.428  -0.092  0.00  0.00     0.042 A 
ATOM      7  C   UNN dAMED      -3.651   1.948   0.154  0.00  0.00     0.000 A 
ATOM      8  C   UNN dAMED      -2.292   1.732  -0.044  0.00  0.00     0.004 A 
ATOM      9  C   UNN dAMED      -0.404   0.135  -0.287  0.00  0.00     0.114 A 
ATOM     10  C   UNN dAMED      -0.845  -2.100  -0.162  0.00  0.00     0.200 A 
ENDROOT
BRANCH   9  11
ATOM     11  S   UNN dAMED       0.818   1.429  -0.487  0.00  0.00    -0.068 SA
BRANCH  11  12
ATOM     12  C   UNN dAMED       1.143   1.294  -2.228  0.00  0.00     0.031 A 
ATOM     13  C   UNN dAMED       0.174   1.655  -3.164  0.00  0.00     0.006 A 
ATOM     14  C   UNN dAMED       0.449   1.561  -4.527  0.00  0.00     0.001 A 
ATOM     15  C   UNN dAMED       1.698   1.120  -4.956  0.00  0.00     0.000 A 
ATOM     16  C   UNN dAMED       2.673   0.774  -4.024  0.00  0.00     0.001 A 
ATOM     17  C   UNN dAMED       2.395   0.861  -2.662  0.00  0.00     0.006 A 
ENDBRANCH  11  12
ENDBRANCH   9  11
TORSDOF 2
