REMARK  3 active torsions:
REMARK  status: ('A' for Active; 'I' for Inactive)
REMARK    1  A    between atoms: C_5  and  S_6 
REMARK    2  A    between atoms: S_6  and  C_7 
REMARK    3  A    between atoms: C_9  and  N_19 
ROOT
ATOM      1  C   UNN dAMED       0.072   0.616   0.189  0.00  0.00     0.012 A 
ATOM      2  C   UNN dAMED       1.158   1.476  -0.081  0.00  0.00     0.026 A 
ATOM      3  C   UNN dAMED       0.198  -0.780   0.333  0.00  0.00     0.082 A 
ATOM      4  C   UNN dAMED       2.459   0.984  -0.237  0.00  0.00     0.148 A 
ATOM      5  C   UNN dAMED       2.649  -0.406  -0.103  0.00  0.00     0.152 A 
ATOM      6  C   UNN dAMED       1.513  -1.283   0.193  0.00  0.00     0.140 A 
ATOM      7  N   UNN dAMED       3.750  -1.166  -0.176  0.00  0.00    -0.100 NA
ATOM      8  N   UNN dAMED       1.977  -2.535   0.306  0.00  0.00    -0.101 NA
ATOM      9  O   UNN dAMED       3.338  -2.461   0.079  0.00  0.00    -0.106 OA
ENDROOT
BRANCH   3  10
ATOM     10  S   UNN dAMED      -1.157  -1.831   0.823  0.00  0.00     0.090 S 
ATOM     11  O   UNN dAMED      -2.085  -0.937   1.593  0.00  0.00    -0.247 OA
BRANCH  10  12
ATOM     12  C   UNN dAMED      -1.905  -2.007  -0.804  0.00  0.00     0.060 A 
ATOM     13  C   UNN dAMED      -1.136  -2.272  -1.937  0.00  0.00     0.009 A 
ATOM     14  C   UNN dAMED      -1.748  -2.540  -3.159  0.00  0.00    -0.004 A 
ATOM     15  C   UNN dAMED      -3.138  -2.581  -3.246  0.00  0.00    -0.022 A 
ATOM     16  C   UNN dAMED      -3.914  -2.345  -2.116  0.00  0.00    -0.004 A 
ATOM     17  C   UNN dAMED      -3.796  -2.957  -4.543  0.00  0.00     0.031 C 
ATOM     18  C   UNN dAMED      -3.297  -2.066  -0.899  0.00  0.00     0.009 A 
ENDBRANCH  10  12
ENDBRANCH   3  10
BRANCH   4  19
ATOM     19  N   UNN dAMED       3.563   1.884  -0.453  0.00  0.00    -0.112 N 
ATOM     20  O   UNN dAMED       3.342   2.896  -1.130  0.00  0.00    -0.532 OA
ATOM     21  O   UNN dAMED       4.647   1.604   0.076  0.00  0.00    -0.532 OA
ENDBRANCH   4  19
TORSDOF 3
