REMARK  0 active torsions:
REMARK  status: ('A' for Active; 'I' for Inactive)
ROOT
ATOM      1  1   UNN dAMED       0.554   4.725  -1.773  0.00  0.00    -0.378 OA
ATOM      2  2   UNN dAMED       2.080   7.771  -0.799  0.00  0.00    -0.272 OA
ATOM      3  3   UNN dAMED       3.257   5.783  -0.405  0.00  0.00    -0.228 N 
ATOM      4  4   UNN dAMED       3.839   3.546  -0.012  0.00  0.00    -0.272 OA
ATOM      5  5   UNN dAMED       5.305   5.974  -1.679  0.00  0.00    -0.236 NA
ATOM      6  6   UNN dAMED       5.297   7.053   0.679  0.00  0.00    -0.062 SA
ATOM      7  7   UNN dAMED       0.994   5.795   0.198  0.00  0.00     0.083 C 
ATOM      8  8   UNN dAMED       2.153   6.608  -0.405  0.00  0.00     0.245 C 
ATOM      9  9   UNN dAMED      -0.124   5.605  -0.854  0.00  0.00     0.140 C 
ATOM     10  10  UNN dAMED      -1.278   4.716  -0.355  0.00  0.00     0.036 C 
ATOM     11  11  UNN dAMED       1.562   4.344   0.297  0.00  0.00     0.083 C 
ATOM     12  12  UNN dAMED      -0.654   3.313  -0.455  0.00  0.00     0.036 C 
ATOM     13  13  UNN dAMED       0.798   3.636  -0.850  0.00  0.00     0.140 C 
ATOM     14  14  UNN dAMED       3.035   4.475  -0.042  0.00  0.00     0.245 C 
ATOM     15  15  UNN dAMED       6.785   6.983  -0.162  0.00  0.00     0.072 A 
ATOM     16  16  UNN dAMED       6.595   6.383  -1.390  0.00  0.00     0.127 A 
ATOM     17  17  UNN dAMED       4.541   6.236  -0.637  0.00  0.00     0.182 A 
ATOM     18  18  UNN dAMED       0.520   6.500   1.471  0.00  0.00     0.029 C 
ATOM     19  19  UNN dAMED       1.470   3.595   1.623  0.00  0.00     0.029 C 
ENDROOT
TORSDOF 0
