REMARK  2 active torsions:
REMARK  status: ('A' for Active; 'I' for Inactive)
REMARK    1  A    between atoms: C_6  and  C_7 
REMARK    2  A    between atoms: N_10  and  C_11 
ROOT
ATOM      1  C   UNN dAMED       0.049  -0.847   0.034  0.00  0.00     0.184 C 
ATOM      2  N   UNN dAMED       0.653  -1.056  -1.114  0.00  0.00    -0.127 N 
ATOM      3  N   UNN dAMED       0.545  -1.274   1.182  0.00  0.00    -0.225 NA
ENDROOT
BRANCH   1   4
ATOM      4  C   UNN dAMED      -1.366  -0.478  -0.031  0.00  0.00     0.038 A 
ATOM      5  C   UNN dAMED      -2.266  -1.330  -0.674  0.00  0.00     0.003 A 
ATOM      6  C   UNN dAMED      -3.622  -1.006  -0.713  0.00  0.00    -0.004 A 
ATOM      7  C   UNN dAMED      -4.076   0.161  -0.100  0.00  0.00    -0.022 A 
ATOM      8  C   UNN dAMED      -3.174   1.012   0.542  0.00  0.00    -0.004 A 
ATOM      9  C   UNN dAMED      -5.547   0.484  -0.105  0.00  0.00     0.031 C 
ATOM     10  C   UNN dAMED      -1.815   0.693   0.575  0.00  0.00     0.003 A 
ENDBRANCH   1   4
BRANCH   3  11
ATOM     11  C   UNN dAMED       1.881  -1.284   1.408  0.00  0.00     0.083 A 
ATOM     12  C   UNN dAMED       2.877  -1.216   0.418  0.00  0.00     0.019 A 
ATOM     13  C   UNN dAMED       4.240  -1.269   0.682  0.00  0.00     0.002 A 
ATOM     14  C   UNN dAMED       4.644  -1.412   1.997  0.00  0.00     0.000 A 
ATOM     15  C   UNN dAMED       3.701  -1.503   3.016  0.00  0.00     0.002 A 
ATOM     16  C   UNN dAMED       2.341  -1.450   2.716  0.00  0.00     0.019 A 
ENDBRANCH   3  11
TORSDOF 2
