REMARK  2 active torsions:
REMARK  status: ('A' for Active; 'I' for Inactive)
REMARK    1  A    between atoms: C_3  and  N_21 
REMARK    2  A    between atoms: C_10  and  C_19 
REMARK       I    between atoms: C_19  and  N_21 
ROOT
ATOM      1  C   UNN dAMED      -1.655  -0.828  -0.230  0.00  0.00     0.008 A 
ATOM      2  C   UNN dAMED      -2.982  -0.647  -0.584  0.00  0.00     0.000 A 
ATOM      3  C   UNN dAMED      -1.013   0.113   0.593  0.00  0.00     0.097 A 
ATOM      4  C   UNN dAMED      -3.624  -1.557  -1.422  0.00  0.00     0.000 A 
ATOM      5  C   UNN dAMED      -4.952  -1.350  -1.783  0.00  0.00     0.000 A 
ATOM      6  C   UNN dAMED      -1.656   1.253   1.136  0.00  0.00     0.200 A 
ATOM      7  C   UNN dAMED      -3.669   0.475  -0.096  0.00  0.00     0.003 A 
ATOM      8  C   UNN dAMED      -5.637  -0.234  -1.307  0.00  0.00     0.000 A 
ATOM      9  C   UNN dAMED      -3.003   1.377   0.746  0.00  0.00     0.042 A 
ATOM     10  C   UNN dAMED      -5.000   0.674  -0.463  0.00  0.00     0.000 A 
ATOM     11  O   UNN dAMED      -1.105   2.108   1.907  0.00  0.00    -0.286 OA
ENDROOT
BRANCH   3  12
ATOM     12  C   UNN dAMED       0.408  -0.173   0.892  0.00  0.00     0.282 C 
ATOM     13  O   UNN dAMED       0.673  -0.574   2.023  0.00  0.00    -0.265 OA
ATOM     14  N   UNN dAMED       1.197  -0.062  -0.180  0.00  0.00    -0.208 NA
BRANCH  14  15
ATOM     15  C   UNN dAMED       2.467   0.299   0.081  0.00  0.00     0.082 A 
ATOM     16  C   UNN dAMED       3.415  -0.641   0.516  0.00  0.00    -0.004 A 
ATOM     17  C   UNN dAMED       4.768  -0.319   0.620  0.00  0.00    -0.002 A 
ATOM     18  C   UNN dAMED       2.961  -2.035   0.846  0.00  0.00     0.033 C 
ATOM     19  C   UNN dAMED       5.205   0.952   0.267  0.00  0.00     0.011 A 
ATOM     20  C   UNN dAMED       4.280   1.898  -0.159  0.00  0.00     0.059 A 
ATOM     21 CL   UNN dAMED       4.817   3.464  -0.607  0.00  0.00    -0.082 Cl
ATOM     22  C   UNN dAMED       2.928   1.578  -0.253  0.00  0.00     0.030 A 
ENDBRANCH  14  15
ENDBRANCH   3  12
TORSDOF 2
