REMARK  6 active torsions:
REMARK  status: ('A' for Active; 'I' for Inactive)
REMARK    1  A    between atoms: C_2  and  C_14 
REMARK    2  A    between atoms: C_4  and  C_10 
REMARK    3  A    between atoms: C_7  and  O_9 
REMARK    4  A    between atoms: O_9  and  C_10 
REMARK    5  A    between atoms: C_14  and  O_16 
REMARK    6  A    between atoms: O_16  and  C_17 
ROOT
ATOM      1  N   UNN dAMED       0.511  -0.097  -1.200  0.00  0.00    -0.230 NA
ATOM      2  C   UNN dAMED       1.118  -0.081   0.025  0.00  0.00     0.100 C 
ATOM      3  C   UNN dAMED       0.074  -0.143   0.926  0.00  0.00    -0.000 C 
ATOM      4  C   UNN dAMED      -1.168  -0.055   0.252  0.00  0.00     0.067 C 
ATOM      5  C   UNN dAMED      -0.836   0.010  -1.079  0.00  0.00     0.023 C 
ATOM      6  C   UNN dAMED      -1.738   0.560  -2.143  0.00  0.00     0.044 C 
ATOM      7  C   UNN dAMED       1.017   0.949  -2.016  0.00  0.00     0.099 C 
ATOM      8  C   UNN dAMED       0.238  -0.137   2.414  0.00  0.00     0.032 C 
ENDROOT
BRANCH   2   9
ATOM      9  C   UNN dAMED       2.529  -0.013   0.254  0.00  0.00     0.306 C 
ATOM     10  O   UNN dAMED       3.162   0.972   0.611  0.00  0.00    -0.258 OA
BRANCH   9  11
ATOM     11  O   UNN dAMED       3.087  -1.229   0.025  0.00  0.00    -0.298 OA
BRANCH  11  12
ATOM     12  C   UNN dAMED       2.036  -2.033  -0.422  0.00  0.00     0.152 C 
ATOM     13  C   UNN dAMED       2.123  -2.708  -1.796  0.00  0.00     0.035 C 
ENDBRANCH  11  12
ENDBRANCH   9  11
ENDBRANCH   2   9
BRANCH   4  14
ATOM     14  C   UNN dAMED      -2.491   0.059   0.807  0.00  0.00     0.296 C 
ATOM     15  O   UNN dAMED      -2.970   1.107   1.218  0.00  0.00    -0.259 OA
BRANCH  14  16
ATOM     16  O   UNN dAMED      -3.128  -1.139   0.894  0.00  0.00    -0.298 OA
BRANCH  16  17
ATOM     17  C   UNN dAMED      -3.955  -1.010   2.016  0.00  0.00     0.152 C 
ATOM     18  C   UNN dAMED      -5.055  -2.038   2.308  0.00  0.00     0.035 C 
ENDBRANCH  16  17
ENDBRANCH  14  16
ENDBRANCH   4  14
TORSDOF 6
