REMARK  6 active torsions:
REMARK  status: ('A' for Active; 'I' for Inactive)
REMARK    1  A    between atoms: C_6  and  S_7 
REMARK    2  A    between atoms: S_7  and  C_15 
REMARK    3  A    between atoms: S_8  and  C_9 
REMARK    4  A    between atoms: S_8  and  C_18 
REMARK    5  A    between atoms: C_15  and  C_16 
REMARK    6  A    between atoms: C_17  and  C_18 
ROOT
ATOM      1  C   UNN dAMED      -3.970   2.791  -1.440  0.00  0.00    -0.018 C 
ATOM      2  C   UNN dAMED      -5.254   2.438  -1.426  0.00  0.00    -0.018 C 
ENDROOT
BRANCH   1   3
ATOM      3  C   UNN dAMED      -3.158   2.795  -0.141  0.00  0.00     0.089 C 
BRANCH   3   4
ATOM      4  S   UNN dAMED      -2.856   1.264   0.737  0.00  0.00    -0.090 SA
BRANCH   4   5
ATOM      5  C   UNN dAMED      -4.377   0.500   0.229  0.00  0.00     0.107 A 
ATOM      6  N   UNN dAMED      -4.933   0.916  -0.932  0.00  0.00    -0.238 NA
ATOM      7  C   UNN dAMED      -6.094   0.327  -1.296  0.00  0.00     0.100 A 
ATOM      8  C   UNN dAMED      -6.729  -0.658  -0.558  0.00  0.00     0.021 A 
ATOM      9  C   UNN dAMED      -6.130  -1.062   0.628  0.00  0.00     0.004 A 
ATOM     10  C   UNN dAMED      -4.936  -0.480   1.037  0.00  0.00     0.025 A 
ENDBRANCH   4   5
ENDBRANCH   3   4
ENDBRANCH   1   3
BRANCH   2  11
ATOM     11  C   UNN dAMED      -6.057   2.421  -2.731  0.00  0.00     0.089 C 
BRANCH  11  12
ATOM     12  S   UNN dAMED      -6.447   3.958  -3.561  0.00  0.00    -0.090 SA
BRANCH  12  13
ATOM     13  C   UNN dAMED      -6.550   3.234  -5.182  0.00  0.00     0.107 A 
ATOM     14  C   UNN dAMED      -6.013   1.972  -5.387  0.00  0.00     0.025 A 
ATOM     15  C   UNN dAMED      -6.102   1.422  -6.661  0.00  0.00     0.004 A 
ATOM     16  C   UNN dAMED      -6.715   2.135  -7.683  0.00  0.00     0.021 A 
ATOM     17  C   UNN dAMED      -7.222   3.387  -7.380  0.00  0.00     0.100 A 
ATOM     18  N   UNN dAMED      -7.154   3.954  -6.155  0.00  0.00    -0.238 NA
ENDBRANCH  12  13
ENDBRANCH  11  12
ENDBRANCH   2  11
TORSDOF 6
