REMARK  0 active torsions:
REMARK  status: ('A' for Active; 'I' for Inactive)
ROOT
ATOM      1  C   UNN dAMED      -7.206   0.666   0.670  0.00  0.00     0.070 C 
ATOM      2  C   UNN dAMED      -7.228   0.667  -0.846  0.00  0.00     0.013 C 
ATOM      3  C   UNN dAMED      -5.944   1.195  -1.459  0.00  0.00     0.027 C 
ATOM      4  C   UNN dAMED      -4.665   0.777  -0.790  0.00  0.00    -0.020 A 
ATOM      5  C   UNN dAMED      -4.651   0.371   0.560  0.00  0.00     0.030 A 
ATOM      6  C   UNN dAMED      -5.915   0.237   1.309  0.00  0.00     0.173 C 
ATOM      7  C   UNN dAMED      -3.468   0.897  -1.499  0.00  0.00    -0.009 A 
ATOM      8  C   UNN dAMED      -2.291   0.612  -0.836  0.00  0.00    -0.026 A 
ATOM      9  C   UNN dAMED      -2.284   0.196   0.489  0.00  0.00    -0.026 A 
ATOM     10  C   UNN dAMED      -3.455   0.052   1.207  0.00  0.00    -0.002 A 
ATOM     11  C   UNN dAMED      -0.950   0.332  -1.432  0.00  0.00     0.027 A 
ATOM     12  C   UNN dAMED      -0.940  -0.372   0.807  0.00  0.00     0.027 A 
ATOM     13  C   UNN dAMED       0.034  -0.262  -0.394  0.00  0.00     0.016 A 
ATOM     14  C   UNN dAMED       1.015   0.312  -1.448  0.00  0.00     0.027 A 
ATOM     15  C   UNN dAMED       2.376   0.539  -0.878  0.00  0.00    -0.026 A 
ATOM     16  C   UNN dAMED       2.384   0.111   0.443  0.00  0.00    -0.026 A 
ATOM     17  C   UNN dAMED       1.027  -0.411   0.787  0.00  0.00     0.027 A 
ATOM     18  C   UNN dAMED       3.544   0.841  -1.549  0.00  0.00    -0.009 A 
ATOM     19  C   UNN dAMED       4.747   0.722  -0.850  0.00  0.00    -0.020 A 
ATOM     20  C   UNN dAMED       4.748   0.302   0.496  0.00  0.00     0.030 A 
ATOM     21  C   UNN dAMED       3.559  -0.030   1.151  0.00  0.00    -0.002 A 
ATOM     22  C   UNN dAMED       6.017   1.163  -1.522  0.00  0.00     0.027 C 
ATOM     23  C   UNN dAMED       7.311   0.640  -0.926  0.00  0.00     0.013 C 
ATOM     24  C   UNN dAMED       7.301   0.619   0.591  0.00  0.00     0.070 C 
ATOM     25  C   UNN dAMED       6.019   0.171   1.234  0.00  0.00     0.173 C 
ATOM     26  O   UNN dAMED      -5.925  -0.051   2.498  0.00  0.00    -0.291 OA
ATOM     27  O   UNN dAMED       6.041  -0.133   2.419  0.00  0.00    -0.291 OA
ENDROOT
TORSDOF 0
