REMARK  4 active torsions:
REMARK  status: ('A' for Active; 'I' for Inactive)
REMARK    1  A    between atoms: C_1  and  C_8 
REMARK    2  A    between atoms: C_1  and  N_18 
REMARK    3  A    between atoms: C_9  and  N_18 
REMARK    4  A    between atoms: C_13  and  O_20 
ROOT
ATOM      1  N   UNN dAMED       0.997  -1.489  -0.069  0.00  0.00    -0.243 NA
ATOM      2  C   UNN dAMED       0.717   0.900  -0.156  0.00  0.00     0.096 A 
ATOM      3  C   UNN dAMED       1.526  -0.246  -0.059  0.00  0.00     0.099 A 
ATOM      4  C   UNN dAMED       1.313   2.168  -0.142  0.00  0.00     0.044 A 
ATOM      5  C   UNN dAMED       2.925  -0.069   0.051  0.00  0.00     0.021 A 
ATOM      6  C   UNN dAMED       2.688   2.307  -0.037  0.00  0.00     0.096 A 
ATOM      7  C   UNN dAMED       3.750  -1.184   0.148  0.00  0.00     0.003 A 
ATOM      8  C   UNN dAMED       1.831  -2.551   0.026  0.00  0.00     0.099 A 
ATOM      9  C   UNN dAMED       3.204  -2.457   0.138  0.00  0.00     0.021 A 
ATOM     10  C   UNN dAMED       3.503   1.196   0.061  0.00  0.00     0.026 A 
ENDROOT
BRANCH   2  11
ATOM     11  N   UNN dAMED      -0.623   0.818  -0.265  0.00  0.00    -0.264 NA
BRANCH  11  12
ATOM     12  C   UNN dAMED      -1.461   1.862   0.309  0.00  0.00     0.155 C 
BRANCH  12  13
ATOM     13  C   UNN dAMED      -2.929   1.955  -0.023  0.00  0.00     0.041 A 
ATOM     14  C   UNN dAMED      -3.865   1.472   0.912  0.00  0.00     0.194 A 
ATOM     15  C   UNN dAMED      -5.208   1.610   0.520  0.00  0.00     0.042 A 
ATOM     16  O   UNN dAMED      -3.523   0.951   2.023  0.00  0.00    -0.287 OA
ATOM     17  C   UNN dAMED      -5.607   2.188  -0.688  0.00  0.00     0.003 A 
ATOM     18  C   UNN dAMED      -4.647   2.658  -1.571  0.00  0.00    -0.000 A 
ATOM     19  C   UNN dAMED      -3.305   2.542  -1.238  0.00  0.00     0.001 A 
ENDBRANCH  12  13
ENDBRANCH  11  12
ENDBRANCH   2  11
BRANCH   6  20
ATOM     20  O   UNN dAMED       3.242   3.551  -0.034  0.00  0.00    -0.328 OA
ATOM     21  C   UNN dAMED       2.556   4.260  -1.023  0.00  0.00     0.181 C 
ENDBRANCH   6  20
TORSDOF 4
