REMARK  3 active torsions:
REMARK  status: ('A' for Active; 'I' for Inactive)
REMARK    1  A    between atoms: C_5  and  C_7 
REMARK    2  A    between atoms: C_7  and  C_8 
REMARK    3  A    between atoms: C_8  and  C_9 
ROOT
ATOM      1  C   UNN dAMED       0.307  -0.751   0.021  0.00  0.00     0.050 C 
ENDROOT
BRANCH   1   2
ATOM      2  C   UNN dAMED      -1.129  -0.369  -0.203  0.00  0.00     0.118 A 
ATOM      3  N   UNN dAMED      -2.046  -1.190  -0.784  0.00  0.00    -0.157 NA
ATOM      4  N   UNN dAMED      -3.235  -0.616  -0.642  0.00  0.00     0.003 NA
ATOM      5  N   UNN dAMED      -3.049   0.530   0.036  0.00  0.00    -0.278 N 
ATOM      6  H   UNN dAMED      -3.850   1.105   0.262  0.00  0.00     0.184 HD
ATOM      7  C   UNN dAMED      -1.733   0.735   0.344  0.00  0.00     0.107 A 
ENDBRANCH   1   2
BRANCH   1   8
ATOM      8  C   UNN dAMED       0.858  -1.109   1.384  0.00  0.00     0.176 C 
ATOM      9  N   UNN dAMED       0.187  -1.955   2.106  0.00  0.00    -0.090 NA
ATOM     10  O   UNN dAMED       0.782  -2.490   3.214  0.00  0.00    -0.060 OA
BRANCH   8  11
ATOM     11  C   UNN dAMED       2.277  -0.682   1.640  0.00  0.00     0.232 C 
ATOM     12  O   UNN dAMED       2.652  -0.527   2.837  0.00  0.00    -0.643 OA
ATOM     13  O   UNN dAMED       2.908  -0.426   0.575  0.00  0.00    -0.643 OA
ENDBRANCH   8  11
ENDBRANCH   1   8
TORSDOF 3
