REMARK  4 active torsions:
REMARK  status: ('A' for Active; 'I' for Inactive)
REMARK    1  A    between atoms: C_6  and  N_24 
REMARK    2  A    between atoms: C_7  and  C_9 
REMARK       I    between atoms: C_7  and  N_24 
REMARK    3  A    between atoms: C_14  and  C_16 
REMARK       I    between atoms: C_16  and  N_25 
REMARK    4  A    between atoms: C_17  and  N_25 
ROOT
ATOM      1  C   UNN dAMED      -1.257   1.056  -0.559  0.00  0.00     0.058 A 
ATOM      2  C   UNN dAMED      -0.476   1.484   0.517  0.00  0.00     0.005 A 
ATOM      3  C   UNN dAMED      -0.700   0.382  -1.647  0.00  0.00     0.005 A 
ATOM      4  C   UNN dAMED       0.662   0.106  -1.646  0.00  0.00     0.005 A 
ATOM      5  C   UNN dAMED       0.890   1.225   0.510  0.00  0.00     0.005 A 
ATOM      6  C   UNN dAMED       1.444   0.542  -0.573  0.00  0.00     0.058 A 
ENDROOT
BRANCH   1   7
ATOM      7  C   UNN dAMED      -2.691   1.373  -0.566  0.00  0.00     0.279 C 
ATOM      8  O   UNN dAMED      -3.003   2.540  -0.791  0.00  0.00    -0.265 OA
ATOM      9  N   UNN dAMED      -3.460   0.311  -0.301  0.00  0.00    -0.208 NA
BRANCH   9  10
ATOM     10  C   UNN dAMED      -4.781   0.517  -0.474  0.00  0.00     0.085 A 
ATOM     11  C   UNN dAMED      -5.377   0.455  -1.741  0.00  0.00     0.020 A 
ATOM     12  C   UNN dAMED      -6.756   0.582  -1.902  0.00  0.00     0.016 A 
ATOM     13  C   UNN dAMED      -7.571   0.755  -0.788  0.00  0.00     0.070 A 
ATOM     14  C   UNN dAMED      -7.008   0.800   0.482  0.00  0.00     0.016 A 
ATOM     15  N   UNN dAMED      -8.984   0.817  -0.944  0.00  0.00    -0.101 NA
ATOM     16  C   UNN dAMED      -5.627   0.677   0.631  0.00  0.00     0.020 A 
ENDBRANCH   9  10
ENDBRANCH   1   7
BRANCH   6  17
ATOM     17  C   UNN dAMED       2.881   0.243  -0.578  0.00  0.00     0.279 C 
ATOM     18  O   UNN dAMED       3.238  -0.766   0.027  0.00  0.00    -0.265 OA
ATOM     19  N   UNN dAMED       3.575   1.100  -1.330  0.00  0.00    -0.208 NA
BRANCH  19  20
ATOM     20  C   UNN dAMED       4.909   1.183  -1.143  0.00  0.00     0.085 A 
ATOM     21  C   UNN dAMED       5.568   0.952   0.074  0.00  0.00     0.020 A 
ATOM     22  C   UNN dAMED       6.940   1.161   0.222  0.00  0.00     0.016 A 
ATOM     23  C   UNN dAMED       7.682   1.650  -0.846  0.00  0.00     0.070 A 
ATOM     24  C   UNN dAMED       7.060   1.905  -2.061  0.00  0.00     0.016 A 
ATOM     25  N   UNN dAMED       9.062   1.954  -0.676  0.00  0.00    -0.101 NA
ATOM     26  C   UNN dAMED       5.693   1.667  -2.199  0.00  0.00     0.020 A 
ENDBRANCH  19  20
ENDBRANCH   6  17
TORSDOF 4
