REMARK  1 active torsions:
REMARK  status: ('A' for Active; 'I' for Inactive)
REMARK    1  A    between atoms: C_5  and  C_16 
ROOT
ATOM      1  N   UNN dAMED      -3.251   2.514  -0.419  0.00  0.00    -0.208 NA
ATOM      2  C   UNN dAMED      -2.693   2.259   0.796  0.00  0.00     0.201 A 
ATOM      3  C   UNN dAMED      -2.782   1.811  -1.474  0.00  0.00     0.173 A 
ATOM      4  N   UNN dAMED      -1.744   1.363   1.110  0.00  0.00    -0.210 NA
ATOM      5  C   UNN dAMED       2.120  -1.411   2.214  0.00  0.00     0.056 C 
ATOM      6  C   UNN dAMED       0.936  -1.214   1.563  0.00  0.00     0.018 C 
ATOM      7  C   UNN dAMED      -1.309   0.699   0.013  0.00  0.00     0.151 A 
ATOM      8  C   UNN dAMED       2.940  -0.217   1.715  0.00  0.00     0.159 C 
ATOM      9  C   UNN dAMED      -1.791   0.858  -1.282  0.00  0.00     0.142 A 
ATOM     10  C   UNN dAMED       2.210   0.563   0.576  0.00  0.00     0.167 C 
ATOM     11  N   UNN dAMED      -0.430  -0.348  -0.097  0.00  0.00    -0.174 NA
ATOM     12  C   UNN dAMED       0.855  -0.096   0.501  0.00  0.00     0.075 C 
ATOM     13  C   UNN dAMED      -0.325  -0.663  -1.423  0.00  0.00     0.158 C 
ATOM     14  N   UNN dAMED      -1.236  -0.038  -2.154  0.00  0.00    -0.226 NA
ATOM     15  N   UNN dAMED      -3.447   1.842  -2.735  0.00  0.00    -0.078 NA
ATOM     16  O   UNN dAMED       4.307  -0.431   1.618  0.00  0.00    -0.188 OA
ATOM     17  O   UNN dAMED       2.370   1.916   0.202  0.00  0.00    -0.187 OA
ENDROOT
BRANCH   5  18
ATOM     18  C   UNN dAMED       1.306  -2.596   2.710  0.00  0.00     0.158 C 
ATOM     19  O   UNN dAMED       0.023  -2.927   2.333  0.00  0.00    -0.188 OA
ENDBRANCH   5  18
TORSDOF 1
