REMARK  4 active torsions:
REMARK  status: ('A' for Active; 'I' for Inactive)
REMARK    1  A    between atoms: C_3  and  O_8 
REMARK    2  A    between atoms: C_4  and  C_12 
REMARK    3  A    between atoms: O_8  and  C_9 
REMARK    4  A    between atoms: C_12  and  C_13 
ROOT
ATOM      1  C   UNN dAMED      -0.514  -3.269   0.613  0.00  0.00     0.051 C 
ATOM      2  C   UNN dAMED      -1.931  -2.855   0.227  0.00  0.00     0.014 C 
ATOM      3  C   UNN dAMED       0.606  -2.587  -0.176  0.00  0.00     0.070 C 
ATOM      4  C   UNN dAMED       0.409  -1.091  -0.465  0.00  0.00     0.028 C 
ATOM      5  C   UNN dAMED      -2.142  -1.352   0.054  0.00  0.00     0.054 C 
ATOM      6  C   UNN dAMED      -1.027  -0.582  -0.666  0.00  0.00     0.107 C 
ATOM      7  O   UNN dAMED      -1.223   0.738  -0.960  0.00  0.00    -0.195 OA
ENDROOT
BRANCH   3   8
ATOM      8  O   UNN dAMED       1.386  -3.368  -1.074  0.00  0.00    -0.338 OA
BRANCH   8   9
ATOM      9  C   UNN dAMED       0.499  -2.414  -1.645  0.00  0.00     0.121 C 
ATOM     10  C   UNN dAMED       0.963  -0.966  -1.834  0.00  0.00     0.033 C 
ATOM     11  C   UNN dAMED      -0.784  -2.890  -2.334  0.00  0.00     0.033 C 
ENDBRANCH   8   9
ENDBRANCH   3   8
BRANCH   4  12
ATOM     12  C   UNN dAMED       1.578  -0.277  -1.029  0.00  0.00     0.127 C 
BRANCH  12  13
ATOM     13  C   UNN dAMED       2.963  -0.455  -0.465  0.00  0.00     0.190 C 
ATOM     14  O   UNN dAMED       3.065  -0.442   0.798  0.00  0.00    -0.647 OA
ATOM     15  O   UNN dAMED       3.897  -0.620  -1.305  0.00  0.00    -0.647 OA
ENDBRANCH  12  13
ENDBRANCH   4  12
TORSDOF 4
