REMARK  2 active torsions:
REMARK  status: ('A' for Active; 'I' for Inactive)
REMARK       I    between atoms: C_10  and  N_19 
REMARK       I    between atoms: C_10  and  N_20 
REMARK    1  A    between atoms: C_12  and  N_20 
REMARK    2  A    between atoms: C_16  and  N_21 
ROOT
ATOM      1  C   UNN dAMED      -6.942  -0.295   0.589  0.00  0.00     0.002 A 
ATOM      2  C   UNN dAMED      -6.979  -1.020  -0.595  0.00  0.00     0.001 A 
ATOM      3  C   UNN dAMED      -5.739   0.230   1.063  0.00  0.00     0.020 A 
ATOM      4  C   UNN dAMED      -5.819  -1.247  -1.335  0.00  0.00     0.008 A 
ATOM      5  C   UNN dAMED      -4.554   0.031   0.327  0.00  0.00     0.090 A 
ATOM      6  C   UNN dAMED      -4.617  -0.707  -0.855  0.00  0.00     0.050 A 
ATOM      7  S   UNN dAMED      -3.045  -0.806  -1.546  0.00  0.00    -0.047 SA
ATOM      8  N   UNN dAMED      -3.293   0.516   0.646  0.00  0.00    -0.221 NA
ATOM      9  C   UNN dAMED      -2.428   0.201  -0.295  0.00  0.00     0.199 A 
ATOM     10  C   UNN dAMED      -0.848   1.662  -1.021  0.00  0.00     0.370 C 
ATOM     11  O   UNN dAMED      -1.534   2.684  -1.020  0.00  0.00    -0.242 OA
ATOM     12  N   UNN dAMED      -1.117   0.551  -0.287  0.00  0.00    -0.166 NA
ATOM     13  N   UNN dAMED       0.322   1.454  -1.683  0.00  0.00    -0.191 NA
ENDROOT
BRANCH  13  14
ATOM     14  C   UNN dAMED       0.808   2.436  -2.477  0.00  0.00     0.088 C 
ATOM     15  C   UNN dAMED       0.019   3.280  -3.273  0.00  0.00     0.020 C 
ATOM     16  C   UNN dAMED       0.567   4.314  -4.037  0.00  0.00     0.015 C 
ATOM     17  C   UNN dAMED       1.944   4.497  -4.079  0.00  0.00     0.080 C 
ATOM     18  C   UNN dAMED       2.753   3.583  -3.409  0.00  0.00     0.139 C 
ATOM     19 CL   UNN dAMED       2.539   5.871  -4.929  0.00  0.00    -0.081 Cl
ATOM     20  C   UNN dAMED       2.197   2.569  -2.619  0.00  0.00     0.044 C 
BRANCH  18  21
ATOM     21  N   UNN dAMED       4.195   3.618  -3.518  0.00  0.00    -0.113 N 
ATOM     22  O   UNN dAMED       4.846   3.534  -2.468  0.00  0.00    -0.532 OA
ATOM     23  O   UNN dAMED       4.678   3.696  -4.655  0.00  0.00    -0.532 OA
ENDBRANCH  18  21
ENDBRANCH  13  14
TORSDOF 2
