REMARK  0 active torsions:
REMARK  status: ('A' for Active; 'I' for Inactive)
ROOT
ATOM      1  N   UNN dAMED      -0.477   0.529   0.357  0.00  0.00    -0.233 N 
ATOM      2  N   UNN dAMED      -0.393   1.715   1.010  0.00  0.00     0.011 NA
ATOM      3  N   UNN dAMED       0.882   2.083   1.056  0.00  0.00    -0.156 NA
ATOM      4  C   UNN dAMED      -4.189  -1.323  -0.244  0.00  0.00     0.000 A 
ATOM      5  C   UNN dAMED      -3.130  -2.053   0.289  0.00  0.00     0.002 A 
ATOM      6  C   UNN dAMED      -4.016   0.019  -0.576  0.00  0.00     0.002 A 
ATOM      7  C   UNN dAMED      -2.779   0.633  -0.376  0.00  0.00     0.019 A 
ATOM      8  C   UNN dAMED      -1.891  -1.443   0.492  0.00  0.00     0.019 A 
ATOM      9  C   UNN dAMED      -1.720  -0.101   0.157  0.00  0.00     0.079 A 
ATOM     10  C   UNN dAMED       1.263  -1.007  -0.720  0.00  0.00     0.021 A 
ATOM     11  C   UNN dAMED       0.784   0.113  -0.034  0.00  0.00     0.098 A 
ATOM     12  C   UNN dAMED       2.645  -1.073  -0.930  0.00  0.00     0.016 A 
ATOM     13  C   UNN dAMED       1.622   1.124   0.427  0.00  0.00     0.117 A 
ATOM     14  C   UNN dAMED       3.501  -0.071  -0.477  0.00  0.00     0.072 A 
ATOM     15  C   UNN dAMED       3.005   1.042   0.208  0.00  0.00     0.036 A 
ATOM     16  N   UNN dAMED       4.900  -0.179  -0.718  0.00  0.00    -0.101 NA
ENDROOT
TORSDOF 0
