REMARK  6 active torsions:
REMARK  status: ('A' for Active; 'I' for Inactive)
REMARK    1  A    between atoms: C_3  and  C_7 
REMARK    2  A    between atoms: C_3  and  C_4 
REMARK    3  A    between atoms: C_7  and  C_12 
REMARK    4  A    between atoms: C_12  and  C_13 
REMARK    5  A    between atoms: C_13  and  C_14 
REMARK    6  A    between atoms: C_14  and  C_15 
ROOT
ATOM      1  C   UNN dAMED      -0.454   2.183   0.168  0.00  0.00     0.233 C 
ATOM      2  O   UNN dAMED       0.603   2.311  -0.421  0.00  0.00    -0.283 OA
ENDROOT
BRANCH   1   3
ATOM      3  C   UNN dAMED      -0.977   3.313   1.013  0.00  0.00     0.212 C 
ATOM      4  O   UNN dAMED      -0.209   3.948   1.716  0.00  0.00    -0.288 OA
BRANCH   3   5
ATOM      5  C   UNN dAMED      -2.434   3.219   1.370  0.00  0.00     0.073 C 
BRANCH   5   6
ATOM      6  C   UNN dAMED      -3.269   2.099   0.730  0.00  0.00     0.008 C 
BRANCH   6   7
ATOM      7  C   UNN dAMED      -4.784   2.026   0.957  0.00  0.00     0.001 C 
BRANCH   7   8
ATOM      8  C   UNN dAMED      -5.751   2.121  -0.228  0.00  0.00     0.000 C 
ATOM      9  C   UNN dAMED      -5.985   0.905  -1.131  0.00  0.00     0.000 C 
ENDBRANCH   7   8
ENDBRANCH   6   7
ENDBRANCH   5   6
ENDBRANCH   3   5
ENDBRANCH   1   3
BRANCH   1  10
ATOM     10  C   UNN dAMED      -1.378   1.032   0.026  0.00  0.00     0.081 A 
ATOM     11  C   UNN dAMED      -2.740   1.355   0.027  0.00  0.00     0.010 A 
ATOM     12  C   UNN dAMED      -3.700   0.355  -0.052  0.00  0.00     0.042 A 
ATOM     13  C   UNN dAMED      -3.365  -0.995  -0.151  0.00  0.00     0.199 A 
ATOM     14  C   UNN dAMED      -1.975  -1.240  -0.155  0.00  0.00     0.084 A 
ATOM     15  O   UNN dAMED      -4.235  -1.921  -0.234  0.00  0.00    -0.286 OA
ATOM     16  C   UNN dAMED      -0.924  -0.296  -0.066  0.00  0.00     0.202 A 
ATOM     17  O   UNN dAMED       0.297  -0.666  -0.074  0.00  0.00    -0.286 OA
ENDBRANCH   1  10
TORSDOF 6
