REMARK  6 active torsions:
REMARK  status: ('A' for Active; 'I' for Inactive)
REMARK    1  A    between atoms: C_1  and  C_12 
REMARK    2  A    between atoms: C_1  and  C_14 
REMARK    3  A    between atoms: C_3  and  C_8 
REMARK    4  A    between atoms: C_5  and  N_9 
REMARK    5  A    between atoms: C_12  and  O_16 
REMARK    6  A    between atoms: C_14  and  O_18 
ROOT
ATOM      1  C   UNN dAMED       1.126  -0.093   0.539  0.00  0.00     0.126 C 
ATOM      2  C   UNN dAMED      -0.035  -0.734   0.343  0.00  0.00     0.012 C 
ENDROOT
BRANCH   2   3
ATOM      3  C   UNN dAMED      -1.131  -0.291  -0.605  0.00  0.00     0.022 A 
ATOM      4  C   UNN dAMED      -1.021  -0.611  -1.958  0.00  0.00     0.002 A 
ATOM      5  C   UNN dAMED      -2.112  -0.454  -2.810  0.00  0.00     0.000 A 
ATOM      6  C   UNN dAMED      -3.331   0.005  -2.313  0.00  0.00     0.002 A 
ATOM      7  C   UNN dAMED      -3.464   0.319  -0.965  0.00  0.00     0.024 A 
ATOM      8  C   UNN dAMED      -2.358   0.172  -0.129  0.00  0.00     0.127 A 
BRANCH   8   9
ATOM      9  N   UNN dAMED      -2.513   0.479   1.277  0.00  0.00    -0.114 N 
ATOM     10  O   UNN dAMED      -3.352   1.337   1.586  0.00  0.00    -0.532 OA
ATOM     11  O   UNN dAMED      -1.799  -0.138   2.078  0.00  0.00    -0.532 OA
ENDBRANCH   8   9
ENDBRANCH   2   3
BRANCH   1  12
ATOM     12  C   UNN dAMED       2.240  -0.889   1.090  0.00  0.00     0.301 C 
ATOM     13  O   UNN dAMED       2.174  -2.093   1.284  0.00  0.00    -0.259 OA
BRANCH  12  14
ATOM     14  O   UNN dAMED       3.323  -0.123   1.343  0.00  0.00    -0.296 OA
ATOM     15  C   UNN dAMED       2.915   1.186   1.079  0.00  0.00     0.185 C 
ENDBRANCH  12  14
ENDBRANCH   1  12
BRANCH   1  16
ATOM     16  C   UNN dAMED       1.201   1.372   0.400  0.00  0.00     0.301 C 
ATOM     17  O   UNN dAMED       1.631   1.963  -0.574  0.00  0.00    -0.259 OA
BRANCH  16  18
ATOM     18  O   UNN dAMED       0.762   1.946   1.542  0.00  0.00    -0.296 OA
ATOM     19  C   UNN dAMED       1.365   3.206   1.555  0.00  0.00     0.185 C 
ENDBRANCH  16  18
ENDBRANCH   1  16
TORSDOF 6
