REMARK  0 active torsions:
REMARK  status: ('A' for Active; 'I' for Inactive)
ROOT
ATOM      1  O   UNN dAMED       0.607  -1.800  -0.329  0.00  0.00    -0.286 OA
ATOM      2  O   UNN dAMED       3.611   2.591  -0.325  0.00  0.00    -0.287 OA
ATOM      3  N   UNN dAMED      -1.667  -0.282   0.100  0.00  0.00    -0.233 N 
ATOM      4  N   UNN dAMED      -3.151  -1.766  -0.434  0.00  0.00    -0.157 NA
ATOM      5  N   UNN dAMED      -2.407  -0.777  -0.916  0.00  0.00     0.011 NA
ATOM      6  C   UNN dAMED      -3.368  -2.799   1.853  0.00  0.00     0.022 A 
ATOM      7  C   UNN dAMED      -2.877  -2.708   3.159  0.00  0.00     0.002 A 
ATOM      8  C   UNN dAMED      -2.874  -1.898   0.900  0.00  0.00     0.116 A 
ATOM      9  C   UNN dAMED      -1.931  -0.949   1.275  0.00  0.00     0.098 A 
ATOM     10  C   UNN dAMED      -1.928  -1.748   3.508  0.00  0.00     0.002 A 
ATOM     11  C   UNN dAMED      -1.427  -0.836   2.574  0.00  0.00     0.020 A 
ATOM     12  C   UNN dAMED      -0.769   0.771  -0.095  0.00  0.00     0.082 A 
ATOM     13  C   UNN dAMED      -1.324   2.053  -0.137  0.00  0.00     0.019 A 
ATOM     14  C   UNN dAMED       0.619   0.572  -0.163  0.00  0.00     0.059 A 
ATOM     15  C   UNN dAMED       1.254  -0.774  -0.164  0.00  0.00     0.197 C 
ATOM     16  C   UNN dAMED       2.714  -0.872  -0.006  0.00  0.00     0.042 A 
ATOM     17  C   UNN dAMED       3.297  -2.128   0.166  0.00  0.00     0.003 A 
ATOM     18  C   UNN dAMED       4.678  -2.239   0.314  0.00  0.00     0.000 A 
ATOM     19  C   UNN dAMED      -0.495   3.162  -0.253  0.00  0.00     0.002 A 
ATOM     20  C   UNN dAMED       1.437   1.705  -0.236  0.00  0.00     0.043 A 
ATOM     21  C   UNN dAMED       3.512   0.267  -0.039  0.00  0.00     0.042 A 
ATOM     22  C   UNN dAMED       5.476  -1.098   0.279  0.00  0.00     0.000 A 
ATOM     23  C   UNN dAMED       0.884   2.989  -0.288  0.00  0.00     0.003 A 
ATOM     24  C   UNN dAMED       2.908   1.595  -0.220  0.00  0.00     0.196 C 
ATOM     25  C   UNN dAMED       4.895   0.156   0.100  0.00  0.00     0.003 A 
ENDROOT
TORSDOF 0
