REMARK  0 active torsions:
REMARK  status: ('A' for Active; 'I' for Inactive)
ROOT
ATOM      1  O   UNN dAMED       1.098  -1.134   2.243  0.00  0.00    -0.328 OA
ATOM      2  O   UNN dAMED       0.192   2.763  -0.261  0.00  0.00    -0.299 OA
ATOM      3  O   UNN dAMED       2.045   4.045  -0.046  0.00  0.00    -0.257 OA
ATOM      4  C   UNN dAMED       2.474  -2.012   0.442  0.00  0.00     0.158 C 
ATOM      5  C   UNN dAMED       1.056  -1.987   1.106  0.00  0.00     0.263 C 
ATOM      6  C   UNN dAMED       2.975  -0.671  -0.113  0.00  0.00     0.003 C 
ATOM      7  C   UNN dAMED       1.945   0.418  -0.431  0.00  0.00     0.011 C 
ATOM      8  C   UNN dAMED       0.166  -1.198   0.128  0.00  0.00     0.075 C 
ATOM      9  C   UNN dAMED       2.432   1.825  -0.764  0.00  0.00     0.190 C 
ATOM     10  C   UNN dAMED       0.540   0.299   0.184  0.00  0.00     0.079 C 
ATOM     11  C   UNN dAMED       0.583   0.065   1.719  0.00  0.00     0.152 C 
ATOM     12  C   UNN dAMED      -1.332  -1.629  -0.143  0.00  0.00     0.051 C 
ATOM     13  C   UNN dAMED      -2.373  -0.740  -1.114  0.00  0.00     0.133 C 
ATOM     14  C   UNN dAMED      -3.736  -0.311  -0.516  0.00  0.00     0.148 C 
ATOM     15  C   UNN dAMED       1.538   2.987  -0.388  0.00  0.00     0.321 C 
ATOM     16  C   UNN dAMED      -0.073   1.426  -0.622  0.00  0.00     0.131 C 
ATOM     17  C   UNN dAMED      -2.123   0.030  -0.111  0.00  0.00     0.013 C 
ATOM     18  C   UNN dAMED      -3.683   0.521   0.748  0.00  0.00     0.003 C 
ATOM     19  C   UNN dAMED      -1.497   1.072  -1.032  0.00  0.00     0.031 C 
ATOM     20  C   UNN dAMED      -2.510   0.610   1.444  0.00  0.00     0.025 C 
ATOM     21  O   UNN dAMED      -4.889  -1.026  -0.737  0.00  0.00    -0.189 OA
ATOM     22  O   UNN dAMED      -2.260  -0.908  -2.471  0.00  0.00    -0.193 OA
ATOM     23  C   UNN dAMED      -2.212   0.133  -0.134  0.00  0.00     0.005 C 
ATOM     24  C   UNN dAMED      -2.099  -0.020  -0.113  0.00  0.00     0.007 C 
ATOM     25  O   UNN dAMED       0.571  -3.176   1.371  0.00  0.00    -0.188 OA
ATOM     26  O   UNN dAMED       3.452  -2.874   0.880  0.00  0.00    -0.190 OA
ATOM     27  C   UNN dAMED       4.345  -0.622  -0.801  0.00  0.00     0.033 C 
ATOM     28  O   UNN dAMED       3.445   1.989  -1.673  0.00  0.00    -0.185 OA
ENDROOT
TORSDOF 0
