REMARK  4 active torsions:
REMARK  status: ('A' for Active; 'I' for Inactive)
REMARK    1  A    between atoms: S_1  and  C_16 
REMARK    2  A    between atoms: S_1  and  C_22 
REMARK    3  A    between atoms: S_4  and  C_10 
REMARK    4  A    between atoms: S_4  and  C_17 
ROOT
ATOM      1  O   UNN dAMED       0.011  -0.560   0.736  0.00  0.00    -0.286 OA
ATOM      2  O   UNN dAMED      -0.153   4.538  -0.427  0.00  0.00    -0.287 OA
ATOM      3  C   UNN dAMED      -2.653   0.568   0.391  0.00  0.00     0.033 A 
ATOM      4  C   UNN dAMED      -1.423   1.213   0.152  0.00  0.00     0.048 A 
ATOM      5  C   UNN dAMED      -3.831   1.329   0.405  0.00  0.00     0.007 A 
ATOM      6  C   UNN dAMED      -0.117   0.500   0.139  0.00  0.00     0.197 C 
ATOM      7  C   UNN dAMED       1.063   1.145  -0.498  0.00  0.00     0.048 A 
ATOM      8  C   UNN dAMED       2.214   0.432  -0.888  0.00  0.00     0.033 A 
ATOM      9  C   UNN dAMED       3.309   1.133  -1.414  0.00  0.00     0.007 A 
ATOM     10  C   UNN dAMED      -3.809   2.706   0.220  0.00  0.00     0.001 A 
ATOM     11  C   UNN dAMED      -1.418   2.596  -0.063  0.00  0.00     0.043 A 
ATOM     12  C   UNN dAMED       1.031   2.531  -0.687  0.00  0.00     0.043 A 
ATOM     13  C   UNN dAMED       3.275   2.514  -1.570  0.00  0.00     0.001 A 
ATOM     14  C   UNN dAMED      -2.599   3.340  -0.020  0.00  0.00     0.003 A 
ATOM     15  C   UNN dAMED      -0.173   3.315  -0.374  0.00  0.00     0.196 C 
ATOM     16  C   UNN dAMED       2.130   3.212  -1.215  0.00  0.00     0.003 A 
ENDROOT
BRANCH   3  17
ATOM     17  S   UNN dAMED      -2.874  -1.199   0.582  0.00  0.00    -0.087 SA
BRANCH  17  18
ATOM     18  C   UNN dAMED      -3.538  -1.277   2.228  0.00  0.00     0.029 A 
ATOM     19  C   UNN dAMED      -4.868  -1.657   2.411  0.00  0.00     0.006 A 
ATOM     20  C   UNN dAMED      -5.409  -1.719   3.693  0.00  0.00     0.001 A 
ATOM     21  C   UNN dAMED      -4.621  -1.403   4.796  0.00  0.00     0.000 A 
ATOM     22  C   UNN dAMED      -3.290  -1.033   4.618  0.00  0.00     0.001 A 
ATOM     23  C   UNN dAMED      -2.747  -0.975   3.336  0.00  0.00     0.006 A 
ENDBRANCH  17  18
ENDBRANCH   3  17
BRANCH   8  24
ATOM     24  S   UNN dAMED       2.403  -1.346  -0.831  0.00  0.00    -0.087 SA
BRANCH  24  25
ATOM     25  C   UNN dAMED       2.117  -1.776  -2.532  0.00  0.00     0.029 A 
ATOM     26  C   UNN dAMED       3.034  -2.597  -3.189  0.00  0.00     0.006 A 
ATOM     27  C   UNN dAMED       2.818  -2.974  -4.513  0.00  0.00     0.001 A 
ATOM     28  C   UNN dAMED       1.683  -2.528  -5.186  0.00  0.00     0.000 A 
ATOM     29  C   UNN dAMED       0.760  -1.715  -4.534  0.00  0.00     0.001 A 
ATOM     30  C   UNN dAMED       0.972  -1.349  -3.206  0.00  0.00     0.006 A 
ENDBRANCH  24  25
ENDBRANCH   8  24
TORSDOF 4
