REMARK  3 active torsions:
REMARK  status: ('A' for Active; 'I' for Inactive)
REMARK    1  A    between atoms: C_2  and  N_11 
REMARK       I    between atoms: N_11  and  C_12 
REMARK    2  A    between atoms: C_12  and  C_14 
REMARK    3  A    between atoms: C_14  and  C_15 
ROOT
ATOM      1  C   UNN dAMED      -0.978  -1.416  -0.134  0.00  0.00     0.019 A 
ATOM      2  C   UNN dAMED       0.312  -0.916   0.067  0.00  0.00     0.084 A 
ATOM      3  C   UNN dAMED      -2.093  -0.584  -0.182  0.00  0.00     0.002 A 
ATOM      4  C   UNN dAMED      -3.358  -1.130  -0.382  0.00  0.00     0.000 A 
ATOM      5  C   UNN dAMED      -4.476  -0.304  -0.423  0.00  0.00     0.000 A 
ATOM      6  C   UNN dAMED       0.437   0.476   0.221  0.00  0.00     0.019 A 
ATOM      7  C   UNN dAMED      -1.939   0.804  -0.024  0.00  0.00     0.000 A 
ATOM      8  C   UNN dAMED      -4.326   1.068  -0.268  0.00  0.00     0.000 A 
ATOM      9  C   UNN dAMED      -0.666   1.332   0.179  0.00  0.00     0.002 A 
ATOM     10  C   UNN dAMED      -3.063   1.625  -0.072  0.00  0.00     0.000 A 
ENDROOT
BRANCH   2  11
ATOM     11  N   UNN dAMED       1.331  -1.806   0.111  0.00  0.00    -0.211 NA
ATOM     12  C   UNN dAMED       1.544  -2.300   1.322  0.00  0.00     0.263 C 
ATOM     13  O   UNN dAMED       0.700  -2.668   2.129  0.00  0.00    -0.270 OA
BRANCH  12  14
ATOM     14  C   UNN dAMED       2.967  -2.249   1.795  0.00  0.00     0.154 C 
BRANCH  14  15
ATOM     15  C   UNN dAMED       3.788  -3.608   1.974  0.00  0.00     0.161 C 
ATOM     16  O   UNN dAMED       4.940  -3.582   2.396  0.00  0.00    -0.295 OA
ATOM     17  C   UNN dAMED       2.957  -2.233   1.793  0.00  0.00     0.073 C 
ENDBRANCH  14  15
ENDBRANCH  12  14
ENDBRANCH   2  11
TORSDOF 3
