REMARK  3 active torsions:
REMARK  status: ('A' for Active; 'I' for Inactive)
REMARK    1  A    between atoms: C_4  and  C_15 
REMARK    2  A    between atoms: C_6  and  O_13 
REMARK    3  A    between atoms: C_12  and  C_18 
ROOT
ATOM      1  C   UNN dAMED       0.381   1.541  -0.472  0.00  0.00     0.070 C 
ATOM      2  C   UNN dAMED       0.950   2.831  -0.270  0.00  0.00     0.101 C 
ATOM      3  N   UNN dAMED       1.409   3.883  -0.099  0.00  0.00    -0.191 NA
ATOM      4  C   UNN dAMED       1.115   0.424  -0.346  0.00  0.00     0.029 C 
ENDROOT
BRANCH   1   5
ATOM      5  C   UNN dAMED      -1.016   1.369  -0.872  0.00  0.00     0.010 A 
ATOM      6  C   UNN dAMED      -1.876   2.447  -1.096  0.00  0.00     0.003 A 
ATOM      7  C   UNN dAMED      -3.192   2.229  -1.495  0.00  0.00     0.024 A 
ATOM      8  C   UNN dAMED      -3.637   0.925  -1.672  0.00  0.00     0.094 A 
ATOM      9  C   UNN dAMED      -2.799  -0.162  -1.454  0.00  0.00     0.024 A 
ATOM     10  C   UNN dAMED      -1.484   0.066  -1.054  0.00  0.00     0.003 A 
BRANCH   8  11
ATOM     11  O   UNN dAMED      -4.923   0.706  -2.064  0.00  0.00    -0.328 OA
ATOM     12  C   UNN dAMED      -5.425   1.969  -2.390  0.00  0.00     0.181 C 
ENDBRANCH   8  11
ENDBRANCH   1   5
BRANCH   4  13
ATOM     13  C   UNN dAMED       2.604   0.364  -0.063  0.00  0.00     0.082 A 
ATOM     14  N   UNN dAMED       3.032   0.557   1.207  0.00  0.00    -0.244 NA
ATOM     15  C   UNN dAMED       4.365   0.487   1.420  0.00  0.00     0.099 A 
ATOM     16  C   UNN dAMED       5.297   0.231   0.429  0.00  0.00     0.021 A 
ATOM     17  C   UNN dAMED       4.826   0.028  -0.861  0.00  0.00     0.003 A 
ATOM     18  C   UNN dAMED       3.463   0.092  -1.120  0.00  0.00     0.019 A 
ENDBRANCH   4  13
TORSDOF 3
