REMARK  1 active torsions:
REMARK  status: ('A' for Active; 'I' for Inactive)
REMARK    1  A    between atoms: C_14  and  S_15 
ROOT
ATOM      1  N   UNN dAMED       1.835  -1.089   0.088  0.00  0.00    -0.210 NA
ATOM      2  N   UNN dAMED       0.998   1.138  -0.070  0.00  0.00    -0.319 N 
ATOM      3  S   UNN dAMED       0.256  -3.277   0.230  0.00  0.00    -0.056 SA
ATOM      4  H   UNN dAMED       1.175   2.133  -0.137  0.00  0.00     0.169 HD
ATOM      5  N   UNN dAMED      -1.907  -0.826   0.045  0.00  0.00    -0.327 N 
ATOM      6  H   UNN dAMED      -2.356  -1.731   0.104  0.00  0.00     0.168 HD
ATOM      7  N   UNN dAMED      -1.486   1.378  -0.103  0.00  0.00    -0.317 N 
ATOM      8  H   UNN dAMED      -1.575   2.384  -0.173  0.00  0.00     0.170 HD
ATOM      9  S   UNN dAMED      -4.165   0.742  -0.079  0.00  0.00    -0.040 SA
ATOM     10  C   UNN dAMED       0.540  -1.616   0.116  0.00  0.00     0.156 A 
ATOM     11  C   UNN dAMED      -0.556  -0.613   0.040  0.00  0.00     0.119 A 
ATOM     12  C   UNN dAMED      -0.290   0.701  -0.048  0.00  0.00     0.140 A 
ATOM     13  C   UNN dAMED      -2.541   0.435  -0.046  0.00  0.00     0.178 A 
ATOM     14  C   UNN dAMED       2.004   0.203   0.000  0.00  0.00     0.170 A 
ENDROOT
BRANCH  14  15
ATOM     15  S   UNN dAMED       3.646   0.824  -0.033  0.00  0.00    -0.076 SA
ATOM     16  C   UNN dAMED       4.421  -0.789   0.005  0.00  0.00     0.077 C 
ENDBRANCH  14  15
TORSDOF 1
