REMARK  3 active torsions:
REMARK  status: ('A' for Active; 'I' for Inactive)
REMARK    1  A    between atoms: C_8  and  N_23 
REMARK    2  A    between atoms: C_9  and  N_23 
REMARK    3  A    between atoms: C_10  and  C_24 
ROOT
ATOM      1  O   UNN dAMED      -0.290  -2.237  -0.188  0.00  0.00    -0.286 OA
ATOM      2  O   UNN dAMED      -3.767   1.804   0.094  0.00  0.00    -0.287 OA
ATOM      3  C   UNN dAMED       0.795   0.447  -0.555  0.00  0.00     0.090 A 
ATOM      4  C   UNN dAMED       1.126   1.816  -0.763  0.00  0.00     0.082 A 
ATOM      5  C   UNN dAMED      -0.577   0.132  -0.327  0.00  0.00     0.060 A 
ATOM      6  C   UNN dAMED      -1.053  -1.279  -0.171  0.00  0.00     0.197 A 
ATOM      7  C   UNN dAMED      -2.491  -1.545  -0.004  0.00  0.00     0.042 A 
ATOM      8  C   UNN dAMED      -2.931  -2.868   0.072  0.00  0.00     0.003 A 
ATOM      9  C   UNN dAMED      -4.287  -3.146   0.221  0.00  0.00     0.000 A 
ATOM     10  C   UNN dAMED       0.153   2.817  -0.696  0.00  0.00     0.008 A 
ATOM     11  C   UNN dAMED      -1.533   1.160  -0.259  0.00  0.00     0.043 A 
ATOM     12  C   UNN dAMED      -3.410  -0.506   0.071  0.00  0.00     0.042 A 
ATOM     13  C   UNN dAMED      -5.206  -2.102   0.297  0.00  0.00     0.000 A 
ATOM     14  C   UNN dAMED      -1.167   2.492  -0.434  0.00  0.00     0.004 A 
ATOM     15  C   UNN dAMED      -2.963   0.888  -0.020  0.00  0.00     0.196 A 
ATOM     16  C   UNN dAMED      -4.769  -0.782   0.224  0.00  0.00     0.003 A 
ENDROOT
BRANCH   3  17
ATOM     17  N   UNN dAMED       1.758  -0.505  -0.650  0.00  0.00    -0.245 NA
BRANCH  17  18
ATOM     18  C   UNN dAMED       2.447  -0.796   0.483  0.00  0.00     0.081 A 
ATOM     19  C   UNN dAMED       2.157  -0.302   1.766  0.00  0.00     0.019 A 
ATOM     20  C   UNN dAMED       2.898  -0.670   2.888  0.00  0.00     0.002 A 
ATOM     21  C   UNN dAMED       3.956  -1.560   2.755  0.00  0.00     0.000 A 
ATOM     22  C   UNN dAMED       4.270  -2.072   1.502  0.00  0.00     0.002 A 
ATOM     23  C   UNN dAMED       3.522  -1.689   0.388  0.00  0.00     0.019 A 
ENDBRANCH  17  18
ENDBRANCH   3  17
BRANCH   4  24
ATOM     24  C   UNN dAMED       2.523   2.254  -1.067  0.00  0.00     0.212 C 
ATOM     25  O   UNN dAMED       2.941   2.036  -2.245  0.00  0.00    -0.644 OA
ATOM     26  O   UNN dAMED       3.157   2.812  -0.120  0.00  0.00    -0.644 OA
ENDBRANCH   4  24
TORSDOF 3
