REMARK  2 active torsions:
REMARK  status: ('A' for Active; 'I' for Inactive)
REMARK    1  A    between atoms: C_3  and  O_11 
REMARK    2  A    between atoms: CA_6  and  C_7 
ROOT
ATOM      1  N   UNN dAMED      -0.504  -1.057  -0.308  0.00  0.00    -0.242 NA
ATOM      2  C   UNN dAMED       0.846  -1.016  -0.382  0.00  0.00     0.082 A 
ATOM      3  C   UNN dAMED       1.572   0.117  -0.071  0.00  0.00     0.108 A 
ATOM      4  C   UNN dAMED       0.916   1.262   0.344  0.00  0.00     0.027 A 
ATOM      5  C   UNN dAMED      -0.466   1.240   0.441  0.00  0.00     0.027 A 
ATOM      6  CA  UNN dAMED      -1.142   0.070   0.102  0.00  0.00     0.145 A 
ATOM      7  C   UNN dAMED       1.586  -2.252  -0.815  0.00  0.00     0.054 C 
ENDROOT
BRANCH   6   8
ATOM      8  C   UNN dAMED      -2.636   0.046   0.191  0.00  0.00     0.229 C 
ATOM      9  O   UNN dAMED      -3.176  -1.082   0.401  0.00  0.00    -0.643 OA
ATOM     10  OXT UNN dAMED      -3.237   1.156   0.049  0.00  0.00    -0.643 OA
ENDBRANCH   6   8
BRANCH   3  11
ATOM     11  O   UNN dAMED       2.926   0.114  -0.165  0.00  0.00    -0.327 OA
ATOM     12  C   UNN dAMED       3.323   1.359   0.327  0.00  0.00     0.181 C 
ENDBRANCH   3  11
TORSDOF 2
