REMARK  2 active torsions:
REMARK  status: ('A' for Active; 'I' for Inactive)
REMARK    1  A    between atoms: C_14  and  C_18 
REMARK    2  A    between atoms: C_17  and  N_19 
ROOT
ATOM      1  C   UNN dAMED      -2.223  -1.025   0.497  0.00  0.00     0.191 C 
ATOM      2  C   UNN dAMED      -0.909  -0.350   0.410  0.00  0.00     0.017 C 
ATOM      3  C   UNN dAMED      -0.818   0.988  -0.256  0.00  0.00     0.034 C 
ATOM      4  C   UNN dAMED      -2.119   1.768  -0.374  0.00  0.00     0.031 C 
ATOM      5  C   UNN dAMED      -3.352   0.948  -0.596  0.00  0.00    -0.019 A 
ATOM      6  C   UNN dAMED      -3.403  -0.352  -0.086  0.00  0.00     0.035 A 
ATOM      7  O   UNN dAMED      -2.308  -2.136   1.005  0.00  0.00    -0.287 OA
ATOM      8  C   UNN dAMED      -4.597  -1.071  -0.150  0.00  0.00     0.003 A 
ATOM      9  C   UNN dAMED      -5.729  -0.498  -0.722  0.00  0.00     0.000 A 
ATOM     10  C   UNN dAMED      -5.673   0.799  -1.228  0.00  0.00    -0.000 A 
ATOM     11  C   UNN dAMED      -4.488   1.528  -1.154  0.00  0.00    -0.004 A 
ATOM     12  C   UNN dAMED       0.179  -1.073   0.683  0.00  0.00    -0.001 C 
ENDROOT
BRANCH  12  13
ATOM     13  C   UNN dAMED       1.577  -0.522   0.557  0.00  0.00    -0.000 A 
ATOM     14  C   UNN dAMED       2.308  -0.265   1.720  0.00  0.00     0.002 A 
ATOM     15  C   UNN dAMED       3.656   0.072   1.646  0.00  0.00     0.024 A 
ATOM     16  C   UNN dAMED       4.257   0.118   0.393  0.00  0.00     0.127 A 
ATOM     17  C   UNN dAMED       3.561  -0.156  -0.780  0.00  0.00     0.024 A 
ATOM     18  C   UNN dAMED       2.209  -0.478  -0.689  0.00  0.00     0.002 A 
BRANCH  16  19
ATOM     19  N   UNN dAMED       5.652   0.468   0.309  0.00  0.00    -0.114 N 
ATOM     20  O   UNN dAMED       6.438  -0.159   1.032  0.00  0.00    -0.532 OA
ATOM     21  O   UNN dAMED       5.961   1.371  -0.479  0.00  0.00    -0.532 OA
ENDBRANCH  16  19
ENDBRANCH  12  13
TORSDOF 2
