REMARK  2 active torsions:
REMARK  status: ('A' for Active; 'I' for Inactive)
REMARK    1  A    between atoms: C_6  and  C_17 
REMARK    2  A    between atoms: C_10  and  C_17 
ROOT
ATOM      1  O   UNN dAMED      -1.468   1.731  -2.022  0.00  0.00    -0.287 OA
ATOM      2  C   UNN dAMED      -1.337   1.030  -1.035  0.00  0.00     0.195 A 
ATOM      3  C   UNN dAMED      -2.444   0.475  -0.237  0.00  0.00     0.035 A 
ATOM      4  C   UNN dAMED      -0.104   0.194  -0.784  0.00  0.00     0.060 A 
ATOM      5  C   UNN dAMED      -3.768   0.860  -0.227  0.00  0.00     0.003 A 
ATOM      6  C   UNN dAMED      -4.617   0.153   0.625  0.00  0.00     0.000 A 
ATOM      7  C   UNN dAMED      -0.489  -0.812   0.302  0.00  0.00     0.059 A 
ATOM      8  C   UNN dAMED      -1.951  -0.579   0.546  0.00  0.00    -0.015 A 
ATOM      9  C   UNN dAMED      -4.134  -0.900   1.422  0.00  0.00    -0.000 A 
ATOM     10  C   UNN dAMED      -2.790  -1.279   1.387  0.00  0.00    -0.004 A 
ENDROOT
BRANCH   4  11
ATOM     11  C   UNN dAMED       1.287   0.769  -0.849  0.00  0.00     0.197 C 
ATOM     12  O   UNN dAMED       1.795   0.978  -1.941  0.00  0.00    -0.287 OA
BRANCH  11  13
ATOM     13  C   UNN dAMED       2.030   0.952   0.395  0.00  0.00     0.058 A 
ATOM     14  C   UNN dAMED       1.392   0.667   1.592  0.00  0.00     0.006 A 
ATOM     15  C   UNN dAMED       2.089   0.833   2.781  0.00  0.00     0.021 A 
ATOM     16  C   UNN dAMED       3.400   1.280   2.705  0.00  0.00     0.099 A 
ATOM     17  N   UNN dAMED       4.044   1.565   1.550  0.00  0.00    -0.242 NA
ATOM     18  C   UNN dAMED       3.341   1.394   0.410  0.00  0.00     0.102 A 
ENDBRANCH  11  13
ENDBRANCH   4  11
TORSDOF 2
