REMARK  4 active torsions:
REMARK  status: ('A' for Active; 'I' for Inactive)
REMARK    1  A    between atoms: C_2  and  N_17 
REMARK    2  A    between atoms: C_6  and  N_14 
REMARK    3  A    between atoms: C_8  and  N_20 
REMARK    4  A    between atoms: C_10  and  S_21 
REMARK       I    between atoms: N_17  and  C_18 
REMARK       I    between atoms: C_18  and  N_20 
ROOT
ATOM      1  N   UNN dAMED      -1.486   0.978   0.206  0.00  0.00    -0.191 NA
ATOM      2  C   UNN dAMED      -0.944   1.532  -0.908  0.00  0.00     0.369 C 
ATOM      3  O   UNN dAMED      -1.464   1.595  -2.021  0.00  0.00    -0.242 OA
ATOM      4  N   UNN dAMED       0.224   2.131  -0.568  0.00  0.00    -0.191 NA
ENDROOT
BRANCH   1   5
ATOM      5  C   UNN dAMED      -2.676   0.365   0.027  0.00  0.00     0.084 A 
ATOM      6  C   UNN dAMED      -2.740  -0.972  -0.398  0.00  0.00    -0.004 A 
ATOM      7  C   UNN dAMED      -3.953  -1.664  -0.469  0.00  0.00    -0.001 A 
ATOM      8  C   UNN dAMED      -1.468  -1.685  -0.755  0.00  0.00     0.033 C 
ATOM      9  C   UNN dAMED      -5.134  -1.038  -0.091  0.00  0.00     0.023 A 
ATOM     10  C   UNN dAMED      -5.083   0.285   0.331  0.00  0.00     0.128 A 
ATOM     11  C   UNN dAMED      -3.876   0.987   0.396  0.00  0.00     0.043 A 
BRANCH  10  12
ATOM     12  N   UNN dAMED      -6.306   0.926   0.772  0.00  0.00    -0.114 N 
ATOM     13  O   UNN dAMED      -7.379   0.398   0.448  0.00  0.00    -0.532 OA
ATOM     14  O   UNN dAMED      -6.200   1.955   1.453  0.00  0.00    -0.532 OA
ENDBRANCH  10  12
ENDBRANCH   1   5
BRANCH   4  15
ATOM     15  C   UNN dAMED       1.276   1.777  -1.341  0.00  0.00     0.086 A 
ATOM     16  C   UNN dAMED       2.249   0.883  -0.869  0.00  0.00     0.020 A 
ATOM     17  C   UNN dAMED       3.412   0.617  -1.594  0.00  0.00     0.015 A 
ATOM     18  C   UNN dAMED       3.605   1.265  -2.805  0.00  0.00     0.107 A 
ATOM     19  C   UNN dAMED       2.675   2.156  -3.315  0.00  0.00     0.015 A 
ATOM     20  C   UNN dAMED       1.527   2.416  -2.567  0.00  0.00     0.020 A 
BRANCH  18  21
ATOM     21  S   UNN dAMED       5.031   0.912  -3.769  0.00  0.00     0.302 S 
ATOM     22  O   UNN dAMED       5.186  -0.530  -3.720  0.00  0.00    -0.197 OA
ATOM     23  O   UNN dAMED       6.076   1.773  -3.245  0.00  0.00    -0.197 OA
ATOM     24  N   UNN dAMED       4.713   1.365  -5.384  0.00  0.00    -0.043 N 
ENDBRANCH  18  21
ENDBRANCH   4  15
TORSDOF 4
