REMARK  4 active torsions:
REMARK  status: ('A' for Active; 'I' for Inactive)
REMARK    1  A    between atoms: C_3  and  N_16 
REMARK    2  A    between atoms: C_6  and  S_13 
REMARK    3  A    between atoms: C_11  and  C_20 
REMARK    4  A    between atoms: N_16  and  C_17 
REMARK       I    between atoms: N_19  and  C_20 
ROOT
ATOM      1  N   UNN dAMED       0.904  -0.731  -1.232  0.00  0.00    -0.217 NA
ENDROOT
BRANCH   1   2
ATOM      2  C   UNN dAMED      -0.405  -0.794  -0.890  0.00  0.00     0.084 A 
ATOM      3  C   UNN dAMED      -1.392  -0.103  -1.612  0.00  0.00     0.020 A 
ATOM      4  C   UNN dAMED      -2.738  -0.165  -1.257  0.00  0.00     0.015 A 
ATOM      5  C   UNN dAMED      -3.104  -0.972  -0.189  0.00  0.00     0.107 A 
ATOM      6  C   UNN dAMED      -2.174  -1.728   0.510  0.00  0.00     0.015 A 
ATOM      7  C   UNN dAMED      -0.832  -1.637   0.147  0.00  0.00     0.020 A 
BRANCH   5   8
ATOM      8  S   UNN dAMED      -4.779  -0.914   0.346  0.00  0.00     0.302 S 
ATOM      9  N   UNN dAMED      -5.316   0.705   0.242  0.00  0.00    -0.043 N 
ATOM     10  O   UNN dAMED      -5.512  -1.707  -0.623  0.00  0.00    -0.197 OA
ATOM     11  O   UNN dAMED      -4.776  -1.301   1.745  0.00  0.00    -0.197 OA
ENDBRANCH   5   8
ENDBRANCH   1   2
BRANCH   1  12
ATOM     12  C   UNN dAMED       1.552   0.361  -0.787  0.00  0.00     0.224 C 
ATOM     13  S   UNN dAMED       1.680   1.792  -1.692  0.00  0.00    -0.037 SA
ATOM     14  N   UNN dAMED       2.103   0.237   0.433  0.00  0.00    -0.177 NA
ATOM     15  C   UNN dAMED       3.189  -0.550   0.443  0.00  0.00     0.304 C 
ATOM     16  O   UNN dAMED       3.178  -1.767   0.607  0.00  0.00    -0.263 OA
BRANCH  15  17
ATOM     17  C   UNN dAMED       4.429   0.190   0.332  0.00  0.00     0.158 A 
ATOM     18  O   UNN dAMED       4.468   1.530   0.601  0.00  0.00    -0.300 OA
ATOM     19  C   UNN dAMED       5.755   1.939   0.430  0.00  0.00     0.123 A 
ATOM     20  C   UNN dAMED       6.547   0.873   0.068  0.00  0.00     0.029 A 
ATOM     21  C   UNN dAMED       5.694  -0.251  -0.001  0.00  0.00     0.032 A 
ENDBRANCH  15  17
ENDBRANCH   1  12
TORSDOF 4
