REMARK  3 active torsions:
REMARK  status: ('A' for Active; 'I' for Inactive)
REMARK    1  A    between atoms: C_3  and  C_18 
REMARK    2  A    between atoms: C_9  and  C_15 
REMARK    3  A    between atoms: C_15  and  C_17 
ROOT
ATOM      1  C   UNN dAMED      -0.411   2.428   0.311  0.00  0.00     0.196 C 
ATOM      2  O   UNN dAMED      -1.169   3.037  -0.428  0.00  0.00    -0.287 OA
ENDROOT
BRANCH   1   3
ATOM      3  C   UNN dAMED      -0.757   2.107   1.695  0.00  0.00     0.039 A 
ATOM      4  C   UNN dAMED      -1.833   2.701   2.332  0.00  0.00     0.006 A 
ATOM      5  C   UNN dAMED      -2.102   2.346   3.657  0.00  0.00     0.042 A 
ATOM      6  C   UNN dAMED      -1.337   1.420   4.389  0.00  0.00     0.196 A 
ATOM      7  C   UNN dAMED      -0.255   0.870   3.680  0.00  0.00     0.042 A 
ATOM      8  O   UNN dAMED      -1.604   1.104   5.594  0.00  0.00    -0.287 OA
ATOM      9  C   UNN dAMED       0.047   1.194   2.356  0.00  0.00     0.006 A 
ENDBRANCH   1   3
BRANCH   1  10
ATOM     10  C   UNN dAMED       0.836   1.813  -0.256  0.00  0.00     0.042 C 
ATOM     11  C   UNN dAMED       1.531   0.968   0.503  0.00  0.00     0.004 C 
BRANCH  11  12
ATOM     12  C   UNN dAMED       2.825   0.379   0.023  0.00  0.00     0.011 A 
ATOM     13  C   UNN dAMED       4.004   1.112   0.124  0.00  0.00     0.001 A 
ATOM     14  C   UNN dAMED       5.220   0.518  -0.206  0.00  0.00     0.000 A 
ATOM     15  C   UNN dAMED       5.256  -0.808  -0.635  0.00  0.00     0.001 A 
ATOM     16  C   UNN dAMED       4.077  -1.543  -0.738  0.00  0.00     0.011 A 
ATOM     17  C   UNN dAMED       2.867  -0.944  -0.406  0.00  0.00     0.058 A 
ATOM     18 CL   UNN dAMED       1.414  -1.850  -0.498  0.00  0.00    -0.082 Cl
ENDBRANCH  11  12
ENDBRANCH   1  10
TORSDOF 3
