REMARK  4 active torsions:
REMARK  status: ('A' for Active; 'I' for Inactive)
REMARK    1  A    between atoms: C_4  and  C_7 
REMARK    2  A    between atoms: C_5  and  N_18 
REMARK    3  A    between atoms: C_7  and  S_8 
REMARK    4  A    between atoms: S_8  and  C_14 
ROOT
ATOM      1  S   UNN dAMED      -0.262  -2.153   0.545  0.00  0.00    -0.048 SA
ENDROOT
BRANCH   1   2
ATOM      2  C   UNN dAMED      -1.246  -0.735   1.056  0.00  0.00     0.040 C 
BRANCH   2   3
ATOM      3  C   UNN dAMED      -2.753  -0.743   1.001  0.00  0.00     0.029 A 
ATOM      4  C   UNN dAMED      -3.476  -1.907   1.251  0.00  0.00     0.002 A 
ATOM      5  C   UNN dAMED      -4.865  -1.912   1.139  0.00  0.00     0.000 A 
ATOM      6  C   UNN dAMED      -5.544  -0.748   0.780  0.00  0.00     0.002 A 
ATOM      7  C   UNN dAMED      -4.838   0.426   0.530  0.00  0.00     0.024 A 
ATOM      8  C   UNN dAMED      -3.452   0.409   0.652  0.00  0.00     0.127 A 
BRANCH   8   9
ATOM      9  N   UNN dAMED      -2.722   1.629   0.408  0.00  0.00    -0.114 N 
ATOM     10  O   UNN dAMED      -1.714   1.552  -0.305  0.00  0.00    -0.532 OA
ATOM     11  O   UNN dAMED      -3.159   2.664   0.927  0.00  0.00    -0.532 OA
ENDBRANCH   8   9
ENDBRANCH   2   3
ENDBRANCH   1   2
BRANCH   1  12
ATOM     12  C   UNN dAMED       1.240  -1.221   0.375  0.00  0.00     0.199 A 
ATOM     13  N   UNN dAMED       1.086   0.136   0.267  0.00  0.00    -0.181 NA
ATOM     14  C   UNN dAMED       2.189   0.945   0.157  0.00  0.00     0.302 A 
ATOM     15  C   UNN dAMED       3.430   0.301   0.168  0.00  0.00     0.176 A 
ATOM     16  O   UNN dAMED       2.120   2.205   0.057  0.00  0.00    -0.263 OA
ATOM     17  C   UNN dAMED       3.493  -1.087   0.279  0.00  0.00     0.189 A 
ATOM     18  N   UNN dAMED       4.675   0.865   0.087  0.00  0.00    -0.216 NA
ATOM     19  N   UNN dAMED       2.403  -1.922   0.387  0.00  0.00    -0.200 NA
ATOM     20  N   UNN dAMED       4.792  -1.447   0.270  0.00  0.00    -0.203 NA
ATOM     21  C   UNN dAMED       5.432  -0.220   0.153  0.00  0.00     0.201 A 
ENDBRANCH   1  12
TORSDOF 4
