REMARK  5 active torsions:
REMARK  status: ('A' for Active; 'I' for Inactive)
REMARK    1  A    between atoms: O_1  and  C_16 
REMARK    2  A    between atoms: O_1  and  C_20 
REMARK    3  A    between atoms: N_2  and  C_23 
REMARK    4  A    between atoms: C_20  and  C_21 
REMARK    5  A    between atoms: C_21  and  C_23 
ROOT
ATOM      1  N   UNN dAMED      -0.185  -2.821  -0.948  0.00  0.00     0.143 N 
ATOM      2  N   UNN dAMED      -1.026   0.713  -0.924  0.00  0.00    -0.248 NA
ATOM      3  C   UNN dAMED       0.503   1.969   0.485  0.00  0.00     0.011 A 
ATOM      4  C   UNN dAMED       0.776   2.650   1.670  0.00  0.00     0.001 A 
ATOM      5  C   UNN dAMED      -0.741   1.371   0.287  0.00  0.00     0.037 A 
ATOM      6  C   UNN dAMED      -0.197   2.736   2.662  0.00  0.00     0.000 A 
ATOM      7  C   UNN dAMED      -1.712   1.457   1.285  0.00  0.00     0.011 A 
ATOM      8  C   UNN dAMED      -1.441   2.139   2.472  0.00  0.00     0.001 A 
ATOM      9  C   UNN dAMED      -1.662  -0.621  -0.911  0.00  0.00     0.112 C 
ATOM     10  C   UNN dAMED      -1.019  -1.780  -1.680  0.00  0.00     0.268 C 
ATOM     11  C   UNN dAMED      -0.005  -0.144  -1.561  0.00  0.00     0.112 C 
ATOM     12  C   UNN dAMED       0.525  -1.392  -0.841  0.00  0.00     0.268 C 
ENDROOT
BRANCH   1  13
ATOM     13  C   UNN dAMED       0.519  -1.392  -0.836  0.00  0.00     0.286 C 
BRANCH  13  14
ATOM     14  C   UNN dAMED       2.043  -1.262  -0.770  0.00  0.00     0.215 C 
ATOM     15  O   UNN dAMED       2.702  -1.574   0.391  0.00  0.00    -0.219 OA
BRANCH  14  16
ATOM     16  C   UNN dAMED       2.785  -0.597  -1.948  0.00  0.00     0.184 C 
BRANCH  16  17
ATOM     17  O   UNN dAMED       4.003   0.075  -1.766  0.00  0.00    -0.328 OA
BRANCH  17  18
ATOM     18  C   UNN dAMED       3.755   1.372  -2.100  0.00  0.00     0.094 A 
ATOM     19  C   UNN dAMED       4.174   2.382  -1.244  0.00  0.00     0.024 A 
ATOM     20  C   UNN dAMED       3.946   3.710  -1.597  0.00  0.00     0.002 A 
ATOM     21  C   UNN dAMED       3.307   4.013  -2.798  0.00  0.00     0.000 A 
ATOM     22  C   UNN dAMED       2.892   2.988  -3.649  0.00  0.00     0.002 A 
ATOM     23  C   UNN dAMED       3.117   1.658  -3.301  0.00  0.00     0.024 A 
ENDBRANCH  17  18
ENDBRANCH  16  17
ENDBRANCH  14  16
ENDBRANCH  13  14
ENDBRANCH   1  13
TORSDOF 5
