REMARK  5 active torsions:
REMARK  status: ('A' for Active; 'I' for Inactive)
REMARK    1  A    between atoms: CA_1  and  C_10 
REMARK    2  A    between atoms: C_3  and  C_15 
REMARK    3  A    between atoms: C_6  and  O_7 
REMARK    4  A    between atoms: C_6  and  C_15 
REMARK    5  A    between atoms: O_7  and  C_16 
ROOT
ATOM      1  CA  UNN dAMED       2.138   0.251   0.689  0.00  0.00     0.311 C 
ATOM      2  C   UNN dAMED       1.924   1.715  -0.329  0.00  0.00     0.081 C 
ATOM      3  C   UNN dAMED      -0.313   0.302   0.366  0.00  0.00     0.252 C 
ATOM      4  S   UNN dAMED       0.132   1.749  -0.716  0.00  0.00    -0.106 SA
ATOM      5  N   UNN dAMED       0.893  -0.502   0.673  0.00  0.00     0.134 N 
ATOM      6  H   UNN dAMED       0.848  -1.332   0.077  0.00  0.00     0.320 HD
ATOM      7  C   UNN dAMED       2.145   0.209   0.719  0.00  0.00     0.013 C 
ATOM      8  C   UNN dAMED       2.144   0.212   0.717  0.00  0.00     0.013 C 
ATOM      9  C   UNN dAMED      -0.852   0.855   1.687  0.00  0.00     0.049 C 
ENDROOT
BRANCH   3  10
ATOM     10  C   UNN dAMED      -1.278  -0.604  -0.411  0.00  0.00     0.082 C 
BRANCH  10  11
ATOM     11  C   UNN dAMED      -2.776  -0.427  -0.449  0.00  0.00     0.294 C 
ATOM     12  O   UNN dAMED      -3.310   0.393   0.286  0.00  0.00    -0.259 OA
BRANCH  11  13
ATOM     13  O   UNN dAMED      -3.470  -1.176  -1.348  0.00  0.00    -0.299 OA
BRANCH  13  14
ATOM     14  C   UNN dAMED      -4.792  -0.736  -1.249  0.00  0.00     0.152 C 
ATOM     15  C   UNN dAMED      -5.173   0.671  -1.721  0.00  0.00     0.035 C 
ENDBRANCH  13  14
ENDBRANCH  11  13
ENDBRANCH  10  11
ENDBRANCH   3  10
BRANCH   1  16
ATOM     16  C   UNN dAMED       3.475  -0.453   0.782  0.00  0.00     0.218 C 
ATOM     17  O   UNN dAMED       4.202  -0.152   1.776  0.00  0.00    -0.646 OA
ATOM     18  OXT UNN dAMED       3.793  -1.214  -0.183  0.00  0.00    -0.646 OA
ENDBRANCH   1  16
TORSDOF 5
