REMARK  1 active torsions:
REMARK  status: ('A' for Active; 'I' for Inactive)
REMARK    1  A    between atoms: C_10  and  C_13 
ROOT
ATOM      1 CL   UNN dAMED      -3.972  -1.389  -0.420  0.00  0.00    -0.059 Cl
ATOM      2 CL   UNN dAMED      -3.911   1.760   0.460  0.00  0.00    -0.059 Cl
ATOM      3  N   UNN dAMED      -1.405  -1.258  -0.363  0.00  0.00    -0.212 NA
ATOM      4  N   UNN dAMED      -1.349   1.524   0.415  0.00  0.00    -0.210 NA
ATOM      5  N   UNN dAMED       1.010  -0.944  -0.257  0.00  0.00    -0.317 N 
ATOM      6  H   UNN dAMED       1.337  -1.867  -0.512  0.00  0.00     0.169 HD
ATOM      7  N   UNN dAMED       1.071   1.203   0.346  0.00  0.00    -0.201 NA
ATOM      8  C   UNN dAMED      -2.514  -0.512  -0.163  0.00  0.00     0.169 A 
ATOM      9  C   UNN dAMED      -2.488   0.825   0.211  0.00  0.00     0.169 A 
ATOM     10  C   UNN dAMED       1.801   0.141   0.054  0.00  0.00     0.209 A 
ATOM     11  C   UNN dAMED      -0.289  -0.543  -0.155  0.00  0.00     0.179 A 
ATOM     12  C   UNN dAMED      -0.228   0.788   0.219  0.00  0.00     0.200 A 
ENDROOT
BRANCH  10  13
ATOM     13  C   UNN dAMED       3.272   0.130   0.063  0.00  0.00     0.247 C 
ATOM     14  O   UNN dAMED       3.836  -0.977  -0.191  0.00  0.00    -0.642 OA
ATOM     15  O   UNN dAMED       3.840   1.232   0.324  0.00  0.00    -0.642 OA
ENDBRANCH  10  13
TORSDOF 1
