REMARK  1 active torsions:
REMARK  status: ('A' for Active; 'I' for Inactive)
REMARK       I    between atoms: C_21  and  N_23 
REMARK    1  A    between atoms: N_23  and  C_24 
ROOT
ATOM      1  N   UNN dAMED      -1.969   0.194   0.112  0.00  0.00    -0.305 N 
ATOM      2  N   UNN dAMED       2.133   0.824  -0.149  0.00  0.00    -0.197 NA
ATOM      3  N   UNN dAMED       2.286  -1.560  -0.276  0.00  0.00    -0.040 NA
ATOM      4 CL   UNN dAMED       4.226   2.340  -0.147  0.00  0.00    -0.041 Cl
ATOM      5  N   UNN dAMED       4.283  -0.248  -0.287  0.00  0.00    -0.029 NA
ATOM      6  C   UNN dAMED      -5.125   2.850   0.900  0.00  0.00     0.000 A 
ATOM      7  C   UNN dAMED      -5.323   1.777   0.032  0.00  0.00     0.002 A 
ATOM      8  C   UNN dAMED      -3.883   3.038   1.503  0.00  0.00     0.002 A 
ATOM      9  C   UNN dAMED      -2.840   2.150   1.243  0.00  0.00     0.018 A 
ATOM     10  C   UNN dAMED      -4.279   0.892  -0.239  0.00  0.00     0.018 A 
ATOM     11  C   UNN dAMED      -3.041   1.075   0.375  0.00  0.00     0.064 A 
ATOM     12  C   UNN dAMED      -3.120  -2.026  -0.356  0.00  0.00     0.018 A 
ATOM     13  C   UNN dAMED      -2.869  -3.360  -0.687  0.00  0.00     0.002 A 
ATOM     14  C   UNN dAMED      -2.026  -1.160  -0.201  0.00  0.00     0.064 A 
ATOM     15  C   UNN dAMED      -0.708  -1.609  -0.370  0.00  0.00     0.021 A 
ATOM     16  C   UNN dAMED      -1.573  -3.825  -0.856  0.00  0.00     0.000 A 
ATOM     17  C   UNN dAMED      -0.489  -2.962  -0.701  0.00  0.00     0.002 A 
ATOM     18  C   UNN dAMED       0.154  -0.500  -0.146  0.00  0.00     0.056 A 
ATOM     19  C   UNN dAMED      -0.652   0.575   0.143  0.00  0.00     0.083 A 
ATOM     20  C   UNN dAMED       1.595  -0.405  -0.191  0.00  0.00     0.185 A 
ATOM     21  C   UNN dAMED       3.624  -1.417  -0.324  0.00  0.00     0.749 A 
ATOM     22  C   UNN dAMED       3.470   0.815  -0.199  0.00  0.00     0.243 A 
ATOM     23  N   UNN dAMED       4.359  -2.531  -0.412  0.00  0.00    -0.086 NA
ENDROOT
BRANCH  23  24
ATOM     24  C   UNN dAMED       3.746  -3.771  -0.857  0.00  0.00     0.145 C 
ATOM     25  C   UNN dAMED       2.323  -4.130  -0.420  0.00  0.00     0.029 C 
ENDBRANCH  23  24
TORSDOF 1
