REMARK  4 active torsions:
REMARK  status: ('A' for Active; 'I' for Inactive)
REMARK    1  A    between atoms: C_1  and  C_3 
REMARK    2  A    between atoms: C_2  and  C_6 
REMARK       I    between atoms: C_6  and  N_8 
REMARK    3  A    between atoms: N_8  and  C_9 
REMARK    4  A    between atoms: C_9  and  C_10 
ROOT
ATOM      1  C   UNN dAMED       0.282   0.029   0.091  0.00  0.00     0.263 C 
ATOM      2  O   UNN dAMED      -0.347   0.735  -0.686  0.00  0.00    -0.267 OA
ATOM      3  N   UNN dAMED       1.568  -0.289  -0.011  0.00  0.00    -0.235 NA
ENDROOT
BRANCH   1   4
ATOM      4  C   UNN dAMED      -0.322  -0.595   1.305  0.00  0.00     0.083 C 
ATOM      5  C   UNN dAMED      -1.600  -0.464   1.681  0.00  0.00     0.090 C 
BRANCH   5   6
ATOM      6  C   UNN dAMED      -2.627   0.352   0.902  0.00  0.00     0.198 C 
ATOM      7  O   UNN dAMED      -2.696   1.572   1.225  0.00  0.00    -0.645 OA
ATOM      8  O   UNN dAMED      -3.300  -0.304   0.057  0.00  0.00    -0.645 OA
ENDBRANCH   5   6
ENDBRANCH   1   4
BRANCH   3   9
ATOM      9  C   UNN dAMED       2.265  -0.850   1.134  0.00  0.00     0.129 C 
BRANCH   9  10
ATOM     10  C   UNN dAMED       1.606  -1.960   1.959  0.00  0.00     0.025 C 
ATOM     11  C   UNN dAMED       2.481  -3.021   2.632  0.00  0.00     0.002 C 
ATOM     12  C   UNN dAMED       0.114  -1.874   2.298  0.00  0.00     0.002 C 
ENDBRANCH   9  10
ENDBRANCH   3   9
TORSDOF 4
