REMARK  4 active torsions:
REMARK  status: ('A' for Active; 'I' for Inactive)
REMARK    1  A    between atoms: C_1  and  O_13 
REMARK    2  A    between atoms: C_9  and  O_17 
REMARK    3  A    between atoms: O_13  and  C_14 
REMARK    4  A    between atoms: O_17  and  C_18 
ROOT
ATOM      1  C   UNN dAMED      -1.527   1.412   0.157  0.00  0.00     0.099 A 
ATOM      2  C   UNN dAMED      -0.984   2.692   0.262  0.00  0.00     0.026 A 
ATOM      3  C   UNN dAMED      -0.710   0.291   0.058  0.00  0.00     0.003 A 
ATOM      4  C   UNN dAMED      -1.287  -1.100  -0.064  0.00  0.00     0.049 A 
ATOM      5  C   UNN dAMED      -0.388  -2.316  -0.150  0.00  0.00    -0.047 A 
ATOM      6  C   UNN dAMED       0.400   2.852   0.202  0.00  0.00     0.026 A 
ATOM      7  C   UNN dAMED       0.676   0.450   0.027  0.00  0.00     0.003 A 
ATOM      8  C   UNN dAMED       0.941  -2.168  -0.150  0.00  0.00    -0.047 A 
ATOM      9  C   UNN dAMED       1.224   1.728   0.106  0.00  0.00     0.099 A 
ATOM     10  C   UNN dAMED       1.547  -0.780  -0.084  0.00  0.00     0.049 A 
ATOM     11  C   UNN dAMED      -0.995  -3.686  -0.243  0.00  0.00     0.026 C 
ATOM     12  C   UNN dAMED       1.831  -3.375  -0.227  0.00  0.00     0.026 C 
ENDROOT
BRANCH   1  13
ATOM     13  O   UNN dAMED      -2.906   1.229   0.250  0.00  0.00    -0.277 OA
BRANCH  13  14
ATOM     14  C   UNN dAMED      -3.577   1.517  -0.936  0.00  0.00     0.277 C 
ATOM     15  O   UNN dAMED      -3.060   1.561  -2.046  0.00  0.00    -0.264 OA
ATOM     16  C   UNN dAMED      -5.080   1.550  -0.873  0.00  0.00     0.107 C 
ENDBRANCH  13  14
ENDBRANCH   1  13
BRANCH   9  17
ATOM     17  O   UNN dAMED       2.582   1.891  -0.098  0.00  0.00    -0.277 OA
BRANCH  17  18
ATOM     18  C   UNN dAMED       3.105   1.980   1.170  0.00  0.00     0.277 C 
ATOM     19  O   UNN dAMED       4.290   1.785   1.409  0.00  0.00    -0.264 OA
ATOM     20  C   UNN dAMED       2.234   2.531   2.263  0.00  0.00     0.107 C 
ENDBRANCH  17  18
ENDBRANCH   9  17
TORSDOF 4
