REMARK  2 active torsions:
REMARK  status: ('A' for Active; 'I' for Inactive)
REMARK    1  A    between atoms: C_9  and  C_10 
REMARK       I    between atoms: C_10  and  N_23 
REMARK    2  A    between atoms: C_16  and  N_23 
ROOT
ATOM      1  C   UNN dAMED      -0.091  -1.273   0.923  0.00  0.00     0.280 C 
ATOM      2  O   UNN dAMED       0.868  -0.628   0.510  0.00  0.00    -0.265 OA
ATOM      3  N   UNN dAMED      -0.056  -2.371   1.681  0.00  0.00    -0.208 NA
ENDROOT
BRANCH   1   4
ATOM      4  C   UNN dAMED      -1.438  -0.697   0.699  0.00  0.00     0.066 A 
ATOM      5  C   UNN dAMED      -1.868  -0.692  -0.648  0.00  0.00     0.032 A 
ATOM      6  C   UNN dAMED      -3.100  -0.084  -0.843  0.00  0.00     0.119 A 
ATOM      7  O   UNN dAMED      -3.751   0.087  -2.031  0.00  0.00    -0.300 OA
ATOM      8  C   UNN dAMED      -3.863   0.465   0.188  0.00  0.00     0.120 A 
ATOM      9  C   UNN dAMED      -4.896   0.722  -1.653  0.00  0.00     0.304 A 
ATOM     10  O   UNN dAMED      -5.024   0.974  -0.321  0.00  0.00    -0.300 OA
ATOM     11  C   UNN dAMED      -3.464   0.481   1.516  0.00  0.00     0.033 A 
ATOM     12  C   UNN dAMED      -2.204  -0.108   1.746  0.00  0.00     0.041 A 
ATOM     13 BR   UNN dAMED      -1.594  -0.028   3.544  0.00  0.00    -0.049 Br
ENDBRANCH   1   4
BRANCH   3  14
ATOM     14  C   UNN dAMED       0.097  -3.559   1.046  0.00  0.00     0.085 A 
ATOM     15  C   UNN dAMED       0.835  -3.695  -0.143  0.00  0.00     0.019 A 
ATOM     16  C   UNN dAMED       1.066  -4.929  -0.745  0.00  0.00     0.002 A 
ATOM     17  C   UNN dAMED       0.583  -6.086  -0.149  0.00  0.00     0.000 A 
ATOM     18  C   UNN dAMED      -0.136  -6.011   1.038  0.00  0.00     0.002 A 
ATOM     19  C   UNN dAMED      -0.582  -7.192   1.632  0.00  0.00     0.000 A 
ATOM     20  C   UNN dAMED      -0.392  -4.755   1.643  0.00  0.00     0.018 A 
ATOM     21  C   UNN dAMED      -1.290  -7.158   2.830  0.00  0.00     0.000 A 
ATOM     22  C   UNN dAMED      -1.558  -5.940   3.440  0.00  0.00     0.000 A 
ATOM     23  C   UNN dAMED      -1.112  -4.758   2.851  0.00  0.00     0.002 A 
ENDBRANCH   3  14
TORSDOF 2
