REMARK  6 active torsions:
REMARK  status: ('A' for Active; 'I' for Inactive)
REMARK    1  A    between atoms: O_1  and  C_2 
REMARK    2  A    between atoms: O_1  and  C_17 
REMARK    3  A    between atoms: C_4  and  C_21 
REMARK    4  A    between atoms: C_5  and  O_6 
REMARK    5  A    between atoms: O_6  and  C_24 
REMARK    6  A    between atoms: C_15  and  C_29 
ROOT
ATOM      1  C   UNN dAMED      -2.694   0.461   0.202  0.00  0.00     0.105 A 
ATOM      2  C   UNN dAMED      -2.269  -0.872   0.246  0.00  0.00     0.024 A 
ATOM      3  C   UNN dAMED      -1.809   1.495   0.514  0.00  0.00     0.079 A 
ATOM      4  C   UNN dAMED      -0.939  -1.178   0.561  0.00  0.00     0.099 A 
ATOM      5  C   UNN dAMED      -0.034  -0.150   0.806  0.00  0.00     0.032 A 
ATOM      6  C   UNN dAMED      -0.493   1.176   0.807  0.00  0.00     0.097 A 
ATOM      7  O   UNN dAMED       0.459   2.107   1.148  0.00  0.00    -0.332 OA
ATOM      8  C   UNN dAMED       1.588   1.321   1.451  0.00  0.00     0.140 A 
ATOM      9  C   UNN dAMED       1.425  -0.184   1.182  0.00  0.00     0.104 A 
ATOM     10  C   UNN dAMED       2.963   1.919   1.270  0.00  0.00     0.100 C 
ATOM     11  C   UNN dAMED       2.428  -0.703   0.145  0.00  0.00     0.184 C 
ATOM     12  C   UNN dAMED       3.626   1.490   0.010  0.00  0.00     0.181 C 
ATOM     13  C   UNN dAMED       3.375   0.092  -0.411  0.00  0.00     0.104 C 
ATOM     14  O   UNN dAMED       4.579   2.139  -0.401  0.00  0.00    -0.291 OA
ATOM     15  C   UNN dAMED      -3.255  -1.979   0.001  0.00  0.00     0.035 C 
ATOM     16  C   UNN dAMED       1.611  -0.970   2.483  0.00  0.00     0.015 C 
ATOM     17  O   UNN dAMED       2.261  -1.948  -0.009  0.00  0.00    -0.291 OA
ENDROOT
BRANCH   1  18
ATOM     18  O   UNN dAMED      -4.027   0.702  -0.072  0.00  0.00    -0.276 OA
BRANCH  18  19
ATOM     19  C   UNN dAMED      -4.029   0.989  -1.417  0.00  0.00     0.277 C 
ATOM     20  O   UNN dAMED      -5.039   1.352  -2.006  0.00  0.00    -0.264 OA
ATOM     21  C   UNN dAMED      -2.703   1.156  -2.106  0.00  0.00     0.107 C 
ENDBRANCH  18  19
ENDBRANCH   1  18
BRANCH   3  22
ATOM     22  C   UNN dAMED      -2.213   2.906   0.504  0.00  0.00     0.177 C 
ATOM     23  O   UNN dAMED      -3.242   3.271   1.053  0.00  0.00    -0.291 OA
ATOM     24  C   UNN dAMED      -1.178   3.939   0.154  0.00  0.00     0.077 C 
ENDBRANCH   3  22
BRANCH   4  25
ATOM     25  O   UNN dAMED      -0.540  -2.499   0.517  0.00  0.00    -0.277 OA
BRANCH  25  26
ATOM     26  C   UNN dAMED      -1.020  -3.056   1.679  0.00  0.00     0.277 C 
ATOM     27  O   UNN dAMED      -0.665  -4.162   2.067  0.00  0.00    -0.264 OA
ATOM     28  C   UNN dAMED      -2.233  -2.433   2.311  0.00  0.00     0.107 C 
ENDBRANCH  25  26
ENDBRANCH   4  25
BRANCH  13  29
ATOM     29  C   UNN dAMED       4.274  -0.568  -1.396  0.00  0.00     0.179 C 
ATOM     30  O   UNN dAMED       4.630  -0.023  -2.432  0.00  0.00    -0.291 OA
ATOM     31  C   UNN dAMED       4.548  -2.035  -1.213  0.00  0.00     0.077 C 
ENDBRANCH  13  29
TORSDOF 6
