REMARK  9 active torsions:
REMARK  status: ('A' for Active; 'I' for Inactive)
REMARK    1  A    between atoms: N_2  and  N_4 
REMARK    2  A    between atoms: C_11  and  C_32 
REMARK    3  A    between atoms: C_13  and  C_29 
REMARK    4  A    between atoms: C_15  and  C_31 
REMARK    5  A    between atoms: C_20  and  C_28 
REMARK    6  A    between atoms: C_23  and  N_25 
REMARK    7  A    between atoms: C_29  and  N_30 
REMARK    8  A    between atoms: N_30  and  C_31 
REMARK    9  A    between atoms: N_30  and  C_32 
ROOT
ATOM      1  O   UNN dAMED      -0.684  -0.778  -0.748  0.00  0.00    -0.242 OA
ATOM      2  N   UNN dAMED      -2.214  -2.278   0.161  0.00  0.00    -0.075 NA
ATOM      3  O   UNN dAMED       0.037  -2.420   0.675  0.00  0.00    -0.264 OA
ATOM      4  C   UNN dAMED      -2.143  -3.013   1.356  0.00  0.00     0.102 C 
ATOM      5  C   UNN dAMED      -0.685  -3.276   1.507  0.00  0.00     0.118 C 
ATOM      6  C   UNN dAMED      -0.946  -1.743  -0.038  0.00  0.00     0.370 C 
ENDROOT
BRANCH   5   7
ATOM      7  C   UNN dAMED      -0.076  -3.952   2.739  0.00  0.00     0.151 C 
BRANCH   7   8
ATOM      8  N   UNN dAMED       0.539  -5.242   2.605  0.00  0.00    -0.356 N 
BRANCH   8   9
ATOM      9  C   UNN dAMED       0.566  -6.160   1.477  0.00  0.00     0.125 C 
BRANCH   9  10
ATOM     10  C   UNN dAMED       1.568  -5.990   0.367  0.00  0.00    -0.000 A 
ATOM     11  C   UNN dAMED       1.258  -5.194  -0.735  0.00  0.00    -0.002 A 
ATOM     12  C   UNN dAMED       2.163  -5.075  -1.786  0.00  0.00    -0.000 A 
ATOM     13  C   UNN dAMED       3.375  -5.759  -1.740  0.00  0.00    -0.000 A 
ATOM     14  C   UNN dAMED       3.683  -6.563  -0.645  0.00  0.00    -0.000 A 
ATOM     15  C   UNN dAMED       2.778  -6.681   0.407  0.00  0.00    -0.002 A 
ENDBRANCH   9  10
ENDBRANCH   8   9
BRANCH   8  16
ATOM     16  C   UNN dAMED       1.930  -5.479   2.973  0.00  0.00     0.125 C 
BRANCH  16  17
ATOM     17  C   UNN dAMED       2.552  -4.745   4.130  0.00  0.00    -0.000 A 
ATOM     18  C   UNN dAMED       3.118  -3.487   3.931  0.00  0.00    -0.002 A 
ATOM     19  C   UNN dAMED       3.808  -2.863   4.967  0.00  0.00    -0.000 A 
ATOM     20  C   UNN dAMED       3.937  -3.498   6.199  0.00  0.00    -0.000 A 
ATOM     21  C   UNN dAMED       3.376  -4.757   6.397  0.00  0.00    -0.000 A 
ATOM     22  C   UNN dAMED       2.684  -5.382   5.363  0.00  0.00    -0.002 A 
ENDBRANCH  16  17
ENDBRANCH   8  16
ENDBRANCH   7   8
ENDBRANCH   5   7
BRANCH   2  23
ATOM     23  N   UNN dAMED      -3.313  -1.521   0.106  0.00  0.00    -0.179 NA
ATOM     24  C   UNN dAMED      -3.228  -0.279  -0.043  0.00  0.00     0.140 C 
BRANCH  24  25
ATOM     25  C   UNN dAMED      -4.476   0.555  -0.148  0.00  0.00     0.122 A 
ATOM     26  O   UNN dAMED      -5.725   0.018  -0.217  0.00  0.00    -0.285 OA
ATOM     27  C   UNN dAMED      -6.521   1.037  -0.610  0.00  0.00     0.227 A 
ATOM     28  C   UNN dAMED      -5.829   2.203  -0.816  0.00  0.00     0.051 A 
ATOM     29  C   UNN dAMED      -4.478   1.879  -0.527  0.00  0.00     0.030 A 
BRANCH  27  30
ATOM     30  N   UNN dAMED      -7.889   0.717  -0.745  0.00  0.00    -0.089 N 
ATOM     31  O   UNN dAMED      -8.159  -0.391  -1.222  0.00  0.00    -0.530 OA
ATOM     32  O   UNN dAMED      -8.698   1.578  -0.383  0.00  0.00    -0.530 OA
ENDBRANCH  27  30
ENDBRANCH  24  25
ENDBRANCH   2  23
TORSDOF 9
