REMARK  1 active torsions:
REMARK  status: ('A' for Active; 'I' for Inactive)
REMARK    1  A    between atoms: N_6  and  N_16 
ROOT
ATOM      1 CL   UNN dAMED      -3.950  -1.865  -0.309  0.00  0.00    -0.081 Cl
ATOM      2 CL   UNN dAMED      -4.183   1.283  -0.176  0.00  0.00    -0.081 Cl
ATOM      3 CL   UNN dAMED      -1.085  -3.237  -0.209  0.00  0.00    -0.081 Cl
ATOM      4 CL   UNN dAMED      -1.551   3.048   0.055  0.00  0.00    -0.081 Cl
ATOM      5  O   UNN dAMED       1.757  -2.190  -0.000  0.00  0.00    -0.265 OA
ATOM      6  N   UNN dAMED       1.955   0.140   0.117  0.00  0.00    -0.182 N 
ATOM      7  O   UNN dAMED       1.416   2.417   0.187  0.00  0.00    -0.265 OA
ATOM      8  C   UNN dAMED       1.304  -1.061   0.026  0.00  0.00     0.282 A 
ATOM      9  C   UNN dAMED      -0.129  -0.709  -0.039  0.00  0.00     0.075 A 
ATOM     10  C   UNN dAMED      -1.251  -1.518  -0.140  0.00  0.00     0.074 A 
ATOM     11  C   UNN dAMED      -2.511  -0.892  -0.182  0.00  0.00     0.080 A 
ATOM     12  C   UNN dAMED      -0.232   0.683   0.019  0.00  0.00     0.075 A 
ATOM     13  C   UNN dAMED      -2.616   0.524  -0.123  0.00  0.00     0.080 A 
ATOM     14  C   UNN dAMED       1.133   1.236   0.120  0.00  0.00     0.282 A 
ATOM     15  C   UNN dAMED      -1.461   1.324  -0.021  0.00  0.00     0.074 A 
ENDROOT
BRANCH   6  16
ATOM     16  N   UNN dAMED       3.320   0.238   0.197  0.00  0.00    -0.279 N 
ATOM     17  C   UNN dAMED       4.121   0.193  -1.008  0.00  0.00     0.147 C 
ATOM     18  C   UNN dAMED       3.962   0.387   1.486  0.00  0.00     0.147 C 
ENDBRANCH   6  16
TORSDOF 1
