REMARK  1 active torsions:
REMARK  status: ('A' for Active; 'I' for Inactive)
REMARK    1  A    between atoms: C_10  and  C_16 
ROOT
ATOM      1  O   UNN dAMED      -2.916   1.287  -0.392  0.00  0.00    -0.288 OA
ATOM      2  O   UNN dAMED       2.949  -1.079  -0.031  0.00  0.00    -0.309 OA
ATOM      3  C   UNN dAMED      -0.832  -1.708   0.035  0.00  0.00     0.145 C 
ATOM      4  C   UNN dAMED      -2.130  -0.892   0.255  0.00  0.00     0.223 C 
ATOM      5  C   UNN dAMED       0.499  -1.021   0.088  0.00  0.00     0.049 C 
ATOM      6  C   UNN dAMED       1.678  -1.618   0.300  0.00  0.00     0.124 C 
ATOM      7  C   UNN dAMED       0.513   0.407  -0.011  0.00  0.00     0.011 C 
ATOM      8  C   UNN dAMED      -1.955   0.566  -0.123  0.00  0.00     0.209 C 
ATOM      9  C   UNN dAMED      -0.587   1.155  -0.137  0.00  0.00     0.080 C 
ATOM     10  C   UNN dAMED       1.869   1.046   0.092  0.00  0.00     0.021 C 
ATOM     11  C   UNN dAMED       2.970   0.288   0.176  0.00  0.00     0.078 C 
ATOM     12  O   UNN dAMED      -2.540  -0.976   1.495  0.00  0.00    -0.211 OA
ATOM     13  C   UNN dAMED      -3.168  -1.537  -0.674  0.00  0.00     0.048 C 
ATOM     14  O   UNN dAMED      -0.898  -2.989  -0.451  0.00  0.00    -0.192 OA
ATOM     15  C   UNN dAMED       4.270   1.042   0.094  0.00  0.00     0.058 C 
ENDROOT
BRANCH   9  16
ATOM     16  C   UNN dAMED      -0.444   2.648  -0.276  0.00  0.00     0.237 C 
ATOM     17  O   UNN dAMED      -0.639   3.370   0.660  0.00  0.00    -0.283 OA
ENDBRANCH   9  16
TORSDOF 1
