REMARK  4 active torsions:
REMARK  status: ('A' for Active; 'I' for Inactive)
REMARK    1  A    between atoms: C_3  and  C_9 
REMARK    2  A    between atoms: C_4  and  C_11 
REMARK    3  A    between atoms: C_9  and  O_14 
REMARK    4  A    between atoms: O_14  and  C_15 
ROOT
ATOM      1  C   UNN dAMED      -0.571   1.685   0.805  0.00  0.00     0.053 C 
ATOM      2  C   UNN dAMED      -1.988   1.500   0.342  0.00  0.00    -0.047 C 
ATOM      3  C   UNN dAMED       0.461   0.622   0.436  0.00  0.00     0.047 C 
ATOM      4  C   UNN dAMED      -0.091  -0.794   0.237  0.00  0.00     0.048 C 
ATOM      5  C   UNN dAMED      -2.479   0.277   0.128  0.00  0.00    -0.047 C 
ATOM      6  C   UNN dAMED      -1.614  -0.941   0.322  0.00  0.00     0.054 C 
ATOM      7  C   UNN dAMED      -2.872   2.704   0.193  0.00  0.00     0.026 C 
ATOM      8  C   UNN dAMED      -3.920   0.110  -0.265  0.00  0.00     0.026 C 
ENDROOT
BRANCH   3   9
ATOM      9  C   UNN dAMED       1.896   0.847   0.839  0.00  0.00     0.292 C 
ATOM     10  O   UNN dAMED       2.389   0.122   1.692  0.00  0.00    -0.260 OA
BRANCH   9  11
ATOM     11  O   UNN dAMED       2.539   1.939   0.346  0.00  0.00    -0.299 OA
BRANCH  11  12
ATOM     12  C   UNN dAMED       3.632   2.130   1.196  0.00  0.00     0.152 C 
ATOM     13  C   UNN dAMED       4.891   1.271   1.036  0.00  0.00     0.035 C 
ENDBRANCH  11  12
ENDBRANCH   9  11
ENDBRANCH   3   9
BRANCH   4  14
ATOM     14  C   UNN dAMED       0.707  -1.828  -0.516  0.00  0.00     0.207 C 
ATOM     15  O   UNN dAMED       1.297  -2.710   0.177  0.00  0.00    -0.644 OA
ATOM     16  O   UNN dAMED       0.724  -1.712  -1.778  0.00  0.00    -0.644 OA
ENDBRANCH   4  14
TORSDOF 4
