REMARK  3 active torsions:
REMARK  status: ('A' for Active; 'I' for Inactive)
REMARK    1  A    between atoms: C_4  and  N_16 
REMARK    2  A    between atoms: C_10  and  C_20 
REMARK    3  A    between atoms: N_16  and  C_17 
REMARK       I    between atoms: N_19  and  C_20 
ROOT
ATOM      1  C   UNN dAMED      -1.284  -1.298  -1.679  0.00  0.00     0.224 C 
ATOM      2  S   UNN dAMED      -2.283  -0.862  -2.985  0.00  0.00    -0.037 SA
ATOM      3  N   UNN dAMED      -0.050  -1.786  -1.919  0.00  0.00    -0.179 NA
ATOM      4  C   UNN dAMED       0.041  -3.103  -1.681  0.00  0.00     0.281 C 
ATOM      5  O   UNN dAMED      -0.481  -4.010  -2.323  0.00  0.00    -0.265 OA
ENDROOT
BRANCH   1   6
ATOM      6  N   UNN dAMED      -1.466  -1.082  -0.356  0.00  0.00    -0.214 NA
BRANCH   6   7
ATOM      7  C   UNN dAMED      -2.667  -0.627   0.083  0.00  0.00     0.123 A 
ATOM      8  C   UNN dAMED      -3.801  -1.475   0.309  0.00  0.00     0.213 A 
ATOM      9  C   UNN dAMED      -4.936  -0.829   0.850  0.00  0.00     0.044 A 
ATOM     10  O   UNN dAMED      -3.837  -2.729   0.063  0.00  0.00    -0.285 OA
ATOM     11  C   UNN dAMED      -4.990   0.521   1.193  0.00  0.00     0.015 A 
ATOM     12  C   UNN dAMED      -3.873   1.300   0.985  0.00  0.00     0.059 A 
ATOM     13 CL   UNN dAMED      -3.865   2.948   1.451  0.00  0.00    -0.082 Cl
ATOM     14  C   UNN dAMED      -2.732   0.736   0.438  0.00  0.00     0.034 A 
ENDBRANCH   6   7
ENDBRANCH   1   6
BRANCH   4  15
ATOM     15  C   UNN dAMED       0.969  -3.466  -0.584  0.00  0.00     0.058 A 
ATOM     16  C   UNN dAMED       0.690  -4.576   0.214  0.00  0.00     0.005 A 
ATOM     17  C   UNN dAMED       1.574  -4.932   1.233  0.00  0.00     0.001 A 
ATOM     18  C   UNN dAMED       2.719  -4.171   1.466  0.00  0.00     0.007 A 
ATOM     19  C   UNN dAMED       2.980  -3.061   0.669  0.00  0.00     0.035 A 
ATOM     20 BR   UNN dAMED       4.487  -1.987   1.008  0.00  0.00    -0.049 Br
ATOM     21  C   UNN dAMED       2.122  -2.712  -0.365  0.00  0.00     0.011 A 
ENDBRANCH   4  15
TORSDOF 3
