REMARK  2 active torsions:
REMARK  status: ('A' for Active; 'I' for Inactive)
REMARK    1  A    between atoms: C_6  and  C_9 
REMARK    2  A    between atoms: C_9  and  C_10 
ROOT
ATOM      1  C   UNN dAMED      -2.912  -0.195  -0.999  0.00  0.00     0.031 A 
ATOM      2 CL   UNN dAMED      -4.706   0.945   0.652  0.00  0.00    -0.061 Cl
ATOM      3  C   UNN dAMED      -1.624  -0.641  -1.271  0.00  0.00     0.007 A 
ATOM      4  C   UNN dAMED      -3.133   0.400   0.233  0.00  0.00     0.139 A 
ATOM      5  N   UNN dAMED      -2.189   0.601   1.178  0.00  0.00    -0.233 NA
ATOM      6  C   UNN dAMED      -0.634  -0.475  -0.311  0.00  0.00     0.059 A 
ATOM      7  C   UNN dAMED      -0.946   0.166   0.878  0.00  0.00     0.103 A 
ENDROOT
BRANCH   6   8
ATOM      8  C   UNN dAMED       0.740  -0.904  -0.597  0.00  0.00     0.203 C 
ATOM      9  O   UNN dAMED       1.387  -0.259  -1.417  0.00  0.00    -0.286 OA
BRANCH   8  10
ATOM     10  C   UNN dAMED       1.230  -2.091   0.056  0.00  0.00     0.068 A 
ATOM     11  C   UNN dAMED       1.400  -3.344  -0.489  0.00  0.00     0.010 A 
ATOM     12  C   UNN dAMED       1.987  -4.255   0.421  0.00  0.00     0.008 A 
ATOM     13  C   UNN dAMED       2.243  -3.659   1.626  0.00  0.00     0.035 A 
ATOM     14  S   UNN dAMED       1.810  -2.019   1.665  0.00  0.00    -0.083 SA
ENDBRANCH   8  10
ENDBRANCH   6   8
TORSDOF 2
