REMARK  5 active torsions:
REMARK  status: ('A' for Active; 'I' for Inactive)
REMARK    1  A    between atoms: N_1  and  C_25 
REMARK    2  A    between atoms: N_19  and  C_20 
REMARK    3  A    between atoms: N_19  and  C_21 
REMARK    4  A    between atoms: N_19  and  C_24 
REMARK    5  A    between atoms: C_24  and  C_25 
ROOT
ATOM      1  N   UNN dAMED      -0.215  -0.793   0.034  0.00  0.00    -0.325 N 
ATOM      2  S   UNN dAMED      -2.627  -2.687  -0.755  0.00  0.00    -0.084 SA
ATOM      3  C   UNN dAMED      -0.637   3.407   0.507  0.00  0.00     0.000 A 
ATOM      4  C   UNN dAMED      -0.501   2.030   0.345  0.00  0.00     0.002 A 
ATOM      5  C   UNN dAMED      -1.880   4.005   0.335  0.00  0.00     0.000 A 
ATOM      6  C   UNN dAMED      -2.983   3.225   0.001  0.00  0.00     0.000 A 
ATOM      7  C   UNN dAMED      -1.598   1.219   0.009  0.00  0.00     0.016 A 
ATOM      8  C   UNN dAMED      -2.852   1.847  -0.162  0.00  0.00     0.001 A 
ATOM      9  C   UNN dAMED      -1.486  -0.185  -0.161  0.00  0.00     0.066 A 
ATOM     10  C   UNN dAMED      -3.969   1.092  -0.497  0.00  0.00     0.001 A 
ATOM     11  C   UNN dAMED      -2.627  -0.928  -0.503  0.00  0.00     0.045 A 
ATOM     12  C   UNN dAMED      -3.855  -0.282  -0.667  0.00  0.00     0.008 A 
ATOM     13  C   UNN dAMED       1.337  -2.624   0.203  0.00  0.00     0.018 A 
ATOM     14  C   UNN dAMED       1.667  -3.974   0.129  0.00  0.00     0.002 A 
ATOM     15  C   UNN dAMED       0.035  -2.181  -0.063  0.00  0.00     0.066 A 
ATOM     16  C   UNN dAMED      -0.944  -3.119  -0.401  0.00  0.00     0.045 A 
ATOM     17  C   UNN dAMED       0.692  -4.903  -0.212  0.00  0.00     0.001 A 
ATOM     18  C   UNN dAMED      -0.606  -4.474  -0.474  0.00  0.00     0.008 A 
ENDROOT
BRANCH   1  19
ATOM     19  C   UNN dAMED       0.873   0.060   0.496  0.00  0.00     0.141 C 
BRANCH  19  20
ATOM     20  C   UNN dAMED       1.044   0.376   1.992  0.00  0.00     0.275 C 
BRANCH  20  21
ATOM     21  N   UNN dAMED       0.170  -0.199   2.983  0.00  0.00     0.139 N 
BRANCH  21  22
ATOM     22  C   UNN dAMED       0.226   0.259   4.371  0.00  0.00     0.250 C 
ATOM     23  C   UNN dAMED       0.700   1.681   4.688  0.00  0.00     0.037 C 
ENDBRANCH  21  22
BRANCH  21  24
ATOM     24  C   UNN dAMED      -1.262   0.018   3.172  0.00  0.00     0.250 C 
ATOM     25  C   UNN dAMED      -2.140   0.429   1.985  0.00  0.00     0.037 C 
ENDBRANCH  21  24
ENDBRANCH  20  21
ENDBRANCH  19  20
ENDBRANCH   1  19
TORSDOF 5
