REMARK  2 active torsions:
REMARK  status: ('A' for Active; 'I' for Inactive)
REMARK    1  A    between atoms: C_5  and  C_11 
REMARK    2  A    between atoms: C_10  and  C_11 
REMARK       I    between atoms: C_10  and  N_12 
ROOT
ATOM      1  H   UNN dAMED      -0.174  -1.233  -0.167  0.00  0.00     0.152 HD
ATOM      2  H   UNN dAMED      -2.699  -1.333   0.308  0.00  0.00     0.184 HD
ATOM      3  N   UNN dAMED      -0.767  -0.580   0.341  0.00  0.00    -0.205 NA
ATOM      4  N   UNN dAMED      -2.098  -0.634  -0.111  0.00  0.00    -0.283 N 
ATOM      5  C   UNN dAMED      -0.296   0.726   0.239  0.00  0.00     0.043 C 
ATOM      6  C   UNN dAMED      -2.487   0.676  -0.318  0.00  0.00     0.268 C 
ATOM      7  O   UNN dAMED      -3.612   1.144  -0.376  0.00  0.00    -0.266 OA
ATOM      8  C   UNN dAMED      -1.282   1.543  -0.127  0.00  0.00     0.070 C 
ENDROOT
BRANCH   5   9
ATOM      9  C   UNN dAMED       1.151   0.983  -0.078  0.00  0.00     0.131 C 
BRANCH   9  10
ATOM     10  C   UNN dAMED       1.647   1.101  -1.504  0.00  0.00     0.281 C 
ATOM     11  O   UNN dAMED       0.859   0.861  -2.412  0.00  0.00    -0.268 OA
ATOM     12  N   UNN dAMED       2.917   1.457  -1.652  0.00  0.00    -0.089 NA
ATOM     13  N   UNN dAMED       3.493   1.542  -2.982  0.00  0.00    -0.020 N 
ENDBRANCH   9  10
ENDBRANCH   5   9
TORSDOF 2
