REMARK  0 active torsions:
REMARK  status: ('A' for Active; 'I' for Inactive)
ROOT
ATOM      1  C   UNN dAMED      -4.587   0.016  -0.556  0.00  0.00     0.000 A 
ATOM      2  C   UNN dAMED      -3.933  -0.095  -1.781  0.00  0.00     0.000 A 
ATOM      3  C   UNN dAMED      -3.851   0.104   0.624  0.00  0.00     0.000 A 
ATOM      4  C   UNN dAMED      -2.540  -0.118  -1.831  0.00  0.00     0.000 A 
ATOM      5  C   UNN dAMED      -2.456   0.082   0.583  0.00  0.00     0.000 A 
ATOM      6  C   UNN dAMED      -1.793  -0.031  -0.656  0.00  0.00     0.000 A 
ATOM      7  C   UNN dAMED      -1.706   0.169   1.755  0.00  0.00     0.000 A 
ATOM      8  C   UNN dAMED      -0.395  -0.058  -0.693  0.00  0.00     0.000 A 
ATOM      9  C   UNN dAMED       0.370   0.034   0.479  0.00  0.00     0.004 A 
ATOM     10  C   UNN dAMED      -0.311   0.150   1.698  0.00  0.00     0.000 A 
ATOM     11  C   UNN dAMED       2.569   0.828  -0.409  0.00  0.00     0.154 A 
ATOM     12  C   UNN dAMED       1.828   0.009   0.431  0.00  0.00     0.050 A 
ATOM     13  C   UNN dAMED       2.591  -0.837   1.221  0.00  0.00     0.103 A 
ATOM     14  N   UNN dAMED       3.921   0.818  -0.473  0.00  0.00    -0.210 NA
ATOM     15  N   UNN dAMED       3.940  -0.891   1.213  0.00  0.00    -0.223 NA
ATOM     16  C   UNN dAMED       4.538  -0.049   0.352  0.00  0.00     0.200 A 
ATOM     17  N   UNN dAMED       1.867   1.724  -1.265  0.00  0.00    -0.080 NA
ENDROOT
TORSDOF 0
