REMARK  2 active torsions:
REMARK  status: ('A' for Active; 'I' for Inactive)
REMARK    1  A    between atoms: C_1  and  C_8 
REMARK    2  A    between atoms: C_8  and  N_9 
REMARK       I    between atoms: N_9  and  C_10 
ROOT
ATOM      1  C   UNN dAMED       0.335  -1.468   1.197  0.00  0.00     0.143 C 
ATOM      2  C   UNN dAMED       0.888  -2.171  -0.046  0.00  0.00     0.064 C 
ATOM      3  C   UNN dAMED      -0.108  -2.851  -0.979  0.00  0.00     0.008 C 
ATOM      4  C   UNN dAMED      -0.893  -0.472   0.611  0.00  0.00     0.064 C 
ATOM      5  C   UNN dAMED      -1.266  -1.978  -1.472  0.00  0.00     0.001 C 
ATOM      6  C   UNN dAMED      -1.874  -1.044  -0.431  0.00  0.00     0.007 C 
ATOM      7  C   UNN dAMED      -3.129  -0.255  -0.813  0.00  0.00     0.000 C 
ATOM      8  O   UNN dAMED       1.247  -0.732   1.755  0.00  0.00    -0.297 OA
ENDROOT
BRANCH   1   9
ATOM      9  C   UNN dAMED      -0.874  -0.487   0.619  0.00  0.00     0.132 C 
BRANCH   9  10
ATOM     10  N   UNN dAMED      -2.292  -0.847   0.734  0.00  0.00    -0.208 NA
ATOM     11  C   UNN dAMED      -2.685  -1.913   1.425  0.00  0.00     0.256 C 
ATOM     12  O   UNN dAMED      -1.977  -2.831   1.810  0.00  0.00    -0.270 OA
ATOM     13  C   UNN dAMED      -4.149  -2.018   1.727  0.00  0.00     0.100 C 
ENDBRANCH   9  10
ENDBRANCH   1   9
TORSDOF 2
