REMARK  3 active torsions:
REMARK  status: ('A' for Active; 'I' for Inactive)
REMARK    1  A    between atoms: C_4  and  C_17 
REMARK    2  A    between atoms: C_11  and  N_16 
REMARK    3  A    between atoms: C_12  and  C_19 
REMARK       I    between atoms: N_16  and  C_17 
ROOT
ATOM      1  C   UNN dAMED      -1.571   1.858   1.131  0.00  0.00     0.133 C 
ATOM      2  O   UNN dAMED      -2.206  -1.855  -1.859  0.00  0.00    -0.259 OA
ATOM      3  O   UNN dAMED      -1.271  -1.888   0.213  0.00  0.00    -0.292 OA
ATOM      4  C   UNN dAMED      -3.459   0.561  -0.690  0.00  0.00     0.181 C 
ATOM      5  C   UNN dAMED      -3.670   2.007  -0.317  0.00  0.00     0.125 C 
ATOM      6  C   UNN dAMED      -2.190   0.137  -0.526  0.00  0.00     0.080 C 
ATOM      7  C   UNN dAMED      -1.829  -1.268  -0.855  0.00  0.00     0.295 C 
ATOM      8  C   UNN dAMED      -2.932   2.527   0.903  0.00  0.00     0.138 C 
ATOM      9  C   UNN dAMED      -1.052   0.988  -0.025  0.00  0.00     0.143 C 
ATOM     10  C   UNN dAMED       0.181   0.057  -0.001  0.00  0.00     0.074 C 
ATOM     11  C   UNN dAMED       0.020  -1.371   0.545  0.00  0.00     0.171 C 
ATOM     12  O   UNN dAMED      -3.188   3.807   1.330  0.00  0.00    -0.193 OA
ATOM     13  O   UNN dAMED      -4.507   0.005  -1.109  0.00  0.00    -0.291 OA
ATOM     14  O   UNN dAMED      -1.063   1.707   2.399  0.00  0.00    -0.193 OA
ATOM     15  C   UNN dAMED       1.154  -2.388  -0.069  0.00  0.00     0.043 C 
ENDROOT
BRANCH  10  16
ATOM     16  N   UNN dAMED       1.548   0.558  -0.193  0.00  0.00    -0.216 NA
ATOM     17  C   UNN dAMED       1.820   1.822  -0.491  0.00  0.00     0.283 C 
ATOM     18  O   UNN dAMED       1.785   2.347  -1.599  0.00  0.00    -0.269 OA
BRANCH  17  19
ATOM     19  C   UNN dAMED       2.234   2.590   0.731  0.00  0.00     0.413 C 
ATOM     20  N   UNN dAMED       1.627   3.910   0.689  0.00  0.00     0.616 N 
ATOM     21  C   UNN dAMED       3.757   2.766   0.723  0.00  0.00     0.041 C 
ENDBRANCH  17  19
ENDBRANCH  10  16
BRANCH  11  22
ATOM     22  C   UNN dAMED       1.165  -2.400  -0.074  0.00  0.00     0.123 C 
ATOM     23 CL   UNN dAMED       1.395  -2.507  -1.814  0.00  0.00    -0.072 Cl
ATOM     24 CL   UNN dAMED       1.606  -3.801   0.883  0.00  0.00    -0.072 Cl
ENDBRANCH  11  22
TORSDOF 3
