REMARK  4 active torsions:
REMARK  status: ('A' for Active; 'I' for Inactive)
REMARK    1  A    between atoms: O_1  and  C_3 
REMARK    2  A    between atoms: C_3  and  C_4 
REMARK    3  A    between atoms: C_11  and  C_14 
REMARK    4  A    between atoms: C_14  and  O_17 
ROOT
ATOM      1  C   UNN dAMED      -1.395  -1.380   0.386  0.00  0.00     0.058 C 
ATOM      2  C   UNN dAMED      -2.199  -0.546  -0.287  0.00  0.00     0.035 C 
ATOM      3  C   UNN dAMED      -0.022  -0.998   0.850  0.00  0.00     0.077 C 
ATOM      4  N   UNN dAMED      -1.974   0.742  -0.723  0.00  0.00    -0.360 N 
ATOM      5  H   UNN dAMED      -2.821   1.169  -1.092  0.00  0.00     0.165 HD
ATOM      6  C   UNN dAMED       0.762   0.080   0.112  0.00  0.00     0.057 C 
ATOM      7  C   UNN dAMED      -1.072   1.683  -0.274  0.00  0.00     0.040 C 
ATOM      8  C   UNN dAMED       0.180   1.468   0.144  0.00  0.00     0.087 C 
ATOM      9  O   UNN dAMED       3.416   0.277   0.823  0.00  0.00    -0.272 OA
ATOM     10  C   UNN dAMED       3.080  -0.050  -0.304  0.00  0.00     0.243 C 
ATOM     11  N   UNN dAMED       1.818  -0.305  -0.777  0.00  0.00    -0.252 N 
ATOM     12  C   UNN dAMED       3.972   0.236  -1.483  0.00  0.00     0.098 C 
ATOM     13  C   UNN dAMED       1.663   0.016  -2.103  0.00  0.00     0.243 C 
ATOM     14  O   UNN dAMED       0.660   0.358  -2.708  0.00  0.00    -0.272 OA
ATOM     15  C   UNN dAMED       3.028   0.277  -2.683  0.00  0.00     0.098 C 
ATOM     16  C   UNN dAMED      -3.551  -1.112  -0.632  0.00  0.00     0.050 C 
ATOM     17  C   UNN dAMED      -1.537   3.114  -0.282  0.00  0.00     0.050 C 
ENDROOT
BRANCH   8  18
ATOM     18  C   UNN dAMED       0.920   2.621   0.654  0.00  0.00     0.298 C 
ATOM     19  O   UNN dAMED       1.336   3.549  -0.017  0.00  0.00    -0.259 OA
BRANCH  18  20
ATOM     20  O   UNN dAMED       1.114   2.453   1.981  0.00  0.00    -0.296 OA
ATOM     21  C   UNN dAMED       1.542   1.131   2.120  0.00  0.00     0.185 C 
ENDBRANCH  18  20
ENDBRANCH   8  18
BRANCH   1  22
ATOM     22  C   UNN dAMED      -2.008  -2.625   0.869  0.00  0.00     0.293 C 
ATOM     23  O   UNN dAMED      -2.932  -3.231   0.355  0.00  0.00    -0.259 OA
BRANCH  22  24
ATOM     24  O   UNN dAMED      -1.354  -2.992   1.995  0.00  0.00    -0.296 OA
ATOM     25  C   UNN dAMED      -1.890  -4.234   2.339  0.00  0.00     0.185 C 
ENDBRANCH  22  24
ENDBRANCH   1  22
TORSDOF 4
