REMARK  1 active torsions:
REMARK  status: ('A' for Active; 'I' for Inactive)
REMARK    1  A    between atoms: C_2  and  C_14 
ROOT
ATOM      1  C   UNN dAMED      -2.595  -0.203  -0.184  0.00  0.00     0.175 C 
ATOM      2  C   UNN dAMED      -1.760  -0.675  -1.367  0.00  0.00     0.231 C 
ATOM      3  O   UNN dAMED      -1.871   0.337   0.909  0.00  0.00    -0.317 OA
ATOM      4  O   UNN dAMED      -0.135  -2.336   1.042  0.00  0.00    -0.251 OA
ATOM      5  N   UNN dAMED       1.305  -2.059   2.789  0.00  0.00    -0.183 NA
ATOM      6  C   UNN dAMED      -0.347  -0.536  -0.866  0.00  0.00     0.175 C 
ATOM      7  C   UNN dAMED       0.480  -1.575   1.794  0.00  0.00     0.335 C 
ATOM      8  C   UNN dAMED      -0.529   0.034   0.546  0.00  0.00     0.170 C 
ATOM      9  C   UNN dAMED       1.574  -1.290   3.789  0.00  0.00     0.156 C 
ATOM     10  N   UNN dAMED       0.439  -0.205   1.568  0.00  0.00    -0.138 NA
ATOM     11  C   UNN dAMED       0.281   0.479   2.806  0.00  0.00     0.064 C 
ATOM     12  C   UNN dAMED       0.886   0.024   3.897  0.00  0.00     0.047 C 
ATOM     13  O   UNN dAMED      -2.156  -1.771  -2.087  0.00  0.00    -0.213 OA
ATOM     14  O   UNN dAMED       0.643  -0.058  -1.690  0.00  0.00    -0.189 OA
ATOM     15  N   UNN dAMED       2.326  -1.796   4.885  0.00  0.00    -0.080 NA
ENDROOT
BRANCH   1  16
ATOM     16  C   UNN dAMED      -4.124  -0.125  -0.246  0.00  0.00     0.128 C 
ATOM     17 CL   UNN dAMED      -5.092  -1.066   0.875  0.00  0.00    -0.111 Cl
ENDBRANCH   1  16
TORSDOF 1
