REMARK  4 active torsions:
REMARK  status: ('A' for Active; 'I' for Inactive)
REMARK    1  A    between atoms: C_3  and  O_16 
REMARK    2  A    between atoms: C_6  and  C_13 
REMARK    3  A    between atoms: C_13  and  C_14 
REMARK    4  A    between atoms: C_14  and  O_16 
ROOT
ATOM      1  C   UNN dAMED      -1.549   4.070  -2.289  0.00  0.00     0.126 C 
ENDROOT
BRANCH   1   2
ATOM      2  C   UNN dAMED      -0.969   4.626  -3.595  0.00  0.00     0.136 C 
ATOM      3  C   UNN dAMED       0.374   5.257  -3.953  0.00  0.00     0.031 C 
ATOM      4  C   UNN dAMED       0.847   5.173  -5.409  0.00  0.00     0.003 C 
ATOM      5  C   UNN dAMED       0.815   3.774  -6.011  0.00  0.00     0.000 C 
ATOM      6  C   UNN dAMED      -0.392   2.953  -5.572  0.00  0.00     0.003 C 
ATOM      7  C   UNN dAMED      -0.824   3.162  -4.116  0.00  0.00     0.031 C 
ATOM      8  O   UNN dAMED      -1.914   5.230  -4.268  0.00  0.00    -0.226 OA
ENDBRANCH   1   2
BRANCH   1   9
ATOM      9  C   UNN dAMED      -1.715   2.585  -2.075  0.00  0.00     0.274 C 
ATOM     10  O   UNN dAMED      -2.737   2.186  -1.532  0.00  0.00    -0.264 OA
BRANCH   9  11
ATOM     11  O   UNN dAMED      -0.688   1.759  -2.409  0.00  0.00    -0.304 OA
BRANCH  11  12
ATOM     12  C   UNN dAMED       0.252   2.588  -3.025  0.00  0.00     0.124 C 
ATOM     13  C   UNN dAMED       1.383   3.251  -2.236  0.00  0.00     0.030 C 
ATOM     14  C   UNN dAMED       1.845   4.471  -3.041  0.00  0.00     0.003 C 
ATOM     15  C   UNN dAMED       0.918   4.619  -4.256  0.00  0.00     0.003 C 
ATOM     16  C   UNN dAMED      -0.116   3.490  -4.204  0.00  0.00     0.030 C 
ENDBRANCH  11  12
ENDBRANCH   9  11
ENDBRANCH   1   9
TORSDOF 4
