REMARK  3 active torsions:
REMARK  status: ('A' for Active; 'I' for Inactive)
REMARK    1  A    between atoms: O_1  and  C_17 
REMARK    2  A    between atoms: O_1  and  C_23 
REMARK    3  A    between atoms: C_20  and  C_23 
ROOT
ATOM      1  O   UNN dAMED       5.635  -1.746  -1.193  0.00  0.00    -0.296 OA
ATOM      2  C   UNN dAMED       4.874  -0.816  -0.980  0.00  0.00     0.149 C 
ATOM      3  C   UNN dAMED       5.406   0.572  -0.753  0.00  0.00     0.064 C 
ATOM      4  C   UNN dAMED       3.524  -0.928  -0.319  0.00  0.00     0.046 C 
ATOM      5  C   UNN dAMED       2.483  -1.746  -1.050  0.00  0.00     0.006 C 
ATOM      6  C   UNN dAMED       1.069  -1.196  -0.825  0.00  0.00    -0.002 C 
ATOM      7  C   UNN dAMED       4.242   1.370  -0.181  0.00  0.00     0.002 C 
ATOM      8  C   UNN dAMED       2.995   0.511  -0.403  0.00  0.00     0.020 C 
ATOM      9  C   UNN dAMED       0.812  -0.387   0.472  0.00  0.00     0.036 C 
ATOM     10  C   UNN dAMED       1.853   0.756   0.556  0.00  0.00     0.012 C 
ATOM     11  C   UNN dAMED      -0.645  -0.019   0.521  0.00  0.00    -0.033 A 
ATOM     12  C   UNN dAMED      -1.578  -1.048   0.347  0.00  0.00    -0.003 A 
ATOM     13  C   UNN dAMED      -2.946  -0.792   0.392  0.00  0.00     0.024 A 
ATOM     14  C   UNN dAMED       1.203   2.085   0.173  0.00  0.00    -0.002 C 
ATOM     15  C   UNN dAMED      -1.120   1.281   0.724  0.00  0.00    -0.025 A 
ATOM     16  C   UNN dAMED      -3.382   0.507   0.614  0.00  0.00     0.094 A 
ATOM     17  C   UNN dAMED      -0.132   2.393   0.822  0.00  0.00     0.026 C 
ATOM     18  C   UNN dAMED      -2.485   1.552   0.782  0.00  0.00     0.020 A 
ATOM     19  C   UNN dAMED       3.722  -1.282   1.154  0.00  0.00     0.007 C 
ENDROOT
BRANCH  16  20
ATOM     20  O   UNN dAMED      -4.720   0.764   0.666  0.00  0.00    -0.319 OA
BRANCH  20  21
ATOM     21  C   UNN dAMED      -5.339  -0.433   0.293  0.00  0.00     0.246 C 
BRANCH  21  22
ATOM     22  C   UNN dAMED      -6.786  -0.679   0.637  0.00  0.00     0.217 C 
ATOM     23  O   UNN dAMED      -7.647  -0.107  -0.096  0.00  0.00    -0.645 OA
ATOM     24  O   UNN dAMED      -7.009  -1.444   1.622  0.00  0.00    -0.645 OA
ENDBRANCH  21  22
ENDBRANCH  20  21
ENDBRANCH  16  20
TORSDOF 3
