REMARK  4 active torsions:
REMARK  status: ('A' for Active; 'I' for Inactive)
REMARK    1  A    between atoms: N_5  and  C_17 
REMARK    2  A    between atoms: C_13  and  C_17 
REMARK    3  A    between atoms: C_14  and  C_18 
REMARK    4  A    between atoms: C_18  and  O_20 
ROOT
ATOM      1  C   UNN dAMED      -0.623  -0.158   0.380  0.00  0.00     0.058 C 
ENDROOT
BRANCH   1   2
ATOM      2  N   UNN dAMED      -1.581   0.379  -0.535  0.00  0.00    -0.175 NA
ATOM      3  C   UNN dAMED      -2.738  -0.323  -0.390  0.00  0.00     0.150 A 
ATOM      4  N   UNN dAMED      -2.923  -1.642  -0.545  0.00  0.00    -0.210 NA
ATOM      5  C   UNN dAMED      -3.685   0.625  -0.030  0.00  0.00     0.140 A 
ATOM      6  C   UNN dAMED      -4.214  -1.971  -0.312  0.00  0.00     0.201 A 
ATOM      7  N   UNN dAMED      -5.246  -1.166   0.037  0.00  0.00    -0.211 NA
ATOM      8  C   UNN dAMED      -4.966   0.140   0.179  0.00  0.00     0.160 A 
ATOM      9 CL   UNN dAMED      -6.194   1.206   0.653  0.00  0.00    -0.060 Cl
ATOM     10  N   UNN dAMED      -3.114   1.871   0.059  0.00  0.00    -0.226 NA
ATOM     11  C   UNN dAMED      -1.835   1.679  -0.196  0.00  0.00     0.158 A 
ENDBRANCH   1   2
BRANCH   1  12
ATOM     12  C   UNN dAMED       0.862  -0.208   0.087  0.00  0.00     0.012 A 
ATOM     13  C   UNN dAMED       1.744  -0.548   1.112  0.00  0.00     0.001 A 
ATOM     14  C   UNN dAMED       3.107  -0.669   0.848  0.00  0.00     0.005 A 
ATOM     15  C   UNN dAMED       3.589  -0.449  -0.443  0.00  0.00     0.063 A 
ATOM     16  C   UNN dAMED       2.715  -0.095  -1.467  0.00  0.00     0.005 A 
ATOM     17  C   UNN dAMED       1.352   0.015  -1.201  0.00  0.00     0.001 A 
BRANCH  15  18
ATOM     18  C   UNN dAMED       5.037  -0.562  -0.674  0.00  0.00     0.296 C 
ATOM     19  O   UNN dAMED       5.869  -0.613   0.216  0.00  0.00    -0.259 OA
BRANCH  18  20
ATOM     20  O   UNN dAMED       5.322  -0.571  -1.995  0.00  0.00    -0.296 OA
ATOM     21  C   UNN dAMED       6.617  -0.053  -2.082  0.00  0.00     0.185 C 
ENDBRANCH  18  20
ENDBRANCH  15  18
ENDBRANCH   1  12
TORSDOF 4
