REMARK  7 active torsions:
REMARK  status: ('A' for Active; 'I' for Inactive)
REMARK    1  A    between atoms: N_9  and  C_26 
REMARK    2  A    between atoms: O_12  and  C_13 
REMARK    3  A    between atoms: O_12  and  C_27 
REMARK    4  A    between atoms: C_13  and  C_15 
REMARK    5  A    between atoms: C_15  and  O_16 
REMARK    6  A    between atoms: O_16  and  C_17 
REMARK    7  A    between atoms: C_26  and  C_27 
ROOT
ATOM      1  C   UNN dAMED      -0.147  -0.900   0.239  0.00  0.00     0.170 C 
ENDROOT
BRANCH   1   2
ATOM      2  O   UNN dAMED       0.980  -0.365  -0.389  0.00  0.00    -0.298 OA
BRANCH   2   3
ATOM      3  C   UNN dAMED       0.936   0.959  -0.110  0.00  0.00     0.297 C 
ATOM      4  O   UNN dAMED       1.789   1.769  -0.440  0.00  0.00    -0.262 OA
BRANCH   3   5
ATOM      5  C   UNN dAMED      -0.320   1.293   0.626  0.00  0.00     0.175 C 
ATOM      6  C   UNN dAMED      -0.671   2.761   0.381  0.00  0.00     0.041 C 
ATOM      7  C   UNN dAMED      -1.429   0.327   0.210  0.00  0.00     0.041 C 
BRANCH   5   8
ATOM      8  O   UNN dAMED      -0.016   1.114   2.005  0.00  0.00    -0.326 OA
BRANCH   8   9
ATOM      9  C   UNN dAMED      -0.722   2.006   2.767  0.00  0.00     0.095 A 
ATOM     10  C   UNN dAMED      -0.770   1.751   4.137  0.00  0.00     0.025 A 
ATOM     11  C   UNN dAMED      -1.388   2.659   4.993  0.00  0.00     0.013 A 
ATOM     12  C   UNN dAMED      -1.955   3.819   4.472  0.00  0.00     0.058 A 
ATOM     13  C   UNN dAMED      -1.913   4.082   3.107  0.00  0.00     0.013 A 
ATOM     14 CL   UNN dAMED      -2.687   4.954   5.529  0.00  0.00    -0.082 Cl
ATOM     15  C   UNN dAMED      -1.283   3.178   2.257  0.00  0.00     0.025 A 
ENDBRANCH   8   9
ENDBRANCH   5   8
ENDBRANCH   3   5
ENDBRANCH   2   3
ENDBRANCH   1   2
BRANCH   1  16
ATOM     16  C   UNN dAMED      -1.502  -0.194   0.123  0.00  0.00     0.116 C 
BRANCH  16  17
ATOM     17  N   UNN dAMED      -2.685  -0.975   0.015  0.00  0.00    -0.206 NA
ATOM     18  C   UNN dAMED      -3.774  -0.163   0.020  0.00  0.00     0.133 C 
ATOM     19  C   UNN dAMED      -4.178   0.913  -0.843  0.00  0.00     0.278 C 
ATOM     20  C   UNN dAMED      -4.568  -0.690   1.015  0.00  0.00     0.164 C 
ATOM     21  N   UNN dAMED      -5.466   1.333  -0.497  0.00  0.00    -0.246 N 
ATOM     22  O   UNN dAMED      -3.532   1.347  -1.790  0.00  0.00    -0.266 OA
ATOM     23  C   UNN dAMED      -6.408   0.740   0.370  0.00  0.00     0.335 C 
ATOM     24  C   UNN dAMED      -6.095   2.047  -1.552  0.00  0.00     0.138 C 
ATOM     25  O   UNN dAMED      -7.613   0.981   0.334  0.00  0.00    -0.246 OA
ATOM     26  N   UNN dAMED      -5.829  -0.192   1.232  0.00  0.00    -0.263 N 
ATOM     27  C   UNN dAMED      -6.750  -1.177   1.675  0.00  0.00     0.137 C 
ATOM     28  N   UNN dAMED      -3.959  -1.716   1.677  0.00  0.00    -0.213 NA
ATOM     29  C   UNN dAMED      -2.771  -1.800   1.105  0.00  0.00     0.154 C 
ENDBRANCH  16  17
ENDBRANCH   1  16
TORSDOF 7
