REMARK  2 active torsions:
REMARK  status: ('A' for Active; 'I' for Inactive)
REMARK    1  A    between atoms: C_4  and  AS_15 
REMARK    2  A    between atoms: C_10  and  AS_15 
ROOT
ATOM      1  O   UNN dAMED       1.527   0.326   0.341  0.00  0.00     0.000 OA
ATOM      2 AS   UNN dAMED       0.278   1.258   0.652  0.00  0.00     0.000 As
ATOM      3  O   UNN dAMED       0.316   2.644  -0.432  0.00  0.00     0.000 OA
ENDROOT
BRANCH   2   4
ATOM      4  C   UNN dAMED       0.361   1.865   2.470  0.00  0.00     0.000 A 
ATOM      5  C   UNN dAMED      -0.356   3.029   2.760  0.00  0.00     0.000 A 
ATOM      6  C   UNN dAMED      -0.386   3.524   4.061  0.00  0.00     0.000 A 
ATOM      7  C   UNN dAMED       0.294   2.854   5.075  0.00  0.00     0.000 A 
ATOM      8  C   UNN dAMED       1.003   1.690   4.787  0.00  0.00     0.000 A 
ATOM      9  C   UNN dAMED       1.034   1.196   3.485  0.00  0.00     0.000 A 
ENDBRANCH   2   4
BRANCH   2  10
ATOM     10  C   UNN dAMED      -1.337   0.259   0.374  0.00  0.00     0.001 A 
ATOM     11  C   UNN dAMED      -1.759  -0.623   1.369  0.00  0.00     0.000 A 
ATOM     12  C   UNN dAMED      -2.927  -1.361   1.199  0.00  0.00     0.001 A 
ATOM     13  C   UNN dAMED      -3.673  -1.222   0.032  0.00  0.00     0.014 A 
ATOM     14  C   UNN dAMED      -3.249  -0.345  -0.964  0.00  0.00     0.070 A 
ATOM     15  C   UNN dAMED      -2.081   0.394  -0.794  0.00  0.00     0.014 A 
ATOM     16  N   UNN dAMED      -4.008  -0.209  -2.160  0.00  0.00    -0.101 NA
ENDBRANCH   2  10
TORSDOF 2
