REMARK  5 active torsions:
REMARK  status: ('A' for Active; 'I' for Inactive)
REMARK    1  A    between atoms: O_6  and  C_9 
REMARK    2  A    between atoms: O_6  and  S_28 
REMARK    3  A    between atoms: C_12  and  O_26 
REMARK    4  A    between atoms: C_14  and  O_21 
REMARK    5  A    between atoms: C_17  and  O_23 
ROOT
ATOM      1  O   UNN dAMED      -0.046   1.598  -1.400  0.00  0.00    -0.291 OA
ATOM      2  C   UNN dAMED      -0.784  -0.657  -0.753  0.00  0.00     0.123 C 
ATOM      3  O   UNN dAMED      -2.424  -1.438   3.032  0.00  0.00    -0.267 OA
ATOM      4  C   UNN dAMED      -0.088  -1.590   0.270  0.00  0.00     0.140 C 
ATOM      5  N   UNN dAMED      -0.633  -1.460   1.600  0.00  0.00    -0.320 N 
ATOM      6  C   UNN dAMED       2.681   0.781  -0.490  0.00  0.00     0.030 A 
ATOM      7  C   UNN dAMED       1.475   0.113  -0.380  0.00  0.00     0.034 A 
ATOM      8  C   UNN dAMED       3.788   0.156   0.080  0.00  0.00     0.135 A 
ATOM      9  C   UNN dAMED       0.172   0.517  -0.886  0.00  0.00     0.172 C 
ATOM     10  C   UNN dAMED       1.336  -1.126   0.243  0.00  0.00    -0.005 A 
ATOM     11  C   UNN dAMED       3.666  -1.087   0.716  0.00  0.00     0.117 A 
ATOM     12  C   UNN dAMED      -2.985   0.382  -1.336  0.00  0.00     0.022 A 
ATOM     13  C   UNN dAMED      -4.291   0.740  -1.030  0.00  0.00     0.116 A 
ATOM     14  C   UNN dAMED      -2.187  -0.271  -0.387  0.00  0.00    -0.013 A 
ATOM     15  C   UNN dAMED       2.438  -1.739   0.815  0.00  0.00     0.023 A 
ATOM     16  C   UNN dAMED      -4.824   0.445   0.214  0.00  0.00     0.116 A 
ATOM     17  C   UNN dAMED      -2.738  -0.557   0.872  0.00  0.00     0.054 A 
ATOM     18  C   UNN dAMED      -4.056  -0.203   1.172  0.00  0.00     0.031 A 
ATOM     19  C   UNN dAMED      -1.937  -1.206   1.930  0.00  0.00     0.257 C 
ATOM     20  C   UNN dAMED      -0.138  -2.505   2.427  0.00  0.00     0.128 C 
ENDROOT
BRANCH   8  21
ATOM     21  O   UNN dAMED       5.013   0.753  -0.045  0.00  0.00    -0.228 OA
BRANCH  21  22
ATOM     22  S   UNN dAMED       5.459   1.740   1.180  0.00  0.00     0.285 S 
ATOM     23  O   UNN dAMED       6.559   1.087   1.868  0.00  0.00    -0.197 OA
ATOM     24  O   UNN dAMED       5.664   3.058   0.605  0.00  0.00    -0.197 OA
ATOM     25  C   UNN dAMED       4.087   1.851   2.325  0.00  0.00     0.172 C 
ENDBRANCH  21  22
ENDBRANCH   8  21
BRANCH  11  26
ATOM     26  O   UNN dAMED       4.763  -1.684   1.267  0.00  0.00    -0.326 OA
ATOM     27  C   UNN dAMED       5.685  -0.651   1.453  0.00  0.00     0.181 C 
ENDBRANCH  11  26
BRANCH  13  28
ATOM     28  O   UNN dAMED      -5.031   1.387  -1.974  0.00  0.00    -0.326 OA
ATOM     29  C   UNN dAMED      -6.324   1.446  -1.451  0.00  0.00     0.181 C 
ENDBRANCH  13  28
BRANCH  16  30
ATOM     30  O   UNN dAMED      -6.105   0.791   0.524  0.00  0.00    -0.326 OA
ATOM     31  C   UNN dAMED      -6.333   1.988  -0.159  0.00  0.00     0.181 C 
ENDBRANCH  16  30
TORSDOF 5
