REMARK  2 active torsions:
REMARK  status: ('A' for Active; 'I' for Inactive)
REMARK    1  A    between atoms: N_2  and  S_14 
REMARK    2  A    between atoms: C_8  and  S_14 
ROOT
ATOM      1  S   UNN dAMED       0.268   0.731   1.344  0.00  0.00     0.284 S 
ATOM      2  O   UNN dAMED      -0.535  -0.266   2.017  0.00  0.00    -0.198 OA
ATOM      3  O   UNN dAMED       1.009   1.758   2.044  0.00  0.00    -0.198 OA
ENDROOT
BRANCH   1   4
ATOM      4  N   UNN dAMED       1.452  -0.131   0.519  0.00  0.00    -0.172 N 
ATOM      5  N   UNN dAMED       2.389   0.417  -0.285  0.00  0.00    -0.270 N 
ATOM      6  H   UNN dAMED       2.496   1.410  -0.445  0.00  0.00     0.189 HD
ATOM      7  C   UNN dAMED       3.113  -0.595  -0.829  0.00  0.00     0.145 A 
ATOM      8  C   UNN dAMED       2.647  -1.820  -0.365  0.00  0.00     0.054 A 
ATOM      9  N   UNN dAMED       4.215  -0.425  -1.708  0.00  0.00    -0.080 NA
ATOM     10  C   UNN dAMED       1.582  -1.497   0.491  0.00  0.00     0.114 A 
ENDBRANCH   1   4
BRANCH   1  11
ATOM     11  C   UNN dAMED      -0.695   1.460   0.080  0.00  0.00     0.105 A 
ATOM     12  C   UNN dAMED      -1.126   0.673  -0.985  0.00  0.00     0.013 A 
ATOM     13  C   UNN dAMED      -1.887   1.256  -1.993  0.00  0.00    -0.004 A 
ATOM     14  C   UNN dAMED      -2.217   2.609  -1.920  0.00  0.00    -0.022 A 
ATOM     15  C   UNN dAMED      -1.794   3.381  -0.839  0.00  0.00    -0.004 A 
ATOM     16  C   UNN dAMED      -3.027   3.238  -3.018  0.00  0.00     0.031 C 
ATOM     17  C   UNN dAMED      -1.029   2.806   0.171  0.00  0.00     0.013 A 
ENDBRANCH   1  11
TORSDOF 2
