REMARK  5 active torsions:
REMARK  status: ('A' for Active; 'I' for Inactive)
REMARK    1  A    between atoms: C_2  and  C_6 
REMARK    2  A    between atoms: C_6  and  N_7 
REMARK    3  A    between atoms: N_7  and  C_8 
REMARK    4  A    between atoms: C_8  and  C_9 
REMARK    5  A    between atoms: C_9  and  C_10 
ROOT
ATOM      1  C   UNN dAMED      -1.470   0.046  -0.648  0.00  0.00     0.319 C 
ENDROOT
BRANCH   1   2
ATOM      2  C   UNN dAMED      -2.300  -0.553   0.492  0.00  0.00     0.151 C 
ATOM      3  O   UNN dAMED      -3.679  -0.850   0.317  0.00  0.00    -0.355 OA
ATOM      4  C   UNN dAMED      -4.096  -1.108   1.652  0.00  0.00     0.142 C 
ATOM      5  C   UNN dAMED      -3.065  -0.777   2.726  0.00  0.00     0.035 C 
ATOM      6  C   UNN dAMED      -1.854  -0.374   1.937  0.00  0.00     0.034 C 
ENDBRANCH   1   2
BRANCH   1   7
ATOM      7  N   UNN dAMED      -1.613   1.455  -0.993  0.00  0.00     0.342 N 
BRANCH   7   8
ATOM      8  C   UNN dAMED      -2.231   1.380  -2.311  0.00  0.00     0.290 C 
BRANCH   8   9
ATOM      9  C   UNN dAMED      -1.396   1.659  -3.565  0.00  0.00     0.038 C 
BRANCH   9  10
ATOM     10  C   UNN dAMED      -2.071   1.717  -4.939  0.00  0.00     0.002 C 
ATOM     11  C   UNN dAMED      -3.366   2.515  -5.123  0.00  0.00     0.000 C 
ENDBRANCH   9  10
ENDBRANCH   8   9
ENDBRANCH   7   8
ENDBRANCH   1   7
TORSDOF 5
