REMARK  0 active torsions:
REMARK  status: ('A' for Active; 'I' for Inactive)
ROOT
ATOM      1  O   UNN dAMED      -2.182   2.812   0.733  0.00  0.00    -0.247 OA
ATOM      2  H   UNN dAMED      -3.921   1.118   0.066  0.00  0.00     0.171 HD
ATOM      3  N   UNN dAMED      -2.971   0.758   0.022  0.00  0.00    -0.297 N 
ATOM      4  N   UNN dAMED      -0.634   1.146   0.322  0.00  0.00    -0.292 N 
ATOM      5  S   UNN dAMED      -4.075  -1.573  -0.801  0.00  0.00    -0.058 SA
ATOM      6  H   UNN dAMED       0.162   1.726   0.562  0.00  0.00     0.172 HD
ATOM      7  N   UNN dAMED      -0.962  -2.241  -0.787  0.00  0.00    -0.220 NA
ATOM      8  N   UNN dAMED       0.717  -0.859  -0.227  0.00  0.00    -0.275 N 
ATOM      9  C   UNN dAMED      -2.825  -0.565  -0.387  0.00  0.00     0.137 A 
ATOM     10  C   UNN dAMED      -1.463  -1.018  -0.431  0.00  0.00     0.142 A 
ATOM     11  C   UNN dAMED      -0.452  -0.155  -0.080  0.00  0.00     0.150 A 
ATOM     12  C   UNN dAMED       0.345  -2.115  -0.664  0.00  0.00     0.184 A 
ATOM     13  C   UNN dAMED      -1.939   1.654   0.385  0.00  0.00     0.327 A 
ATOM     14  C   UNN dAMED       2.815  -1.207   0.911  0.00  0.00     0.018 A 
ATOM     15  C   UNN dAMED       2.038  -0.462   0.023  0.00  0.00     0.067 A 
ATOM     16  C   UNN dAMED       4.144  -0.847   1.129  0.00  0.00     0.002 A 
ATOM     17  C   UNN dAMED       4.686   0.254   0.467  0.00  0.00     0.000 A 
ATOM     18  C   UNN dAMED       2.580   0.617  -0.670  0.00  0.00     0.018 A 
ATOM     19  C   UNN dAMED       3.905   0.982  -0.431  0.00  0.00     0.002 A 
ENDROOT
TORSDOF 0
