REMARK  0 active torsions:
REMARK  status: ('A' for Active; 'I' for Inactive)
ROOT
ATOM      1  N   UNN dAMED      -0.232   1.171   0.331  0.00  0.00    -0.239 NA
ATOM      2  N   UNN dAMED      -0.109  -1.531  -0.372  0.00  0.00    -0.242 NA
ATOM      3  C   UNN dAMED       2.185   1.382   0.026  0.00  0.00     0.215 A 
ATOM      4  C   UNN dAMED       3.354   0.680  -0.326  0.00  0.00     0.044 A 
ATOM      5  C   UNN dAMED       0.974   0.620   0.013  0.00  0.00     0.138 A 
ATOM      6  C   UNN dAMED       3.381  -0.662  -0.670  0.00  0.00     0.005 A 
ATOM      7  C   UNN dAMED       0.998  -0.758  -0.340  0.00  0.00     0.102 A 
ATOM      8  C   UNN dAMED       2.193  -1.364  -0.672  0.00  0.00     0.021 A 
ATOM      9  C   UNN dAMED      -2.564   0.970   0.627  0.00  0.00     0.021 A 
ATOM     10  C   UNN dAMED      -1.334   0.413   0.303  0.00  0.00     0.099 A 
ATOM     11  C   UNN dAMED      -3.733   0.216   0.609  0.00  0.00     0.002 A 
ATOM     12  C   UNN dAMED      -1.271  -0.945  -0.051  0.00  0.00     0.099 A 
ATOM     13  C   UNN dAMED      -3.672  -1.124   0.260  0.00  0.00     0.002 A 
ATOM     14  C   UNN dAMED      -2.443  -1.690  -0.066  0.00  0.00     0.021 A 
ATOM     15  O   UNN dAMED       2.271   2.624   0.328  0.00  0.00    -0.285 OA
ENDROOT
TORSDOF 0
