REMARK  2 active torsions:
REMARK  status: ('A' for Active; 'I' for Inactive)
REMARK    1  A    between atoms: C_8  and  O_9 
REMARK    2  A    between atoms: O_9  and  C_10 
ROOT
ATOM      1  O   UNN dAMED      -0.564  -0.335  -1.878  0.00  0.00    -0.300 OA
ENDROOT
BRANCH   1   2
ATOM      2  C   UNN dAMED      -1.550  -0.285  -0.915  0.00  0.00     0.111 A 
ATOM      3  C   UNN dAMED      -1.328  -0.888   0.327  0.00  0.00     0.026 A 
ATOM      4  C   UNN dAMED      -2.279  -0.796   1.338  0.00  0.00     0.013 A 
ATOM      5  C   UNN dAMED      -3.444  -0.071   1.118  0.00  0.00     0.059 A 
ATOM      6 CL   UNN dAMED      -4.620   0.034   2.363  0.00  0.00    -0.082 Cl
ATOM      7  C   UNN dAMED      -3.663   0.569  -0.098  0.00  0.00     0.025 A 
ATOM      8  C   UNN dAMED      -2.706   0.475  -1.110  0.00  0.00     0.081 A 
ATOM      9 CL   UNN dAMED      -2.984   1.351  -2.563  0.00  0.00    -0.080 Cl
ENDBRANCH   1   2
BRANCH   1  10
ATOM     10  C   UNN dAMED      -0.332  -1.588  -2.400  0.00  0.00     0.177 A 
ATOM     11  C   UNN dAMED       0.388  -2.509  -1.652  0.00  0.00     0.131 A 
ATOM     12  N   UNN dAMED       0.701  -3.744  -2.077  0.00  0.00    -0.214 NA
ATOM     13  C   UNN dAMED       0.287  -4.028  -3.322  0.00  0.00     0.224 A 
ATOM     14  N   UNN dAMED      -0.374  -3.179  -4.148  0.00  0.00    -0.177 NA
ATOM     15  S   UNN dAMED       0.621  -5.607  -3.922  0.00  0.00    -0.037 SA
ATOM     16  C   UNN dAMED      -0.687  -1.926  -3.709  0.00  0.00     0.306 A 
ATOM     17  O   UNN dAMED      -1.276  -1.158  -4.537  0.00  0.00    -0.263 OA
ENDBRANCH   1  10
TORSDOF 2
