REMARK  7 active torsions:
REMARK  status: ('A' for Active; 'I' for Inactive)
REMARK    1  A    between atoms: C_4  and  C_27 
REMARK    2  A    between atoms: C_7  and  N_29 
REMARK    3  A    between atoms: C_12  and  C_21 
REMARK    4  A    between atoms: C_14  and  N_23 
REMARK    5  A    between atoms: C_17  and  C_27 
REMARK    6  A    between atoms: C_18  and  O_20 
REMARK    7  A    between atoms: O_20  and  C_21 
ROOT
ATOM      1  S   UNN dAMED      -0.209  -0.714  -0.122  0.00  0.00    -0.063 SA
ATOM      2  C   UNN dAMED      -0.459   0.487  -1.320  0.00  0.00     0.121 A 
ATOM      3  C   UNN dAMED       0.732   1.040  -1.753  0.00  0.00     0.106 A 
ATOM      4  C   UNN dAMED       1.826   0.493  -1.042  0.00  0.00     0.091 A 
ATOM      5  C   UNN dAMED       1.483  -0.454  -0.114  0.00  0.00     0.084 A 
ATOM      6  C   UNN dAMED       0.862   2.005  -2.803  0.00  0.00     0.104 C 
ATOM      7  N   UNN dAMED       0.958   2.783  -3.659  0.00  0.00    -0.191 NA
ATOM      8  N   UNN dAMED       3.176   0.854  -1.304  0.00  0.00    -0.099 NA
ENDROOT
BRANCH   2   9
ATOM      9  N   UNN dAMED      -1.658   0.766  -1.893  0.00  0.00    -0.238 NA
ATOM     10  C   UNN dAMED      -2.681   1.090  -1.069  0.00  0.00     0.082 A 
ATOM     11  C   UNN dAMED      -2.591   2.023  -0.022  0.00  0.00     0.019 A 
ATOM     12  C   UNN dAMED      -3.949   0.554  -1.333  0.00  0.00     0.019 A 
ATOM     13  C   UNN dAMED      -3.699   2.355   0.765  0.00  0.00     0.007 A 
ATOM     14  C   UNN dAMED      -4.942   1.802   0.468  0.00  0.00     0.063 A 
ATOM     15  C   UNN dAMED      -5.072   0.900  -0.582  0.00  0.00     0.007 A 
BRANCH  14  16
ATOM     16  C   UNN dAMED      -6.116   2.044   1.316  0.00  0.00     0.296 C 
ATOM     17  O   UNN dAMED      -6.993   1.221   1.520  0.00  0.00    -0.259 OA
BRANCH  16  18
ATOM     18  O   UNN dAMED      -6.096   3.297   1.819  0.00  0.00    -0.298 OA
BRANCH  18  19
ATOM     19  C   UNN dAMED      -7.150   3.330   2.738  0.00  0.00     0.152 C 
ATOM     20  C   UNN dAMED      -8.226   4.417   2.642  0.00  0.00     0.035 C 
ENDBRANCH  18  19
ENDBRANCH  16  18
ENDBRANCH  14  16
ENDBRANCH   2   9
BRANCH   5  21
ATOM     21  C   UNN dAMED       2.325  -1.254   0.742  0.00  0.00     0.203 C 
ATOM     22  O   UNN dAMED       2.213  -2.469   0.883  0.00  0.00    -0.286 OA
BRANCH  21  23
ATOM     23  C   UNN dAMED       3.417  -0.595   1.475  0.00  0.00     0.041 A 
ATOM     24  C   UNN dAMED       4.718  -1.062   1.261  0.00  0.00     0.003 A 
ATOM     25  C   UNN dAMED       5.758  -0.630   2.083  0.00  0.00     0.002 A 
ATOM     26  C   UNN dAMED       5.503   0.259   3.123  0.00  0.00     0.024 A 
ATOM     27  C   UNN dAMED       4.200   0.723   3.295  0.00  0.00     0.127 A 
ATOM     28  C   UNN dAMED       3.134   0.306   2.500  0.00  0.00     0.027 A 
BRANCH  27  29
ATOM     29  N   UNN dAMED       3.956   1.669   4.351  0.00  0.00    -0.114 N 
ATOM     30  O   UNN dAMED       4.596   2.728   4.317  0.00  0.00    -0.532 OA
ATOM     31  O   UNN dAMED       3.132   1.348   5.217  0.00  0.00    -0.532 OA
ENDBRANCH  27  29
ENDBRANCH  21  23
ENDBRANCH   5  21
TORSDOF 7
