REMARK  3 active torsions:
REMARK  status: ('A' for Active; 'I' for Inactive)
REMARK    1  A    between atoms: O_3  and  C_4 
REMARK    2  A    between atoms: C_7  and  C_9 
REMARK    3  A    between atoms: C_9  and  O_10 
ROOT
ATOM      1  C   UNN dAMED      -2.124   0.016   0.180  0.00  0.00     0.046 A 
ATOM      2  C   UNN dAMED      -2.177   1.401   0.046  0.00  0.00     0.110 A 
ATOM      3  C   UNN dAMED      -0.908  -0.646   0.089  0.00  0.00     0.102 A 
ATOM      4  N   UNN dAMED      -1.015   2.120  -0.187  0.00  0.00    -0.182 N 
ATOM      5  O   UNN dAMED      -1.062   3.382  -0.334  0.00  0.00    -0.080 OA
ATOM      6  C   UNN dAMED       0.268   0.065  -0.135  0.00  0.00     0.105 A 
ATOM      7  C   UNN dAMED       0.199   1.455  -0.272  0.00  0.00     0.115 A 
ENDROOT
BRANCH   6   8
ATOM      8  C   UNN dAMED       1.625  -0.515  -0.229  0.00  0.00     0.299 C 
ATOM      9  O   UNN dAMED       2.648   0.150  -0.229  0.00  0.00    -0.259 OA
BRANCH   8  10
ATOM     10  O   UNN dAMED       1.590  -1.857  -0.346  0.00  0.00    -0.296 OA
ATOM     11  C   UNN dAMED       0.277  -2.209  -0.021  0.00  0.00     0.185 C 
ENDBRANCH   8  10
ENDBRANCH   6   8
BRANCH   3  12
ATOM     12  O   UNN dAMED      -0.933  -2.003   0.221  0.00  0.00    -0.328 OA
ATOM     13  C   UNN dAMED      -1.904  -2.260   1.192  0.00  0.00     0.181 C 
ENDBRANCH   3  12
TORSDOF 3
