REMARK  5 active torsions:
REMARK  status: ('A' for Active; 'I' for Inactive)
REMARK    1  A    between atoms: C_3  and  C_11 
REMARK    2  A    between atoms: C_4  and  N_8 
REMARK    3  A    between atoms: N_6  and  C_11 
REMARK    4  A    between atoms: N_6  and  C_12 
REMARK    5  A    between atoms: C_12  and  C_13 
ROOT
ATOM      1  C   UNN dAMED      -0.030  -1.527   0.293  0.00  0.00     0.030 A 
ATOM      2  C   UNN dAMED      -1.448  -1.561   0.362  0.00  0.00     0.051 A 
ATOM      3  C   UNN dAMED       0.307  -0.214   0.047  0.00  0.00     0.116 A 
ATOM      4  C   UNN dAMED      -1.845  -0.270   0.117  0.00  0.00     0.227 A 
ATOM      5  O   UNN dAMED      -0.800   0.560  -0.106  0.00  0.00    -0.285 OA
ENDROOT
BRANCH   3   6
ATOM      6  C   UNN dAMED       1.674   0.222  -0.412  0.00  0.00     0.102 C 
BRANCH   6   7
ATOM      7  N   UNN dAMED       2.154   1.356  -0.055  0.00  0.00    -0.106 NA
ATOM      8  O   UNN dAMED       1.889   2.404  -0.722  0.00  0.00    -0.114 OA
BRANCH   7   9
ATOM      9  C   UNN dAMED       2.075   0.027  -0.722  0.00  0.00     0.145 C 
BRANCH   9  10
ATOM     10  C   UNN dAMED       2.351  -0.082  -2.227  0.00  0.00     0.203 C 
ATOM     11  O   UNN dAMED       2.263  -1.290  -2.861  0.00  0.00    -0.219 OA
ENDBRANCH   9  10
ENDBRANCH   7   9
ENDBRANCH   6   7
ENDBRANCH   3   6
BRANCH   4  12
ATOM     12  N   UNN dAMED      -3.125   0.327   0.029  0.00  0.00    -0.089 N 
ATOM     13  O   UNN dAMED      -3.176   1.563   0.041  0.00  0.00    -0.530 OA
ATOM     14  O   UNN dAMED      -4.090  -0.442  -0.044  0.00  0.00    -0.530 OA
ENDBRANCH   4  12
TORSDOF 5
