REMARK  0 active torsions:
REMARK  status: ('A' for Active; 'I' for Inactive)
ROOT
ATOM      1  N   UNN dAMED      -2.534  -0.429  -0.707  0.00  0.00    -0.221 NA
ATOM      2  C   UNN dAMED      -2.350   0.890  -1.179  0.00  0.00     0.114 C 
ATOM      3  S   UNN dAMED      -2.336  -1.761   1.308  0.00  0.00    -0.044 SA
ATOM      4  C   UNN dAMED      -1.924  -0.608   0.286  0.00  0.00     0.184 C 
ATOM      5  C   UNN dAMED      -1.390   1.389  -0.425  0.00  0.00     0.078 C 
ATOM      6  N   UNN dAMED      -0.973   0.369   0.480  0.00  0.00    -0.183 NA
ATOM      7  C   UNN dAMED       0.433   0.282   0.314  0.00  0.00     0.057 A 
ATOM      8 CL   UNN dAMED       0.481  -2.128  -1.053  0.00  0.00    -0.081 Cl
ATOM      9  C   UNN dAMED       1.125   1.393   0.807  0.00  0.00     0.013 A 
ATOM     10  C   UNN dAMED       1.160  -0.715  -0.342  0.00  0.00     0.069 A 
ATOM     11  C   UNN dAMED       2.501   1.530   0.645  0.00  0.00     0.001 A 
ATOM     12  C   UNN dAMED       2.545  -0.580  -0.493  0.00  0.00     0.012 A 
ATOM     13  C   UNN dAMED       3.217   0.533  -0.000  0.00  0.00     0.001 A 
ENDROOT
TORSDOF 0
