REMARK  0 active torsions:
REMARK  status: ('A' for Active; 'I' for Inactive)
ROOT
ATOM      1  H   UNN dAMED       0.191  -0.765   1.763  0.00  0.00     0.167 HD
ATOM      2  N   UNN dAMED       0.515  -0.349   0.900  0.00  0.00    -0.338 N 
ATOM      3  N   UNN dAMED       0.465   0.543  -1.127  0.00  0.00    -0.227 NA
ATOM      4  N   UNN dAMED      -4.529  -0.333  -0.169  0.00  0.00    -0.242 NA
ATOM      5  C   UNN dAMED      -2.498   0.588  -1.104  0.00  0.00     0.024 A 
ATOM      6  C   UNN dAMED      -1.733  -0.085  -0.154  0.00  0.00     0.037 A 
ATOM      7  C   UNN dAMED      -3.875   0.431  -1.070  0.00  0.00     0.099 A 
ATOM      8  C   UNN dAMED      -2.382  -0.886   0.786  0.00  0.00     0.024 A 
ATOM      9  C   UNN dAMED      -0.281   0.046  -0.155  0.00  0.00     0.141 A 
ATOM     10  C   UNN dAMED      -3.764  -0.973   0.740  0.00  0.00     0.099 A 
ATOM     11  C   UNN dAMED       3.009  -0.308   1.284  0.00  0.00     0.019 A 
ATOM     12  C   UNN dAMED       4.183   0.083   0.635  0.00  0.00     0.002 A 
ATOM     13  C   UNN dAMED       1.823  -0.096   0.581  0.00  0.00     0.076 A 
ATOM     14  C   UNN dAMED       1.766   0.464  -0.688  0.00  0.00     0.099 A 
ATOM     15  C   UNN dAMED       4.161   0.651  -0.639  0.00  0.00     0.002 A 
ATOM     16  C   UNN dAMED       2.958   0.850  -1.321  0.00  0.00     0.021 A 
ENDROOT
TORSDOF 0
