REMARK  2 active torsions:
REMARK  status: ('A' for Active; 'I' for Inactive)
REMARK    1  A    between atoms: AS_1  and  C_6 
REMARK    2  A    between atoms: C_5  and  N_17 
ROOT
ATOM      1  C   UNN dAMED      -0.210   1.904  -0.370  0.00  0.00     0.002 A 
ATOM      2  C   UNN dAMED       1.103   2.367  -0.402  0.00  0.00     0.024 A 
ATOM      3  C   UNN dAMED      -0.504   0.550  -0.143  0.00  0.00     0.000 A 
ATOM      4  C   UNN dAMED       2.138   1.461  -0.208  0.00  0.00     0.127 A 
ATOM      5  C   UNN dAMED       0.543  -0.339   0.044  0.00  0.00     0.002 A 
ATOM      6  C   UNN dAMED      -2.517  -0.115   1.144  0.00  0.00     0.000 A 
ATOM      7  C   UNN dAMED      -3.851  -0.512   1.203  0.00  0.00     0.000 A 
ATOM      8  C   UNN dAMED      -4.580  -0.671   0.028  0.00  0.00     0.000 A 
ATOM      9  C   UNN dAMED      -1.892   0.114  -0.087  0.00  0.00     0.000 A 
ATOM     10  C   UNN dAMED      -3.974  -0.442  -1.204  0.00  0.00     0.000 A 
ATOM     11  C   UNN dAMED       1.884   0.112   0.013  0.00  0.00     0.024 A 
ATOM     12  C   UNN dAMED      -2.636  -0.056  -1.260  0.00  0.00     0.000 A 
ENDROOT
BRANCH   5  13
ATOM     13 AS   UNN dAMED       0.733  -2.217   0.400  0.00  0.00     0.000 As
ATOM     14  O   UNN dAMED      -0.693  -2.918   0.375  0.00  0.00     0.000 OA
ATOM     15  O   UNN dAMED       1.753  -2.964  -0.823  0.00  0.00     0.000 OA
ATOM     16  O   UNN dAMED       1.459  -2.458   1.985  0.00  0.00     0.000 OA
ENDBRANCH   5  13
BRANCH   4  17
ATOM     17  N   UNN dAMED       3.507   1.940  -0.220  0.00  0.00    -0.114 N 
ATOM     18  O   UNN dAMED       4.390   1.171   0.184  0.00  0.00    -0.532 OA
ATOM     19  O   UNN dAMED       3.706   3.092  -0.630  0.00  0.00    -0.532 OA
ENDBRANCH   4  17
TORSDOF 2
