REMARK  2 active torsions:
REMARK  status: ('A' for Active; 'I' for Inactive)
REMARK    1  A    between atoms: N_8  and  C_15 
REMARK    2  A    between atoms: C_9  and  C_15 
ROOT
ATOM      1  O   UNN dAMED      -3.695  -0.405  -3.472  0.00  0.00    -0.226 OA
ATOM      2  O   UNN dAMED      -4.700   0.888  -1.549  0.00  0.00    -0.226 OA
ATOM      3  S   UNN dAMED      -3.688  -0.018  -2.073  0.00  0.00     0.174 S 
ATOM      4  C   UNN dAMED      -2.066   0.601  -1.641  0.00  0.00     0.158 C 
ATOM      5  C   UNN dAMED      -2.068   0.600  -1.642  0.00  0.00     0.158 C 
ATOM      6  C   UNN dAMED      -1.497   0.436  -0.230  0.00  0.00     0.268 C 
ATOM      7  C   UNN dAMED      -1.659   0.775  -0.168  0.00  0.00     0.268 C 
ATOM      8  N   UNN dAMED      -0.222   1.199   0.165  0.00  0.00     0.145 N 
ENDROOT
BRANCH   8   9
ATOM      9  C   UNN dAMED       0.286   0.281   1.194  0.00  0.00     0.296 C 
BRANCH   9  10
ATOM     10  C   UNN dAMED       1.525  -0.548   0.935  0.00  0.00     0.092 A 
ATOM     11  C   UNN dAMED       1.423  -1.925   1.073  0.00  0.00     0.017 A 
ATOM     12  C   UNN dAMED       2.569  -2.692   0.902  0.00  0.00     0.003 A 
ATOM     13  C   UNN dAMED       3.778  -2.082   0.602  0.00  0.00     0.021 A 
ATOM     14  C   UNN dAMED       3.783  -0.702   0.489  0.00  0.00     0.099 A 
ATOM     15  N   UNN dAMED       2.692   0.080   0.650  0.00  0.00    -0.246 NA
ENDBRANCH   9  10
ENDBRANCH   8   9
TORSDOF 2
