REMARK  4 active torsions:
REMARK  status: ('A' for Active; 'I' for Inactive)
REMARK    1  A    between atoms: N_3  and  C_7 
REMARK    2  A    between atoms: C_12  and  C_15 
REMARK    3  A    between atoms: C_15  and  O_17 
REMARK    4  A    between atoms: O_17  and  C_18 
ROOT
ATOM      1  O   UNN dAMED       3.156  -0.583   2.415  0.00  0.00    -0.293 OA
ATOM      2  S   UNN dAMED       1.783  -2.466  -0.673  0.00  0.00    -0.089 SA
ATOM      3  N   UNN dAMED      -0.497  -1.166  -0.754  0.00  0.00    -0.241 NA
ATOM      4  C   UNN dAMED       0.663  -1.171  -0.177  0.00  0.00     0.113 C 
ATOM      5  C   UNN dAMED       1.288  -0.225   0.865  0.00  0.00     0.248 C 
ATOM      6  C   UNN dAMED       2.458  -0.987   1.496  0.00  0.00     0.189 C 
ATOM      7  C   UNN dAMED       2.972  -2.047   0.583  0.00  0.00     0.130 C 
ATOM      8  C   UNN dAMED       0.355   0.100   1.960  0.00  0.00     0.095 C 
ATOM      9  N   UNN dAMED      -0.369   0.361   2.829  0.00  0.00    -0.195 NA
ENDROOT
BRANCH   5  10
ATOM     10  C   UNN dAMED       1.805   1.050   0.202  0.00  0.00     0.297 C 
ATOM     11  O   UNN dAMED       1.282   2.154   0.271  0.00  0.00    -0.262 OA
BRANCH  10  12
ATOM     12  O   UNN dAMED       2.940   0.812  -0.512  0.00  0.00    -0.300 OA
BRANCH  12  13
ATOM     13  C   UNN dAMED       2.642   1.230  -1.809  0.00  0.00     0.152 C 
ATOM     14  C   UNN dAMED       1.236   0.993  -2.364  0.00  0.00     0.035 C 
ENDBRANCH  12  13
ENDBRANCH  10  12
ENDBRANCH   5  10
BRANCH   3  15
ATOM     15  C   UNN dAMED      -1.508  -0.259  -0.418  0.00  0.00     0.092 A 
ATOM     16  C   UNN dAMED      -1.588   0.974  -1.070  0.00  0.00     0.020 A 
ATOM     17  C   UNN dAMED      -2.650   1.843  -0.820  0.00  0.00     0.002 A 
ATOM     18  C   UNN dAMED      -3.661   1.476   0.063  0.00  0.00     0.001 A 
ATOM     19  C   UNN dAMED      -3.614   0.238   0.695  0.00  0.00     0.013 A 
ATOM     20  C   UNN dAMED      -2.549  -0.626   0.450  0.00  0.00     0.075 A 
ATOM     21 CL   UNN dAMED      -2.548  -2.146   1.267  0.00  0.00    -0.081 Cl
ENDBRANCH   3  15
TORSDOF 4
