REMARK  4 active torsions:
REMARK  status: ('A' for Active; 'I' for Inactive)
REMARK    1  A    between atoms: C_2  and  C_8 
REMARK    2  A    between atoms: C_8  and  O_9 
REMARK    3  A    between atoms: O_9  and  C_10 
REMARK    4  A    between atoms: C_10  and  C_12 
ROOT
ATOM      1  N   LIG d  11      -2.228  -9.647  -0.472  0.00  0.00     0.144 N 
ATOM      2  C   LIG d  11      -0.190  -8.288   0.198  0.00  0.00     0.105 C 
ATOM      3  C   LIG d  11       0.302  -9.400   1.065  0.00  0.00     0.200 C 
ATOM      4  C   LIG d  11      -2.875  -9.153   1.648  0.00  0.00     0.040 C 
ATOM      5  C   LIG d  11      -2.164 -10.195   0.934  0.00  0.00     0.245 C 
ATOM      6  C   LIG d  11      -0.770 -10.308   1.340  0.00  0.00     0.049 C 
ATOM      7  C   LIG d  11      -1.528 -10.418  -1.500  0.00  0.00     0.286 C 
ATOM      8  O   LIG d  11       1.153  -9.155   1.948  0.00  0.00    -0.286 OA
ATOM      9  C   LIG d  11      -2.511  -7.858   0.918  0.00  0.00     0.041 C 
ATOM     10  C   LIG d  11      -1.659  -8.276  -0.183  0.00  0.00     0.254 C 
ENDROOT
BRANCH   2  11
ATOM     11  C   LIG d  11       0.633  -7.217  -0.250  0.00  0.00     0.027 C 
BRANCH  11  12
ATOM     12  O   LIG d  11       1.403  -6.211  -0.658  0.00  0.00    -0.230 OA
BRANCH  12  13
ATOM     13  C   LIG d  11       0.816  -5.301  -1.470  0.00  0.00     0.307 C 
ATOM     14  O   LIG d  11      -0.329  -5.295  -1.899  0.00  0.00    -0.258 OA
BRANCH  13  15
ATOM     15  C   LIG d  11       1.791  -4.242  -1.796  0.00  0.00     0.064 A 
ATOM     16  C   LIG d  11       1.399  -3.232  -2.674  0.00  0.00     0.005 A 
ATOM     17  C   LIG d  11       2.286  -2.209  -2.998  0.00  0.00     0.000 A 
ATOM     18  C   LIG d  11       3.564  -2.195  -2.445  0.00  0.00     0.000 A 
ATOM     19  C   LIG d  11       3.957  -3.202  -1.567  0.00  0.00     0.000 A 
ATOM     20  C   LIG d  11       3.071  -4.226  -1.242  0.00  0.00     0.005 A 
ENDBRANCH  13  15
ENDBRANCH  12  13
ENDBRANCH  11  12
ENDBRANCH   2  11
TORSDOF 4
