REMARK  2 active torsions:
REMARK  status: ('A' for Active; 'I' for Inactive)
REMARK    1  A    between atoms: N_1  and  S_22 
REMARK    2  A    between atoms: C_8  and  S_22 
ROOT
ATOM      1  S   UNN dAMED       0.694   1.950  -0.818  0.00  0.00     0.264 S 
ATOM      2  O   UNN dAMED      -0.400   0.999  -0.802  0.00  0.00    -0.200 OA
ATOM      3  O   UNN dAMED       0.770   2.976  -1.841  0.00  0.00    -0.200 OA
ENDROOT
BRANCH   1   4
ATOM      4  N   UNN dAMED       2.196   1.128  -0.760  0.00  0.00    -0.285 N 
ATOM      5  C   UNN dAMED       2.151  -0.323  -0.439  0.00  0.00     0.114 C 
ATOM      6  C   UNN dAMED       0.876  -0.620   0.373  0.00  0.00     0.014 C 
ATOM      7  C   UNN dAMED       3.407  -0.706   0.344  0.00  0.00     0.032 C 
ATOM      8  C   UNN dAMED       1.004  -1.319   1.726  0.00  0.00     0.001 C 
ATOM      9  C   UNN dAMED       2.134  -0.798   2.600  0.00  0.00    -0.000 C 
ATOM     10  C   UNN dAMED       3.287  -0.213   1.792  0.00  0.00    -0.004 C 
ATOM     11  C   UNN dAMED       4.667  -0.122  -0.317  0.00  0.00    -0.002 C 
ATOM     12  C   UNN dAMED       4.491   0.662  -1.612  0.00  0.00     0.025 C 
ATOM     13  C   UNN dAMED       3.288   1.587  -1.597  0.00  0.00     0.112 C 
ENDBRANCH   1   4
BRANCH   1  14
ATOM     14  C   UNN dAMED       0.693   2.764   0.742  0.00  0.00     0.103 A 
ATOM     15  C   UNN dAMED       0.341   2.043   1.878  0.00  0.00     0.014 A 
ATOM     16  C   UNN dAMED       0.233   2.711   3.095  0.00  0.00     0.017 A 
ATOM     17  C   UNN dAMED       0.444   4.092   3.176  0.00  0.00     0.049 A 
ATOM     18  N   UNN dAMED       0.363   4.741   4.429  0.00  0.00    -0.373 N 
ATOM     19  C   UNN dAMED       0.861   4.785   2.026  0.00  0.00    -0.006 A 
ATOM     20  H   UNN dAMED      -0.140   4.185   5.117  0.00  0.00     0.160 HD
ATOM     21  C   UNN dAMED       0.399   6.189   4.515  0.00  0.00     0.098 C 
ATOM     22  C   UNN dAMED       1.223   6.889   3.449  0.00  0.00     0.029 C 
ATOM     23  C   UNN dAMED       1.046   6.278   2.069  0.00  0.00     0.030 C 
ATOM     24  C   UNN dAMED       0.960   4.126   0.802  0.00  0.00     0.010 A 
ENDBRANCH   1  14
TORSDOF 2
