REMARK  4 active torsions:
REMARK  status: ('A' for Active; 'I' for Inactive)
REMARK    1  A    between atoms: C_7  and  S_8 
REMARK    2  A    between atoms: S_8  and  C_16 
REMARK    3  A    between atoms: C_10  and  N_17 
REMARK    4  A    between atoms: C_16  and  N_17 
ROOT
ATOM      1  C   UNN dAMED      -1.204  -2.152   2.489  0.00  0.00     0.135 C 
ENDROOT
BRANCH   1   2
ATOM      2  S   UNN dAMED      -0.618  -1.443   0.949  0.00  0.00    -0.066 SA
BRANCH   2   3
ATOM      3  C   UNN dAMED      -2.105  -0.549   0.596  0.00  0.00     0.031 A 
ATOM      4  C   UNN dAMED      -3.053  -0.335   1.597  0.00  0.00     0.007 A 
ATOM      5  C   UNN dAMED      -4.217   0.375   1.314  0.00  0.00     0.012 A 
ATOM      6  C   UNN dAMED      -4.425   0.868   0.029  0.00  0.00     0.058 A 
ATOM      7 CL   UNN dAMED      -5.854   1.751  -0.320  0.00  0.00    -0.082 Cl
ATOM      8  C   UNN dAMED      -3.485   0.660  -0.975  0.00  0.00     0.012 A 
ATOM      9  C   UNN dAMED      -2.323  -0.051  -0.688  0.00  0.00     0.007 A 
ENDBRANCH   2   3
ENDBRANCH   1   2
BRANCH   1  10
ATOM     10  N   UNN dAMED      -0.466  -3.239   3.116  0.00  0.00    -0.236 NA
BRANCH  10  11
ATOM     11  C   UNN dAMED       0.369  -2.991   4.143  0.00  0.00     0.092 A 
ATOM     12  C   UNN dAMED       1.768  -2.960   4.017  0.00  0.00     0.075 A 
ATOM     13 CL   UNN dAMED       2.566  -3.252   2.511  0.00  0.00    -0.081 Cl
ATOM     14  C   UNN dAMED       2.588  -2.690   5.116  0.00  0.00     0.013 A 
ATOM     15  C   UNN dAMED       2.029  -2.449   6.366  0.00  0.00     0.001 A 
ATOM     16  C   UNN dAMED       0.648  -2.482   6.515  0.00  0.00     0.002 A 
ATOM     17  C   UNN dAMED      -0.165  -2.748   5.413  0.00  0.00     0.020 A 
ENDBRANCH  10  11
ENDBRANCH   1  10
TORSDOF 4
