REMARK  0 active torsions:
REMARK  status: ('A' for Active; 'I' for Inactive)
ROOT
ATOM      1  C   UNN dAMED      -1.828  -0.198   0.583  0.00  0.00     0.154 A 
ATOM      2  C   UNN dAMED      -2.705   0.236  -1.349  0.00  0.00     0.123 A 
ATOM      3  C   UNN dAMED      -3.049  -0.089  -0.020  0.00  0.00     0.056 A 
ATOM      4  N   UNN dAMED      -0.851   0.052  -0.333  0.00  0.00    -0.217 N 
ATOM      5  N   UNN dAMED      -1.382   0.324  -1.549  0.00  0.00    -0.163 NA
ATOM      6  N   UNN dAMED      -1.601  -0.501   1.949  0.00  0.00    -0.080 NA
ATOM      7  C   UNN dAMED       0.535   0.041  -0.106  0.00  0.00     0.084 A 
ATOM      8  C   UNN dAMED       1.349  -0.792  -0.871  0.00  0.00     0.019 A 
ATOM      9  C   UNN dAMED       2.725  -0.800  -0.645  0.00  0.00     0.002 A 
ATOM     10  C   UNN dAMED       3.276   0.019   0.339  0.00  0.00     0.000 A 
ATOM     11  C   UNN dAMED       2.455   0.849   1.100  0.00  0.00     0.002 A 
ATOM     12  C   UNN dAMED       1.078   0.863   0.879  0.00  0.00     0.019 A 
ENDROOT
TORSDOF 0
