REMARK  5 active torsions:
REMARK  status: ('A' for Active; 'I' for Inactive)
REMARK    1  A    between atoms: N_2  and  C_24 
REMARK    2  A    between atoms: C_15  and  O_20 
REMARK    3  A    between atoms: O_20  and  C_21 
REMARK    4  A    between atoms: C_21  and  C_22 
REMARK    5  A    between atoms: C_22  and  C_24 
ROOT
ATOM      1  N   UNN dAMED      -0.194  -3.171   1.863  0.00  0.00     0.143 N 
ATOM      2  N   UNN dAMED      -0.189  -3.695   5.197  0.00  0.00    -0.248 NA
ATOM      3  C   UNN dAMED      -0.619  -6.020   4.786  0.00  0.00     0.011 A 
ATOM      4  C   UNN dAMED       0.244  -5.032   5.268  0.00  0.00     0.036 A 
ATOM      5  C   UNN dAMED      -0.220  -7.350   4.763  0.00  0.00     0.001 A 
ATOM      6  C   UNN dAMED       1.052  -7.684   5.213  0.00  0.00    -0.004 A 
ATOM      7  C   UNN dAMED       1.511  -5.367   5.728  0.00  0.00     0.007 A 
ATOM      8  C   UNN dAMED       1.911  -6.696   5.699  0.00  0.00    -0.021 A 
ATOM      9  C   UNN dAMED      -1.446  -3.410   4.355  0.00  0.00     0.112 C 
ATOM     10  C   UNN dAMED      -1.347  -2.698   3.007  0.00  0.00     0.268 C 
ATOM     11  C   UNN dAMED      -1.449  -3.431   4.346  0.00  0.00     0.112 C 
ATOM     12  C   UNN dAMED      -1.350  -2.692   3.004  0.00  0.00     0.268 C 
ATOM     13  C   UNN dAMED       3.352  -7.037   5.961  0.00  0.00     0.031 C 
ENDROOT
BRANCH   1  14
ATOM     14  C   UNN dAMED      -1.370  -2.712   3.029  0.00  0.00     0.286 C 
BRANCH  14  15
ATOM     15  C   UNN dAMED      -2.822  -2.522   2.551  0.00  0.00     0.215 C 
ATOM     16  O   UNN dAMED      -3.857  -2.410   3.445  0.00  0.00    -0.219 OA
BRANCH  15  17
ATOM     17  C   UNN dAMED      -3.092  -2.321   1.053  0.00  0.00     0.184 C 
BRANCH  17  18
ATOM     18  O   UNN dAMED      -2.957  -1.045   0.504  0.00  0.00    -0.328 OA
BRANCH  18  19
ATOM     19  C   UNN dAMED      -4.224  -0.604   0.236  0.00  0.00     0.094 A 
ATOM     20  C   UNN dAMED      -4.519  -0.257  -1.075  0.00  0.00     0.025 A 
ATOM     21  C   UNN dAMED      -5.699   0.428  -1.348  0.00  0.00     0.013 A 
ATOM     22  C   UNN dAMED      -6.569   0.757  -0.311  0.00  0.00     0.058 A 
ATOM     23 CL   UNN dAMED      -7.935   1.734  -0.656  0.00  0.00    -0.082 Cl
ATOM     24  C   UNN dAMED      -6.285   0.383   1.001  0.00  0.00     0.013 A 
ATOM     25  C   UNN dAMED      -5.095  -0.293   1.274  0.00  0.00     0.025 A 
ENDBRANCH  18  19
ENDBRANCH  17  18
ENDBRANCH  15  17
ENDBRANCH  14  15
ENDBRANCH   1  14
TORSDOF 5
