REMARK  4 active torsions:
REMARK  status: ('A' for Active; 'I' for Inactive)
REMARK    1  A    between atoms: C_14  and  C_17 
REMARK    2  A    between atoms: C_17  and  C_19 
REMARK    3  A    between atoms: C_19  and  C_20 
REMARK    4  A    between atoms: C_20  and  C_21 
ROOT
ATOM      1  C   UNN dAMED      -3.399   3.035  -0.752  0.00  0.00     0.000 A 
ATOM      2  C   UNN dAMED      -2.008   3.096  -0.676  0.00  0.00     0.000 A 
ATOM      3  C   UNN dAMED      -4.059   1.819  -0.586  0.00  0.00     0.000 A 
ATOM      4  C   UNN dAMED      -1.264   1.941  -0.439  0.00  0.00     0.000 A 
ATOM      5  C   UNN dAMED      -3.335   0.651  -0.346  0.00  0.00     0.000 A 
ATOM      6  C   UNN dAMED       0.127   1.990  -0.365  0.00  0.00     0.000 A 
ATOM      7  C   UNN dAMED      -1.927   0.708  -0.275  0.00  0.00     0.000 A 
ATOM      8  C   UNN dAMED      -3.988  -0.570  -0.179  0.00  0.00     0.000 A 
ATOM      9  C   UNN dAMED       0.861   0.825  -0.138  0.00  0.00     0.000 A 
ATOM     10  C   UNN dAMED      -1.184  -0.469  -0.043  0.00  0.00     0.000 A 
ATOM     11  C   UNN dAMED      -3.257  -1.734   0.054  0.00  0.00     0.000 A 
ATOM     12  C   UNN dAMED       0.225  -0.418   0.023  0.00  0.00     0.003 A 
ATOM     13  C   UNN dAMED      -1.864  -1.697   0.120  0.00  0.00     0.000 A 
ATOM     14  C   UNN dAMED       0.915  -1.621   0.244  0.00  0.00     0.035 A 
ATOM     15  C   UNN dAMED      -1.140  -2.867   0.346  0.00  0.00     0.000 A 
ATOM     16  C   UNN dAMED       0.249  -2.833   0.412  0.00  0.00     0.003 A 
ENDROOT
BRANCH  14  17
ATOM     17  C   UNN dAMED       2.375  -1.648   0.340  0.00  0.00     0.174 C 
ATOM     18  O   UNN dAMED       3.051  -2.047  -0.598  0.00  0.00    -0.291 OA
BRANCH  17  19
ATOM     19  C   UNN dAMED       3.050  -0.976   1.501  0.00  0.00     0.080 C 
BRANCH  19  20
ATOM     20  C   UNN dAMED       2.993  -1.610   2.895  0.00  0.00     0.106 C 
BRANCH  20  21
ATOM     21  C   UNN dAMED       2.260  -0.909   4.008  0.00  0.00     0.186 C 
ATOM     22  O   UNN dAMED       1.359  -1.575   4.600  0.00  0.00    -0.647 OA
ATOM     23  O   UNN dAMED       2.615   0.282   4.255  0.00  0.00    -0.647 OA
ENDBRANCH  20  21
ENDBRANCH  19  20
ENDBRANCH  17  19
ENDBRANCH  14  17
TORSDOF 4
