REMARK  3 active torsions:
REMARK  status: ('A' for Active; 'I' for Inactive)
REMARK    1  A    between atoms: C_3  and  N_17 
REMARK    2  A    between atoms: C_8  and  N_17 
REMARK    3  A    between atoms: C_11  and  N_13 
ROOT
ATOM      1  C   UNN dAMED       0.610  -2.404  -1.278  0.00  0.00     0.022 A 
ATOM      2  C   UNN dAMED       0.144  -1.928  -0.035  0.00  0.00     0.095 A 
ATOM      3  C   UNN dAMED      -0.030  -3.426  -1.975  0.00  0.00     0.025 A 
ATOM      4  C   UNN dAMED      -1.026  -2.520   0.476  0.00  0.00     0.089 A 
ATOM      5  C   UNN dAMED      -1.175  -3.968  -1.414  0.00  0.00     0.128 A 
ATOM      6  C   UNN dAMED      -1.695  -3.540  -0.201  0.00  0.00     0.039 A 
ATOM      7  N   UNN dAMED      -1.553  -2.050   1.712  0.00  0.00    -0.099 NA
ENDROOT
BRANCH   2   8
ATOM      8  N   UNN dAMED       0.716  -0.928   0.683  0.00  0.00    -0.244 NA
BRANCH   8   9
ATOM      9  C   UNN dAMED       1.931  -0.507   0.272  0.00  0.00     0.082 A 
ATOM     10  C   UNN dAMED       2.065   0.601  -0.566  0.00  0.00     0.022 A 
ATOM     11  C   UNN dAMED       3.326   1.069  -0.951  0.00  0.00     0.044 A 
ATOM     12  C   UNN dAMED       4.529   0.491  -0.519  0.00  0.00     0.196 A 
ATOM     13  C   UNN dAMED       4.361  -0.603   0.344  0.00  0.00     0.044 A 
ATOM     14  O   UNN dAMED       5.671   0.924  -0.875  0.00  0.00    -0.287 OA
ATOM     15  C   UNN dAMED       3.109  -1.089   0.742  0.00  0.00     0.022 A 
ENDBRANCH   8   9
ENDBRANCH   2   8
BRANCH   5  16
ATOM     16  N   UNN dAMED      -1.836  -5.033  -2.107  0.00  0.00    -0.114 N 
ATOM     17  O   UNN dAMED      -1.548  -6.186  -1.766  0.00  0.00    -0.532 OA
ATOM     18  O   UNN dAMED      -2.638  -4.711  -2.993  0.00  0.00    -0.532 OA
ENDBRANCH   5  16
TORSDOF 3
