REMARK  1 active torsions:
REMARK  status: ('A' for Active; 'I' for Inactive)
REMARK    1  A    between atoms: C_12  and  S_13 
ROOT
ATOM      1  C   UNN dAMED      -0.768  -3.221   0.177  0.00  0.00     0.028 C 
ATOM      2  C   UNN dAMED      -2.252  -3.149  -0.167  0.00  0.00     0.009 C 
ATOM      3  C   UNN dAMED       0.047  -1.945  -0.078  0.00  0.00    -0.009 C 
ATOM      4  C   UNN dAMED      -2.898  -1.824   0.224  0.00  0.00     0.029 C 
ATOM      5  C   UNN dAMED       1.087   0.383  -2.186  0.00  0.00     0.059 C 
ATOM      6  C   UNN dAMED       2.089  -0.278  -3.139  0.00  0.00     0.004 C 
ATOM      7  C   UNN dAMED      -0.559  -0.765   0.065  0.00  0.00     0.061 A 
ATOM      8  C   UNN dAMED      -1.990  -0.636   0.122  0.00  0.00     0.007 A 
ATOM      9  C   UNN dAMED       1.323   0.645  -0.676  0.00  0.00     0.345 C 
ATOM     10  N   UNN dAMED       0.108   0.444   0.075  0.00  0.00    -0.272 N 
ATOM     11  C   UNN dAMED       2.941  -1.395  -2.542  0.00  0.00     0.000 C 
ATOM     12  C   UNN dAMED      -2.374   0.639   0.101  0.00  0.00     0.065 A 
ATOM     13  S   UNN dAMED      -1.004   1.722   0.039  0.00  0.00    -0.002 SA
ATOM     14  C   UNN dAMED       3.511  -0.931  -1.206  0.00  0.00     0.004 C 
ATOM     15  C   UNN dAMED       2.466  -0.480  -0.187  0.00  0.00     0.059 C 
ATOM     16  N   UNN dAMED       2.376  -0.392  -0.226  0.00  0.00     0.637 N 
ENDROOT
BRANCH  12  17
ATOM     17  S   UNN dAMED      -4.003   1.151   0.103  0.00  0.00    -0.134 SA
ATOM     18  H   UNN dAMED      -4.172   1.114  -1.227  0.00  0.00     0.107 HD
ENDBRANCH  12  17
TORSDOF 1
