REMARK  4 active torsions:
REMARK  status: ('A' for Active; 'I' for Inactive)
REMARK    1  A    between atoms: C_3  and  C_17 
REMARK    2  A    between atoms: C_4  and  O_18 
REMARK    3  A    between atoms: C_9  and  C_15 
REMARK    4  A    between atoms: C_15  and  C_17 
ROOT
ATOM      1  C   UNN dAMED      -0.518  -0.838   1.358  0.00  0.00     0.199 C 
ATOM      2  O   UNN dAMED       0.129  -1.656   1.998  0.00  0.00    -0.286 OA
ENDROOT
BRANCH   1   3
ATOM      3  C   UNN dAMED      -1.993  -0.836   1.379  0.00  0.00     0.078 A 
ATOM      4  C   UNN dAMED      -2.618  -1.427   2.477  0.00  0.00     0.010 A 
ATOM      5  C   UNN dAMED      -4.007  -1.418   2.558  0.00  0.00     0.042 A 
ATOM      6  C   UNN dAMED      -4.817  -0.826   1.585  0.00  0.00     0.199 A 
ATOM      7  C   UNN dAMED      -4.102  -0.259   0.510  0.00  0.00     0.084 A 
ATOM      8  O   UNN dAMED      -6.087  -0.795   1.662  0.00  0.00    -0.286 OA
ATOM      9  C   UNN dAMED      -2.702  -0.221   0.330  0.00  0.00     0.202 A 
ATOM     10  O   UNN dAMED      -2.177   0.332  -0.693  0.00  0.00    -0.286 OA
ENDBRANCH   1   3
BRANCH   1  11
ATOM     11  C   UNN dAMED       0.172   0.029   0.328  0.00  0.00     0.042 C 
BRANCH  11  12
ATOM     12  C   UNN dAMED       1.652   0.317   0.373  0.00  0.00     0.003 A 
ATOM     13  C   UNN dAMED       2.544  -0.554  -0.252  0.00  0.00     0.002 A 
ATOM     14  C   UNN dAMED       3.914  -0.330  -0.161  0.00  0.00     0.024 A 
ATOM     15  C   UNN dAMED       4.374   0.770   0.552  0.00  0.00     0.094 A 
ATOM     16  C   UNN dAMED       3.497   1.653   1.169  0.00  0.00     0.024 A 
ATOM     17  C   UNN dAMED       2.126   1.424   1.077  0.00  0.00     0.002 A 
BRANCH  15  18
ATOM     18  O   UNN dAMED       5.717   0.975   0.660  0.00  0.00    -0.328 OA
ATOM     19  C   UNN dAMED       6.265  -0.299   0.831  0.00  0.00     0.181 C 
ENDBRANCH  15  18
ENDBRANCH  11  12
ENDBRANCH   1  11
TORSDOF 4
