REMARK  0 active torsions:
REMARK  status: ('A' for Active; 'I' for Inactive)
ROOT
ATOM      1  O   UNN dAMED       2.215   3.454   0.176  0.00  0.00    -0.272 OA
ATOM      2  N   UNN dAMED       1.393   1.314  -0.228  0.00  0.00    -0.309 N 
ATOM      3  N   UNN dAMED      -1.169  -2.644   0.446  0.00  0.00     0.054 N 
ATOM      4  O   UNN dAMED      -1.156  -3.981   0.480  0.00  0.00    -0.062 OA
ATOM      5  O   UNN dAMED      -1.085   1.877   1.489  0.00  0.00    -0.366 OA
ATOM      6  C   UNN dAMED      -2.540  -2.122   0.418  0.00  0.00     0.285 C 
ATOM      7  C   UNN dAMED      -2.772  -0.622   0.228  0.00  0.00     0.038 C 
ATOM      8  C   UNN dAMED      -2.453  -0.260   1.476  0.00  0.00     0.034 C 
ATOM      9  C   UNN dAMED      -0.764  -2.075   1.723  0.00  0.00     0.286 C 
ATOM     10  C   UNN dAMED      -0.035  -0.782   1.455  0.00  0.00     0.051 C 
ATOM     11  C   UNN dAMED      -0.342  -1.965  -0.644  0.00  0.00     0.284 C 
ATOM     12  C   UNN dAMED       0.502  -0.865   0.026  0.00  0.00     0.061 C 
ATOM     13  C   UNN dAMED      -1.333  -1.217  -1.581  0.00  0.00     0.025 C 
ATOM     14  C   UNN dAMED      -2.127  -0.023  -0.974  0.00  0.00     0.021 C 
ATOM     15  C   UNN dAMED       0.313   0.462  -0.733  0.00  0.00     0.117 C 
ATOM     16  C   UNN dAMED       2.001  -0.864   0.105  0.00  0.00    -0.004 A 
ATOM     17  C   UNN dAMED       2.892  -1.900   0.307  0.00  0.00    -0.003 A 
ATOM     18  C   UNN dAMED       4.239  -1.574   0.493  0.00  0.00    -0.000 A 
ATOM     19  C   UNN dAMED       2.464   0.470   0.090  0.00  0.00     0.058 A 
ATOM     20  C   UNN dAMED       4.669  -0.234   0.541  0.00  0.00     0.002 A 
ATOM     21  C   UNN dAMED      -1.081   1.091  -0.821  0.00  0.00     0.046 C 
ATOM     22  C   UNN dAMED       3.776   0.816   0.337  0.00  0.00     0.017 A 
ATOM     23  C   UNN dAMED      -1.241   2.267   0.137  0.00  0.00     0.150 C 
ATOM     24  C   UNN dAMED      -2.259   1.214   1.842  0.00  0.00     0.141 C 
ATOM     25  C   UNN dAMED      -0.085   3.232  -0.221  0.00  0.00     0.108 C 
ATOM     26  C   UNN dAMED       1.324   2.685  -0.170  0.00  0.00     0.239 C 
ENDROOT
TORSDOF 0
