REMARK  4 active torsions:
REMARK  status: ('A' for Active; 'I' for Inactive)
REMARK    1  A    between atoms: O_1  and  C_4 
REMARK    2  A    between atoms: O_1  and  C_9 
REMARK    3  A    between atoms: C_5  and  C_17 
REMARK    4  A    between atoms: C_12  and  C_14 
ROOT
ATOM      1  O   UNN dAMED      -0.312  -0.636  -1.338  0.00  0.00    -0.307 OA
ENDROOT
BRANCH   1   2
ATOM      2  C   UNN dAMED      -1.067   0.509  -1.451  0.00  0.00     0.100 A 
ATOM      3  C   UNN dAMED      -1.207   1.125  -2.695  0.00  0.00     0.025 A 
ATOM      4  C   UNN dAMED      -1.978   2.278  -2.803  0.00  0.00     0.006 A 
ATOM      5  C   UNN dAMED      -2.589   2.791  -1.660  0.00  0.00     0.053 A 
ATOM      6  C   UNN dAMED      -2.493   2.156  -0.427  0.00  0.00     0.006 A 
ATOM      7  C   UNN dAMED      -1.734   0.997  -0.326  0.00  0.00     0.025 A 
BRANCH   5   8
ATOM      8  C   UNN dAMED      -3.437   3.976  -1.737  0.00  0.00     0.266 C 
ATOM      9  O   UNN dAMED      -3.100   4.955  -2.388  0.00  0.00    -0.271 OA
ATOM     10  N   UNN dAMED      -4.522   4.093  -0.822  0.00  0.00    -0.057 NA
ENDBRANCH   5   8
ENDBRANCH   1   2
BRANCH   1  11
ATOM     11  C   UNN dAMED       0.982  -0.387  -0.940  0.00  0.00     0.100 A 
ATOM     12  C   UNN dAMED       1.262  -0.149   0.408  0.00  0.00     0.025 A 
ATOM     13  C   UNN dAMED       2.569   0.106   0.806  0.00  0.00     0.006 A 
ATOM     14  C   UNN dAMED       3.577   0.087  -0.153  0.00  0.00     0.053 A 
ATOM     15  C   UNN dAMED       3.314  -0.203  -1.489  0.00  0.00     0.006 A 
ATOM     16  C   UNN dAMED       2.003  -0.447  -1.887  0.00  0.00     0.025 A 
BRANCH  14  17
ATOM     17  C   UNN dAMED       4.971   0.345   0.203  0.00  0.00     0.266 C 
ATOM     18  O   UNN dAMED       5.299   0.750   1.308  0.00  0.00    -0.271 OA
ATOM     19  N   UNN dAMED       5.964   0.195  -0.806  0.00  0.00    -0.057 NA
ENDBRANCH  14  17
ENDBRANCH   1  11
TORSDOF 4
