REMARK  0 active torsions:
REMARK  status: ('A' for Active; 'I' for Inactive)
ROOT
ATOM      1  N   UNN dAMED      -0.089   0.481   0.052  0.00  0.00    -0.304 N 
ATOM      2  C   UNN dAMED       0.408  -3.529  -0.980  0.00  0.00     0.003 A 
ATOM      3  C   UNN dAMED       0.408  -3.155   0.369  0.00  0.00     0.044 A 
ATOM      4  C   UNN dAMED       0.240  -2.567  -1.964  0.00  0.00     0.002 A 
ATOM      5  C   UNN dAMED       0.245  -1.834   0.824  0.00  0.00     0.212 A 
ATOM      6  C   UNN dAMED       0.076  -1.242  -1.592  0.00  0.00     0.021 A 
ATOM      7  C   UNN dAMED       0.079  -0.899  -0.229  0.00  0.00     0.103 A 
ATOM      8  C   UNN dAMED       2.945  -0.061  -0.323  0.00  0.00     0.001 A 
ATOM      9  C   UNN dAMED       2.400   1.175   0.025  0.00  0.00     0.016 A 
ATOM     10  C   UNN dAMED       4.322  -0.246  -0.433  0.00  0.00     0.000 A 
ATOM     11  C   UNN dAMED       5.184   0.820  -0.201  0.00  0.00     0.000 A 
ATOM     12  C   UNN dAMED       3.287   2.234   0.252  0.00  0.00     0.001 A 
ATOM     13  C   UNN dAMED       0.952   1.414   0.156  0.00  0.00     0.064 A 
ATOM     14  C   UNN dAMED       0.351   2.631   0.422  0.00  0.00     0.019 A 
ATOM     15  C   UNN dAMED      -1.035   2.452   0.474  0.00  0.00     0.019 A 
ATOM     16  C   UNN dAMED      -2.918  -0.772  -0.259  0.00  0.00     0.001 A 
ATOM     17  C   UNN dAMED      -2.667   0.519   0.206  0.00  0.00     0.016 A 
ATOM     18  C   UNN dAMED      -4.211  -1.291  -0.306  0.00  0.00     0.000 A 
ATOM     19  C   UNN dAMED      -3.765   1.288   0.612  0.00  0.00     0.001 A 
ATOM     20  C   UNN dAMED      -1.323   1.119   0.240  0.00  0.00     0.064 A 
ATOM     21  C   UNN dAMED      -5.286  -0.509   0.100  0.00  0.00     0.000 A 
ATOM     22  C   UNN dAMED       4.666   2.064   0.140  0.00  0.00     0.000 A 
ATOM     23  C   UNN dAMED      -5.064   0.784   0.559  0.00  0.00     0.000 A 
ATOM     24  O   UNN dAMED       0.255  -1.558   2.071  0.00  0.00    -0.285 OA
ENDROOT
TORSDOF 0
