REMARK  3 active torsions:
REMARK  status: ('A' for Active; 'I' for Inactive)
REMARK       I    between atoms: N_2  and  C_24 
REMARK    1  A    between atoms: C_7  and  C_21 
REMARK    2  A    between atoms: C_11  and  C_24 
REMARK    3  A    between atoms: C_12  and  N_23 
REMARK       I    between atoms: C_21  and  N_23 
ROOT
ATOM      1  N   UNN dAMED       1.541  -0.207  -0.328  0.00  0.00    -0.293 N 
ATOM      2  C   UNN dAMED      -0.860  -0.730   0.134  0.00  0.00     0.100 A 
ATOM      3  C   UNN dAMED       0.502  -1.105   0.013  0.00  0.00     0.076 A 
ATOM      4  C   UNN dAMED      -1.775  -1.739   0.492  0.00  0.00     0.021 A 
ATOM      5  C   UNN dAMED       0.869  -2.457   0.204  0.00  0.00    -0.005 A 
ATOM      6  C   UNN dAMED      -1.409  -3.068   0.666  0.00  0.00     0.001 A 
ATOM      7  C   UNN dAMED       2.262  -2.924  -0.111  0.00  0.00     0.030 C 
ATOM      8  C   UNN dAMED       2.748  -0.520   0.357  0.00  0.00     0.110 C 
ATOM      9  C   UNN dAMED       3.342  -1.889   0.100  0.00  0.00     0.029 C 
ATOM     10  C   UNN dAMED      -0.082  -3.428   0.508  0.00  0.00    -0.003 A 
ATOM     11  C   UNN dAMED       1.508   1.147  -0.560  0.00  0.00     0.284 C 
ATOM     12  O   UNN dAMED       1.438   1.611  -1.698  0.00  0.00    -0.265 OA
ENDROOT
BRANCH   2  13
ATOM     13  N   UNN dAMED      -1.333   0.535   0.004  0.00  0.00    -0.205 NA
ATOM     14  C   UNN dAMED      -1.887   0.754  -1.194  0.00  0.00     0.302 C 
ATOM     15  O   UNN dAMED      -1.304   0.848  -2.269  0.00  0.00    -0.263 OA
BRANCH  14  16
ATOM     16  C   UNN dAMED      -3.307   0.949  -1.071  0.00  0.00     0.158 A 
ATOM     17  O   UNN dAMED      -3.796   2.218  -1.166  0.00  0.00    -0.300 OA
ATOM     18  C   UNN dAMED      -5.153   2.130  -1.068  0.00  0.00     0.123 A 
ATOM     19  C   UNN dAMED      -5.534   0.815  -0.923  0.00  0.00     0.029 A 
ATOM     20  C   UNN dAMED      -4.346   0.051  -0.944  0.00  0.00     0.032 A 
ENDBRANCH  14  16
ENDBRANCH   2  13
BRANCH  11  21
ATOM     21  C   UNN dAMED       1.667   1.973   0.610  0.00  0.00     0.156 A 
ATOM     22  O   UNN dAMED       1.924   1.397   1.820  0.00  0.00    -0.300 OA
ATOM     23  C   UNN dAMED       1.994   2.403   2.736  0.00  0.00     0.123 A 
ATOM     24  C   UNN dAMED       1.792   3.619   2.121  0.00  0.00     0.029 A 
ATOM     25  C   UNN dAMED       1.585   3.342   0.752  0.00  0.00     0.032 A 
ENDBRANCH  11  21
TORSDOF 3
