REMARK  2 active torsions:
REMARK  status: ('A' for Active; 'I' for Inactive)
REMARK    1  A    between atoms: C_6  and  C_18 
REMARK    2  A    between atoms: C_8  and  C_19 
ROOT
ATOM      1  C   UNN dAMED      -1.755  -1.190   1.432  0.00  0.00     0.002 A 
ATOM      2  C   UNN dAMED      -1.031  -0.574   0.419  0.00  0.00     0.000 A 
ATOM      3  C   UNN dAMED      -1.694   0.188  -0.536  0.00  0.00     0.002 A 
ATOM      4  C   UNN dAMED      -3.138  -1.018   1.502  0.00  0.00     0.019 A 
ATOM      5  C   UNN dAMED      -3.824  -0.251   0.570  0.00  0.00     0.081 A 
ATOM      6  C   UNN dAMED      -3.076   0.353  -0.458  0.00  0.00     0.018 A 
ATOM      7  N   UNN dAMED      -5.157  -0.101   0.656  0.00  0.00    -0.244 NA
ATOM      8  C   UNN dAMED      -3.741   1.122  -1.408  0.00  0.00     0.003 A 
ATOM      9  C   UNN dAMED      -5.116   1.283  -1.330  0.00  0.00     0.021 A 
ATOM     10  C   UNN dAMED      -5.769   0.654  -0.286  0.00  0.00     0.099 A 
ENDROOT
BRANCH   2  11
ATOM     11  C   UNN dAMED       0.418  -0.913   0.223  0.00  0.00     0.000 C 
ATOM     12  C   UNN dAMED       1.068  -1.608   1.154  0.00  0.00     0.000 C 
BRANCH  12  13
ATOM     13  C   UNN dAMED       2.510  -1.970   0.951  0.00  0.00     0.000 A 
ATOM     14  C   UNN dAMED       3.368  -1.060   0.336  0.00  0.00     0.001 A 
ATOM     15  C   UNN dAMED       4.740  -1.292   0.330  0.00  0.00     0.014 A 
ATOM     16  C   UNN dAMED       5.255  -2.428   0.951  0.00  0.00     0.070 A 
ATOM     17  C   UNN dAMED       4.400  -3.330   1.580  0.00  0.00     0.014 A 
ATOM     18  N   UNN dAMED       6.658  -2.661   0.954  0.00  0.00    -0.101 NA
ATOM     19  C   UNN dAMED       3.028  -3.097   1.585  0.00  0.00     0.001 A 
ENDBRANCH  12  13
ENDBRANCH   2  11
TORSDOF 2
