REMARK  0 active torsions:
REMARK  status: ('A' for Active; 'I' for Inactive)
ROOT
ATOM      1  C   UNN dAMED       2.351   0.169  -1.236  0.00  0.00    -0.004 A 
ATOM      2  C   UNN dAMED       0.959   0.130  -1.261  0.00  0.00    -0.000 A 
ATOM      3  C   UNN dAMED      -1.647  -1.003  -1.051  0.00  0.00     0.043 A 
ATOM      4  C   UNN dAMED       3.023   0.143  -0.018  0.00  0.00    -0.022 A 
ATOM      5  C   UNN dAMED       0.234   0.065  -0.071  0.00  0.00     0.002 A 
ATOM      6  C   UNN dAMED      -1.214  -0.105  -0.166  0.00  0.00     0.024 A 
ATOM      7  C   UNN dAMED       2.306   0.062   1.174  0.00  0.00    -0.004 A 
ATOM      8  C   UNN dAMED       0.914   0.000   1.145  0.00  0.00    -0.000 A 
ATOM      9  C   UNN dAMED      -2.227   0.756   0.506  0.00  0.00     0.091 A 
ATOM     10  S   UNN dAMED      -3.400  -1.188  -1.308  0.00  0.00    -0.049 SA
ATOM     11  S   UNN dAMED      -3.862   0.314  -0.001  0.00  0.00    -0.040 SA
ATOM     12  S   UNN dAMED      -1.970   2.005   1.590  0.00  0.00    -0.071 SA
ATOM     13  C   UNN dAMED       4.523   0.225   0.011  0.00  0.00     0.031 C 
ENDROOT
TORSDOF 0
