REMARK  0 active torsions:
REMARK  status: ('A' for Active; 'I' for Inactive)
ROOT
ATOM      1  C   UNN dAMED       3.727   0.530  -0.806  0.00  0.00     0.152 C 
ATOM      2  C   UNN dAMED       2.502   1.259  -0.277  0.00  0.00     0.032 C 
ATOM      3  C   UNN dAMED       3.629  -1.010  -0.417  0.00  0.00     0.023 C 
ATOM      4  C   UNN dAMED       4.530  -2.200  -0.292  0.00  0.00     0.002 C 
ATOM      5  C   UNN dAMED       4.522  -2.866   1.073  0.00  0.00    -0.006 C 
ATOM      6  C   UNN dAMED       1.813   0.234   0.621  0.00  0.00    -0.003 C 
ATOM      7  C   UNN dAMED       2.808  -0.917   0.895  0.00  0.00     0.015 C 
ATOM      8  C   UNN dAMED       3.162  -3.313   1.600  0.00  0.00     0.012 C 
ATOM      9  C   UNN dAMED       2.146  -2.189   1.370  0.00  0.00     0.008 C 
ATOM     10  C   UNN dAMED       2.804  -4.563   0.814  0.00  0.00    -0.010 C 
ATOM     11  C   UNN dAMED       3.971  -5.700   1.083  0.00  0.00    -0.001 C 
ATOM     12  C   UNN dAMED       3.718  -6.778   2.136  0.00  0.00    -0.000 C 
ATOM     13  C   UNN dAMED       1.110  -2.704   0.368  0.00  0.00    -0.007 C 
ATOM     14  C   UNN dAMED       1.444  -5.100   1.234  0.00  0.00     0.018 C 
ATOM     15  C   UNN dAMED       2.590  -6.494   3.121  0.00  0.00    -0.001 C 
ATOM     16  C   UNN dAMED       0.465  -4.045   0.732  0.00  0.00    -0.006 C 
ATOM     17  C   UNN dAMED       1.543  -5.451   2.718  0.00  0.00    -0.006 C 
ATOM     18  C   UNN dAMED       2.601  -7.105   4.524  0.00  0.00    -0.000 C 
ATOM     19  C   UNN dAMED       3.967  -5.696   1.082  0.00  0.00    -0.001 C 
ATOM     20  C   UNN dAMED       4.160   0.461  -0.772  0.00  0.00     0.002 C 
ATOM     21  O   UNN dAMED       4.595   1.048  -1.726  0.00  0.00    -0.224 OA
ENDROOT
TORSDOF 0
