REMARK  3 active torsions:
REMARK  status: ('A' for Active; 'I' for Inactive)
REMARK    1  A    between atoms: C_12  and  O_23 
REMARK    2  A    between atoms: C_21  and  C_25 
REMARK    3  A    between atoms: C_22  and  O_28 
ROOT
ATOM      1  N   UNN dAMED       3.215   4.634  -4.789  0.00  0.00    -0.356 N 
ATOM      2  H   UNN dAMED       3.716   5.139  -4.071  0.00  0.00     0.166 HD
ATOM      3  N   UNN dAMED       1.341   1.717  -3.384  0.00  0.00     0.132 N 
ATOM      4  C   UNN dAMED       1.079   1.967  -5.921  0.00  0.00     0.063 C 
ATOM      5  C   UNN dAMED       1.997   3.137  -5.829  0.00  0.00    -0.006 A 
ATOM      6  C   UNN dAMED       1.138   1.065  -4.680  0.00  0.00     0.255 C 
ATOM      7  C   UNN dAMED       2.511   3.472  -4.601  0.00  0.00     0.052 A 
ATOM      8  C   UNN dAMED       2.318   4.107  -6.785  0.00  0.00     0.013 A 
ATOM      9  C   UNN dAMED       2.027   4.300  -8.147  0.00  0.00     0.003 A 
ATOM     10  C   UNN dAMED       2.555   5.420  -8.791  0.00  0.00     0.024 A 
ATOM     11  C   UNN dAMED       3.107   5.044  -6.108  0.00  0.00     0.058 A 
ATOM     12  C   UNN dAMED       3.345   6.323  -8.091  0.00  0.00     0.096 A 
ATOM     13  C   UNN dAMED       2.363   2.777  -3.295  0.00  0.00     0.286 C 
ATOM     14  C   UNN dAMED       3.642   6.173  -6.737  0.00  0.00     0.041 A 
ATOM     15  C   UNN dAMED       3.697   2.101  -2.897  0.00  0.00     0.028 C 
ATOM     16  C   UNN dAMED       3.745   1.117  -1.710  0.00  0.00     0.049 C 
ATOM     17  C   UNN dAMED       1.385   0.675  -2.362  0.00  0.00     0.244 C 
ATOM     18  C   UNN dAMED       2.730   0.016  -2.009  0.00  0.00     0.057 C 
ATOM     19  C   UNN dAMED       2.628  -0.929  -0.807  0.00  0.00     0.052 C 
ATOM     20  C   UNN dAMED       3.922  -1.530  -0.267  0.00  0.00     0.130 C 
ATOM     21  C   UNN dAMED       5.092   0.460  -1.379  0.00  0.00     0.060 C 
ATOM     22  C   UNN dAMED       5.126  -0.590  -0.261  0.00  0.00     0.117 C 
ATOM     23  O   UNN dAMED       3.883  -2.648   0.521  0.00  0.00    -0.193 OA
ENDROOT
BRANCH  21  24
ATOM     24  C   UNN dAMED       6.376   1.035  -1.923  0.00  0.00     0.208 C 
ATOM     25  O   UNN dAMED       6.786   2.113  -1.395  0.00  0.00    -0.644 OA
ATOM     26  O   UNN dAMED       6.950   0.368  -2.834  0.00  0.00    -0.644 OA
ENDBRANCH  21  24
BRANCH  22  27
ATOM     27  O   UNN dAMED       5.767  -0.239   1.015  0.00  0.00    -0.327 OA
ATOM     28  C   UNN dAMED       5.127  -0.586  -0.253  0.00  0.00     0.181 C 
ENDBRANCH  22  27
BRANCH  12  29
ATOM     29  O   UNN dAMED       3.881   7.385  -8.763  0.00  0.00    -0.328 OA
ATOM     30  C   UNN dAMED       2.819   8.271  -8.960  0.00  0.00     0.181 C 
ENDBRANCH  12  29
TORSDOF 3
