REMARK  2 active torsions:
REMARK  status: ('A' for Active; 'I' for Inactive)
REMARK    1  A    between atoms: C_16  and  C_24 
REMARK    2  A    between atoms: C_18  and  C_23 
ROOT
ATOM      1  N   UNN dAMED       0.349  -2.032   1.982  0.00  0.00    -0.215 NA
ATOM      2  N   UNN dAMED       0.055   0.087   0.913  0.00  0.00    -0.215 NA
ATOM      3 CL   UNN dAMED      -1.498  -3.575   2.879  0.00  0.00    -0.061 Cl
ATOM      4 CL   UNN dAMED      -2.171   1.273   0.431  0.00  0.00    -0.061 Cl
ATOM      5 CL   UNN dAMED      -7.814  -1.666   2.228  0.00  0.00    -0.082 Cl
ATOM      6  C   UNN dAMED      -0.994  -2.119   2.102  0.00  0.00     0.142 A 
ATOM      7  C   UNN dAMED      -1.895  -1.158   1.658  0.00  0.00     0.057 A 
ATOM      8  C   UNN dAMED      -3.343  -1.286   1.801  0.00  0.00     0.005 A 
ATOM      9  C   UNN dAMED      -3.998  -0.767   2.924  0.00  0.00     0.001 A 
ATOM     10  C   UNN dAMED      -5.379  -0.883   3.060  0.00  0.00     0.011 A 
ATOM     11  C   UNN dAMED      -6.113  -1.524   2.067  0.00  0.00     0.058 A 
ATOM     12  C   UNN dAMED      -4.101  -1.928   0.814  0.00  0.00     0.001 A 
ATOM     13  C   UNN dAMED      -1.279  -0.062   1.063  0.00  0.00     0.142 A 
ATOM     14  C   UNN dAMED      -5.483  -2.049   0.944  0.00  0.00     0.011 A 
ATOM     15  C   UNN dAMED       0.816  -0.919   1.386  0.00  0.00     0.164 A 
ENDROOT
BRANCH  15  16
ATOM     16  C   UNN dAMED       2.308  -0.781   1.248  0.00  0.00     0.039 C 
ATOM     17  C   UNN dAMED       2.827  -0.213   0.161  0.00  0.00     0.003 C 
BRANCH  17  18
ATOM     18  C   UNN dAMED       4.314  -0.034   0.049  0.00  0.00     0.000 A 
ATOM     19  C   UNN dAMED       5.105  -1.075  -0.433  0.00  0.00     0.001 A 
ATOM     20  C   UNN dAMED       6.485  -0.915  -0.522  0.00  0.00     0.011 A 
ATOM     21  C   UNN dAMED       7.063   0.287  -0.125  0.00  0.00     0.058 A 
ATOM     22 CL   UNN dAMED       8.763   0.488  -0.238  0.00  0.00    -0.082 Cl
ATOM     23  C   UNN dAMED       6.279   1.329   0.360  0.00  0.00     0.011 A 
ATOM     24  C   UNN dAMED       4.899   1.166   0.447  0.00  0.00     0.001 A 
ENDBRANCH  17  18
ENDBRANCH  15  16
TORSDOF 2
