REMARK  4 active torsions:
REMARK  status: ('A' for Active; 'I' for Inactive)
REMARK    1  A    between atoms: C_2  and  S_3 
REMARK    2  A    between atoms: C_2  and  N_6 
REMARK    3  A    between atoms: N_6  and  C_8 
REMARK    4  A    between atoms: C_8  and  C_9 
ROOT
ATOM      1  N   UNN dAMED      -1.349   0.769   0.671  0.00  0.00    -0.147 NA
ATOM      2  C   UNN dAMED      -0.226   0.134   0.575  0.00  0.00     0.197 C 
ATOM      3  C   UNN dAMED      -2.353   0.514  -0.181  0.00  0.00     0.208 C 
ATOM      4  N   UNN dAMED      -3.232   0.308  -0.911  0.00  0.00    -0.170 NA
ENDROOT
BRANCH   2   5
ATOM      5  S   UNN dAMED       0.210  -1.102  -0.583  0.00  0.00    -0.074 SA
ATOM      6  C   UNN dAMED      -1.341  -1.045  -1.475  0.00  0.00     0.077 C 
ENDBRANCH   2   5
BRANCH   2   7
ATOM      7  N   UNN dAMED       0.765   0.392   1.413  0.00  0.00    -0.242 NA
BRANCH   7   8
ATOM      8  C   UNN dAMED       0.685   1.538   2.303  0.00  0.00     0.154 C 
BRANCH   8   9
ATOM      9  C   UNN dAMED       1.419   1.510   3.648  0.00  0.00     0.000 C 
ATOM     10  C   UNN dAMED       1.432   0.394   4.374  0.00  0.00    -0.003 C 
ENDBRANCH   8   9
ENDBRANCH   7   8
ENDBRANCH   2   7
TORSDOF 4
