REMARK  2 active torsions:
REMARK  status: ('A' for Active; 'I' for Inactive)
REMARK    1  A    between atoms: C_1  and  N_15 
REMARK    2  A    between atoms: C_6  and  C_7 
REMARK       I    between atoms: C_7  and  N_18 
REMARK       I    between atoms: C_9  and  N_10 
ROOT
ATOM      1  C   UNN dAMED       0.063   0.257  -0.322  0.00  0.00     0.295 C 
ATOM      2  O   UNN dAMED       0.605   1.332  -0.079  0.00  0.00    -0.265 OA
ATOM      3  C   UNN dAMED       0.777  -1.113  -1.922  0.00  0.00     0.772 C 
ATOM      4  N   UNN dAMED       1.445  -0.268  -2.796  0.00  0.00    -0.060 N 
ATOM      5  N   UNN dAMED       0.849   0.846  -3.286  0.00  0.00    -0.155 NA
ATOM      6  C   UNN dAMED       2.725  -0.404  -3.248  0.00  0.00     0.080 A 
ATOM      7  C   UNN dAMED       1.829   1.422  -3.990  0.00  0.00     0.081 A 
ATOM      8  C   UNN dAMED       3.038   0.700  -3.992  0.00  0.00     0.032 A 
ATOM      9  N   UNN dAMED       0.699  -0.882  -0.616  0.00  0.00    -0.018 NA
ATOM     10  N   UNN dAMED       0.504  -2.352  -2.303  0.00  0.00     0.062 N 
ATOM     11  C   UNN dAMED       3.716  -1.297  -2.570  0.00  0.00     0.053 C 
ATOM     12  C   UNN dAMED       1.599   2.615  -4.873  0.00  0.00     0.054 C 
ENDROOT
BRANCH   1  13
ATOM     13  C   UNN dAMED      -1.414   0.186  -0.185  0.00  0.00     0.059 A 
ATOM     14  C   UNN dAMED      -2.143   1.379  -0.230  0.00  0.00     0.006 A 
ATOM     15  C   UNN dAMED      -3.532   1.347  -0.165  0.00  0.00     0.024 A 
ATOM     16  C   UNN dAMED      -4.171   0.112  -0.082  0.00  0.00     0.127 A 
ATOM     17  C   UNN dAMED      -3.462  -1.086  -0.035  0.00  0.00     0.024 A 
ATOM     18  C   UNN dAMED      -2.074  -1.042  -0.070  0.00  0.00     0.006 A 
BRANCH  16  19
ATOM     19  N   UNN dAMED      -5.617   0.068  -0.051  0.00  0.00    -0.114 N 
ATOM     20  O   UNN dAMED      -6.148  -0.937   0.441  0.00  0.00    -0.532 OA
ATOM     21  O   UNN dAMED      -6.228   1.037  -0.522  0.00  0.00    -0.532 OA
ENDBRANCH  16  19
ENDBRANCH   1  13
TORSDOF 2
