REMARK  7 active torsions:
REMARK  status: ('A' for Active; 'I' for Inactive)
REMARK    1  A    between atoms: C_3  and  C_16 
REMARK    2  A    between atoms: C_5  and  O_11 
REMARK    3  A    between atoms: CA_6  and  C_12 
REMARK    4  A    between atoms: C_7  and  C_9 
REMARK    5  A    between atoms: C_9  and  O_11 
REMARK    6  A    between atoms: C_16  and  O_18 
REMARK    7  A    between atoms: O_18  and  C_19 
ROOT
ATOM      1  N   UNN dAMED       1.527  -0.702  -0.078  0.00  0.00    -0.343 N 
ATOM      2  H   UNN dAMED       2.433  -1.135   0.030  0.00  0.00     0.166 HD
ATOM      3  C   UNN dAMED       1.324   0.592  -0.499  0.00  0.00     0.119 A 
ATOM      4  C   UNN dAMED      -0.038   0.767  -0.547  0.00  0.00     0.024 A 
ATOM      5  C   UNN dAMED      -0.678  -0.417  -0.141  0.00  0.00     0.122 A 
ATOM      6  CA  UNN dAMED       0.322  -1.326   0.126  0.00  0.00     0.145 A 
ATOM      7  C   UNN dAMED      -0.723   2.030  -0.965  0.00  0.00     0.035 C 
ENDROOT
BRANCH   3   8
ATOM      8  C   UNN dAMED       2.374   1.504  -0.834  0.00  0.00     0.311 C 
ATOM      9  O   UNN dAMED       2.799   1.740  -1.955  0.00  0.00    -0.258 OA
BRANCH   8  10
ATOM     10  O   UNN dAMED       2.863   2.071   0.298  0.00  0.00    -0.297 OA
BRANCH  10  11
ATOM     11  C   UNN dAMED       2.906   1.035   1.234  0.00  0.00     0.152 C 
ATOM     12  C   UNN dAMED       1.623   0.280   1.589  0.00  0.00     0.035 C 
ENDBRANCH  10  11
ENDBRANCH   8  10
ENDBRANCH   3   8
BRANCH   6  13
ATOM     13  C   UNN dAMED       0.186  -2.728   0.523  0.00  0.00     0.229 C 
ATOM     14  O   UNN dAMED      -0.234  -2.939   1.700  0.00  0.00    -0.643 OA
ATOM     15  OXT UNN dAMED       0.540  -3.588  -0.337  0.00  0.00    -0.643 OA
ENDBRANCH   6  13
BRANCH   5  16
ATOM     16  O   UNN dAMED      -1.992  -0.713  -0.133  0.00  0.00    -0.275 OA
BRANCH  16  17
ATOM     17  C   UNN dAMED      -2.810   0.279   0.321  0.00  0.00     0.276 C 
ATOM     18  O   UNN dAMED      -4.024   0.142   0.409  0.00  0.00    -0.264 OA
BRANCH  17  19
ATOM     19  C   UNN dAMED      -2.202   1.570   0.791  0.00  0.00     0.096 C 
ATOM     20  C   UNN dAMED      -1.622   1.665   2.205  0.00  0.00     0.011 C 
ENDBRANCH  17  19
ENDBRANCH  16  17
ENDBRANCH   5  16
TORSDOF 7
