REMARK  7 active torsions:
REMARK  status: ('A' for Active; 'I' for Inactive)
REMARK    1  A    between atoms: N_2  and  C_18 
REMARK    2  A    between atoms: C_6  and  C_10 
REMARK    3  A    between atoms: C_7  and  C_8 
REMARK    4  A    between atoms: C_8  and  O_12 
REMARK    5  A    between atoms: C_10  and  O_15 
REMARK    6  A    between atoms: O_12  and  C_13 
REMARK    7  A    between atoms: O_15  and  C_16 
ROOT
ATOM      1  O   UNN dAMED       0.132   2.981   0.498  0.00  0.00    -0.263 OA
ATOM      2  N   UNN dAMED       0.969   0.798   0.205  0.00  0.00    -0.275 N 
ATOM      3  O   UNN dAMED      -2.357   1.750   0.079  0.00  0.00    -0.281 OA
ATOM      4  C   UNN dAMED      -1.375   1.137   0.463  0.00  0.00     0.258 A 
ATOM      5  C   UNN dAMED      -0.002   1.776   0.393  0.00  0.00     0.304 A 
ATOM      6  C   UNN dAMED      -1.202  -0.317   0.231  0.00  0.00     0.128 A 
ATOM      7  C   UNN dAMED       0.296  -0.448   0.062  0.00  0.00     0.138 A 
ENDROOT
BRANCH   6   8
ATOM      8  C   UNN dAMED      -2.143  -1.110  -0.642  0.00  0.00     0.301 C 
ATOM      9  O   UNN dAMED      -2.982  -1.820  -0.105  0.00  0.00    -0.259 OA
BRANCH   8  10
ATOM     10  O   UNN dAMED      -1.980  -1.050  -1.990  0.00  0.00    -0.298 OA
BRANCH  10  11
ATOM     11  C   UNN dAMED      -0.793  -0.339  -2.179  0.00  0.00     0.152 C 
ATOM     12  C   UNN dAMED      -0.177  -0.234  -3.578  0.00  0.00     0.035 C 
ENDBRANCH  10  11
ENDBRANCH   8  10
ENDBRANCH   6   8
BRANCH   7  13
ATOM     13  C   UNN dAMED       0.998  -1.748   0.360  0.00  0.00     0.312 C 
ATOM     14  O   UNN dAMED       1.223  -2.040   1.527  0.00  0.00    -0.258 OA
BRANCH  13  15
ATOM     15  O   UNN dAMED       1.266  -2.588  -0.674  0.00  0.00    -0.297 OA
BRANCH  15  16
ATOM     16  C   UNN dAMED       0.697  -1.976  -1.794  0.00  0.00     0.152 C 
ATOM     17  C   UNN dAMED      -0.787  -2.184  -2.109  0.00  0.00     0.035 C 
ENDBRANCH  15  16
ENDBRANCH  13  15
ENDBRANCH   7  13
BRANCH   2  18
ATOM     18  C   UNN dAMED       2.199   1.472   0.069  0.00  0.00     0.023 C 
ATOM     19  C   UNN dAMED       2.798   1.698  -1.323  0.00  0.00     0.046 C 
ATOM     20  C   UNN dAMED       2.912   2.024   1.308  0.00  0.00     0.046 C 
ENDBRANCH   2  18
TORSDOF 7
