REMARK  3 active torsions:
REMARK  status: ('A' for Active; 'I' for Inactive)
REMARK    1  A    between atoms: C_3  and  C_16 
REMARK    2  A    between atoms: C_7  and  N_13 
REMARK    3  A    between atoms: C_12  and  C_17 
ROOT
ATOM      1  C   UNN dAMED      -1.703   0.894  -1.647  0.00  0.00     0.000 A 
ATOM      2  C   UNN dAMED      -1.024   0.110  -0.712  0.00  0.00     0.002 A 
ATOM      3  C   UNN dAMED      -3.097   0.937  -1.645  0.00  0.00     0.002 A 
ATOM      4  C   UNN dAMED      -1.732  -0.639   0.225  0.00  0.00     0.024 A 
ATOM      5  C   UNN dAMED      -3.822   0.205  -0.709  0.00  0.00     0.024 A 
ATOM      6  C   UNN dAMED      -3.122  -0.572   0.208  0.00  0.00     0.127 A 
ENDROOT
BRANCH   2   7
ATOM      7  C   UNN dAMED       0.467  -0.048  -0.829  0.00  0.00     0.002 C 
ATOM      8  C   UNN dAMED       1.212  -0.219   0.262  0.00  0.00     0.019 C 
BRANCH   8   9
ATOM      9  C   UNN dAMED       2.704  -0.372   0.147  0.00  0.00     0.081 A 
ATOM     10  N   UNN dAMED       3.454   0.746   0.010  0.00  0.00    -0.244 NA
ATOM     11  C   UNN dAMED       4.795   0.584   0.022  0.00  0.00     0.099 A 
ATOM     12  C   UNN dAMED       5.429  -0.639   0.161  0.00  0.00     0.021 A 
ATOM     13  C   UNN dAMED       4.629  -1.766   0.292  0.00  0.00     0.003 A 
ATOM     14  C   UNN dAMED       3.245  -1.642   0.284  0.00  0.00     0.019 A 
ENDBRANCH   8   9
ENDBRANCH   2   7
BRANCH   6  15
ATOM     15  N   UNN dAMED      -3.863  -1.342   1.170  0.00  0.00    -0.114 N 
ATOM     16  O   UNN dAMED      -3.660  -1.095   2.366  0.00  0.00    -0.532 OA
ATOM     17  O   UNN dAMED      -4.646  -2.194   0.730  0.00  0.00    -0.532 OA
ENDBRANCH   6  15
TORSDOF 3
