REMARK  3 active torsions:
REMARK  status: ('A' for Active; 'I' for Inactive)
REMARK    1  A    between atoms: N_6  and  C_18 
REMARK    2  A    between atoms: C_14  and  C_18 
REMARK    3  A    between atoms: C_15  and  N_19 
ROOT
ATOM      1  N   UNN dAMED      -4.793  -0.582   0.673  0.00  0.00    -0.186 NA
ATOM      2  O   UNN dAMED      -5.594   1.071  -0.742  0.00  0.00    -0.263 OA
ATOM      3  N   UNN dAMED      -2.440  -1.093   0.736  0.00  0.00    -0.326 N 
ATOM      4  H   UNN dAMED      -1.656  -1.634   1.088  0.00  0.00     0.168 HD
ATOM      5  N   UNN dAMED      -2.821   1.491  -1.625  0.00  0.00    -0.224 NA
ATOM      6  N   UNN dAMED      -1.140   0.266  -0.800  0.00  0.00    -0.177 NA
ATOM      7  C   UNN dAMED      -4.669   0.407  -0.292  0.00  0.00     0.301 A 
ATOM      8  C   UNN dAMED      -3.300   0.584  -0.718  0.00  0.00     0.167 A 
ATOM      9  C   UNN dAMED      -2.277  -0.157  -0.202  0.00  0.00     0.130 A 
ATOM     10  C   UNN dAMED      -1.511   1.306  -1.622  0.00  0.00     0.158 A 
ATOM     11  C   UNN dAMED      -3.838  -1.268   1.150  0.00  0.00     0.179 A 
ENDROOT
BRANCH   6  12
ATOM     12  C   UNN dAMED      -0.272   0.771   0.218  0.00  0.00     0.058 C 
BRANCH  12  13
ATOM     13  C   UNN dAMED       1.217   0.934   0.014  0.00  0.00     0.012 A 
ATOM     14  C   UNN dAMED       2.086  -0.116   0.328  0.00  0.00     0.003 A 
ATOM     15  C   UNN dAMED       3.464   0.074   0.260  0.00  0.00     0.024 A 
ATOM     16  C   UNN dAMED       3.935   1.327  -0.117  0.00  0.00     0.127 A 
ATOM     17  C   UNN dAMED       3.097   2.390  -0.430  0.00  0.00     0.024 A 
ATOM     18  C   UNN dAMED       1.724   2.183  -0.358  0.00  0.00     0.003 A 
BRANCH  16  19
ATOM     19  N   UNN dAMED       5.351   1.539  -0.182  0.00  0.00    -0.114 N 
ATOM     20  O   UNN dAMED       5.917   1.860   0.870  0.00  0.00    -0.532 OA
ATOM     21  O   UNN dAMED       5.888   1.390  -1.286  0.00  0.00    -0.532 OA
ENDBRANCH  16  19
ENDBRANCH  12  13
ENDBRANCH   6  12
TORSDOF 3
