REMARK  5 active torsions:
REMARK  status: ('A' for Active; 'I' for Inactive)
REMARK    1  A    between atoms: C_4  and  N_11 
REMARK    2  A    between atoms: C_8  and  C_9 
REMARK    3  A    between atoms: C_8  and  N_11 
REMARK    4  A    between atoms: N_11  and  C_12 
REMARK    5  A    between atoms: C_12  and  C_13 
ROOT
ATOM      1 CL   UNN dAMED      -3.891   0.924   1.581  0.00  0.00    -0.082 Cl
ATOM      2  C   UNN dAMED      -0.956  -1.215  -1.056  0.00  0.00     0.017 A 
ATOM      3  C   UNN dAMED      -2.209  -1.780  -0.811  0.00  0.00     0.002 A 
ATOM      4  C   UNN dAMED      -0.608   0.013  -0.486  0.00  0.00     0.061 A 
ATOM      5  C   UNN dAMED      -1.524   0.670   0.332  0.00  0.00     0.029 A 
ATOM      6  C   UNN dAMED      -3.122  -1.119   0.006  0.00  0.00     0.011 A 
ATOM      7  C   UNN dAMED      -2.772   0.102   0.573  0.00  0.00     0.059 A 
ENDROOT
BRANCH   4   8
ATOM      8  N   UNN dAMED       0.656   0.579  -0.738  0.00  0.00    -0.325 N 
BRANCH   8   9
ATOM      9  C   UNN dAMED       0.965   1.956  -0.347  0.00  0.00     0.088 C 
BRANCH   9  10
ATOM     10  C   UNN dAMED       0.142   2.720   0.705  0.00  0.00     0.238 C 
ATOM     11  F   UNN dAMED       0.528   2.749   1.988  0.00  0.00    -0.228 F 
ENDBRANCH   9  10
ENDBRANCH   8   9
BRANCH   8  12
ATOM     12  C   UNN dAMED       1.365   0.233  -1.967  0.00  0.00     0.144 C 
BRANCH  12  13
ATOM     13  C   UNN dAMED       2.853  -0.141  -1.938  0.00  0.00     0.218 C 
ATOM     14  F   UNN dAMED       3.781   0.798  -1.716  0.00  0.00    -0.232 F 
ENDBRANCH  12  13
ENDBRANCH   8  12
ENDBRANCH   4   8
TORSDOF 5
