REMARK  1 active torsions:
REMARK  status: ('A' for Active; 'I' for Inactive)
REMARK    1  A    between atoms: C_6  and  O_17 
ROOT
ATOM      1  H   UNN dAMED      -0.965   1.550   0.978  0.00  0.00     0.166 HD
ATOM      2  N   UNN dAMED      -1.234   0.723   0.463  0.00  0.00    -0.353 N 
ATOM      3  C   UNN dAMED       1.936  -0.978  -0.618  0.00  0.00     0.003 A 
ATOM      4  C   UNN dAMED       3.322  -0.887  -0.492  0.00  0.00     0.024 A 
ATOM      5  C   UNN dAMED       1.095  -0.105   0.081  0.00  0.00     0.016 A 
ATOM      6  C   UNN dAMED       3.862   0.087   0.337  0.00  0.00     0.094 A 
ATOM      7  C   UNN dAMED       1.671   0.862   0.912  0.00  0.00     0.003 A 
ATOM      8  C   UNN dAMED      -0.355  -0.206  -0.055  0.00  0.00     0.057 A 
ATOM      9  C   UNN dAMED      -1.132  -1.166  -0.676  0.00  0.00     0.018 A 
ATOM     10  C   UNN dAMED       3.053   0.965   1.043  0.00  0.00     0.024 A 
ATOM     11  C   UNN dAMED      -2.498  -0.817  -0.532  0.00  0.00     0.017 A 
ATOM     12  C   UNN dAMED      -3.730   1.021   0.528  0.00  0.00     0.017 A 
ATOM     13  C   UNN dAMED      -4.917   0.418   0.104  0.00  0.00     0.002 A 
ATOM     14  C   UNN dAMED      -2.537   0.373   0.190  0.00  0.00     0.057 A 
ATOM     15  C   UNN dAMED      -4.909  -0.770  -0.619  0.00  0.00     0.000 A 
ATOM     16  C   UNN dAMED      -3.707  -1.402  -0.946  0.00  0.00     0.002 A 
ENDROOT
BRANCH   6  17
ATOM     17  O   UNN dAMED       5.215   0.186   0.465  0.00  0.00    -0.328 OA
ATOM     18  C   UNN dAMED       5.730  -0.249  -0.758  0.00  0.00     0.181 C 
ENDBRANCH   6  17
TORSDOF 1
