REMARK  2 active torsions:
REMARK  status: ('A' for Active; 'I' for Inactive)
REMARK    1  A    between atoms: C_9  and  N_23 
REMARK       I    between atoms: C_11  and  N_23 
REMARK       I    between atoms: C_11  and  N_24 
REMARK    2  A    between atoms: C_14  and  C_16 
REMARK       I    between atoms: C_14  and  N_24 
ROOT
ATOM      1  C   UNN dAMED      -0.166   1.073   0.461  0.00  0.00     0.371 C 
ATOM      2  O   UNN dAMED      -0.637   2.098  -0.030  0.00  0.00    -0.242 OA
ATOM      3  O   UNN dAMED       1.849   2.866  -0.104  0.00  0.00    -0.265 OA
ATOM      4  C   UNN dAMED       2.010   1.812   0.508  0.00  0.00     0.287 C 
ATOM      5  N   UNN dAMED      -0.858  -0.055   0.769  0.00  0.00    -0.189 NA
ATOM      6  N   UNN dAMED       1.127   0.855   0.812  0.00  0.00    -0.152 NA
ENDROOT
BRANCH   5   7
ATOM      7  C   UNN dAMED      -2.169  -0.053   0.448  0.00  0.00     0.115 A 
ATOM      8  C   UNN dAMED      -2.592  -0.449  -0.829  0.00  0.00     0.035 A 
ATOM      9  C   UNN dAMED      -3.944  -0.581  -1.142  0.00  0.00     0.088 A 
ATOM     10  C   UNN dAMED      -4.910  -0.337  -0.173  0.00  0.00     0.163 A 
ATOM     11 CL   UNN dAMED      -4.384  -1.076  -2.727  0.00  0.00    -0.080 Cl
ATOM     12  F   UNN dAMED      -6.210  -0.492  -0.467  0.00  0.00    -0.202 F 
ATOM     13  C   UNN dAMED      -4.526   0.055   1.105  0.00  0.00     0.115 A 
ATOM     14 CL   UNN dAMED      -5.716   0.334   2.318  0.00  0.00    -0.078 Cl
ATOM     15  C   UNN dAMED      -3.168   0.195   1.406  0.00  0.00     0.171 A 
ATOM     16  F   UNN dAMED      -2.807   0.546   2.653  0.00  0.00    -0.202 F 
ENDBRANCH   5   7
BRANCH   4  17
ATOM     17  C   UNN dAMED       3.393   1.500   0.953  0.00  0.00     0.113 A 
ATOM     18  C   UNN dAMED       3.678   1.118   2.268  0.00  0.00     0.147 A 
ATOM     19  F   UNN dAMED       2.699   0.993   3.175  0.00  0.00    -0.204 F 
ATOM     20  C   UNN dAMED       4.986   0.845   2.665  0.00  0.00     0.030 A 
ATOM     21  C   UNN dAMED       6.028   0.971   1.749  0.00  0.00     0.005 A 
ATOM     22  C   UNN dAMED       5.763   1.366   0.440  0.00  0.00     0.030 A 
ATOM     23  C   UNN dAMED       4.451   1.623   0.048  0.00  0.00     0.147 A 
ATOM     24  F   UNN dAMED       4.225   2.017  -1.214  0.00  0.00    -0.204 F 
ENDBRANCH   4  17
TORSDOF 2
