REMARK  3 active torsions:
REMARK  status: ('A' for Active; 'I' for Inactive)
REMARK    1  A    between atoms: C_11  and  C_16 
REMARK    2  A    between atoms: C_15  and  N_18 
REMARK    3  A    between atoms: N_18  and  C_19 
ROOT
ATOM      1  N   UNN dAMED       1.862  -1.008  -0.361  0.00  0.00    -0.212 NA
ATOM      2  N   UNN dAMED      -0.524  -1.393  -0.159  0.00  0.00    -0.212 NA
ATOM      3  N   UNN dAMED      -1.763   0.680   0.233  0.00  0.00    -0.212 N 
ATOM      4  N   UNN dAMED      -1.498   1.995   0.424  0.00  0.00    -0.162 NA
ATOM      5  C   UNN dAMED      -5.738  -0.609   0.335  0.00  0.00     0.000 A 
ATOM      6  C   UNN dAMED      -5.256   0.081  -0.778  0.00  0.00     0.002 A 
ATOM      7  C   UNN dAMED      -4.884  -0.881   1.405  0.00  0.00     0.002 A 
ATOM      8  C   UNN dAMED      -3.554  -0.462   1.374  0.00  0.00     0.019 A 
ATOM      9  C   UNN dAMED      -3.927   0.503  -0.825  0.00  0.00     0.019 A 
ATOM     10  C   UNN dAMED      -3.088   0.221   0.253  0.00  0.00     0.085 A 
ATOM     11  C   UNN dAMED       0.758  -1.792  -0.346  0.00  0.00     0.143 A 
ATOM     12  C   UNN dAMED      -0.619  -0.063   0.028  0.00  0.00     0.170 A 
ATOM     13  C   UNN dAMED       0.436   0.838   0.042  0.00  0.00     0.092 A 
ATOM     14  C   UNN dAMED      -0.172   2.084   0.288  0.00  0.00     0.127 A 
ATOM     15  C   UNN dAMED       1.720   0.331  -0.173  0.00  0.00     0.164 A 
ENDROOT
BRANCH  11  16
ATOM     16  C   UNN dAMED       0.990  -3.249  -0.657  0.00  0.00     0.066 C 
ATOM     17  C   UNN dAMED       1.194  -4.264   0.472  0.00  0.00     0.008 C 
ENDBRANCH  11  16
BRANCH  15  18
ATOM     18  N   UNN dAMED       2.775   1.162  -0.177  0.00  0.00    -0.257 NA
BRANCH  18  19
ATOM     19  C   UNN dAMED       4.016   0.481  -0.513  0.00  0.00     0.086 C 
ATOM     20  C   UNN dAMED       3.742  -1.332  -0.262  0.00  0.00     0.024 C 
ATOM     21  C   UNN dAMED       3.743  -1.331  -0.262  0.00  0.00     0.024 C 
ATOM     22  C   UNN dAMED       3.743  -1.330  -0.262  0.00  0.00     0.024 C 
ENDBRANCH  18  19
ENDBRANCH  15  18
TORSDOF 3
