REMARK  3 active torsions:
REMARK  status: ('A' for Active; 'I' for Inactive)
REMARK    1  A    between atoms: C_11  and  N_20 
REMARK       I    between atoms: C_13  and  N_20 
REMARK    2  A    between atoms: C_13  and  C_21 
REMARK    3  A    between atoms: N_15  and  C_21 
ROOT
ATOM      1 CL   UNN dAMED      -6.976  -2.138   0.200  0.00  0.00    -0.082 Cl
ATOM      2  C   UNN dAMED      -5.453  -1.366   0.036  0.00  0.00     0.058 A 
ATOM      3  C   UNN dAMED      -5.394  -0.018  -0.305  0.00  0.00     0.011 A 
ATOM      4  C   UNN dAMED      -4.289  -2.097   0.246  0.00  0.00     0.011 A 
ATOM      5  C   UNN dAMED      -3.053  -1.469   0.110  0.00  0.00     0.002 A 
ATOM      6  C   UNN dAMED      -4.154   0.605  -0.433  0.00  0.00     0.002 A 
ATOM      7  C   UNN dAMED      -2.974  -0.116  -0.228  0.00  0.00     0.018 A 
ATOM      8  C   UNN dAMED      -1.673   0.509  -0.358  0.00  0.00     0.090 A 
ATOM      9  C   UNN dAMED      -1.468   1.756  -0.897  0.00  0.00     0.058 A 
ATOM     10  N   UNN dAMED      -0.511  -0.134   0.047  0.00  0.00    -0.221 NA
ATOM     11  C   UNN dAMED       0.545   0.614  -0.211  0.00  0.00     0.197 A 
ATOM     12  S   UNN dAMED       0.183   2.151  -0.916  0.00  0.00    -0.046 SA
ENDROOT
BRANCH  11  13
ATOM     13  N   UNN dAMED       1.846   0.321   0.036  0.00  0.00    -0.185 NA
ATOM     14  C   UNN dAMED       2.075  -0.982   0.205  0.00  0.00     0.291 C 
ATOM     15  O   UNN dAMED       2.027  -1.856  -0.653  0.00  0.00    -0.268 OA
BRANCH  14  16
ATOM     16  C   UNN dAMED       2.663  -1.387   1.536  0.00  0.00     0.339 C 
BRANCH  16  17
ATOM     17  N   UNN dAMED       4.213  -1.499   1.720  0.00  0.00     0.147 N 
ATOM     18  C   UNN dAMED       2.694  -1.731   1.334  0.00  0.00     0.251 C 
ATOM     19  C   UNN dAMED       1.798  -0.512   1.481  0.00  0.00     0.037 C 
ATOM     20  C   UNN dAMED       2.766   0.626   1.606  0.00  0.00     0.037 C 
ATOM     21  C   UNN dAMED       4.131  -0.021   1.406  0.00  0.00     0.251 C 
ENDBRANCH  16  17
ENDBRANCH  14  16
ENDBRANCH  11  13
TORSDOF 3
