REMARK  6 active torsions:
REMARK  status: ('A' for Active; 'I' for Inactive)
REMARK    1  A    between atoms: C_2  and  C_7 
REMARK    2  A    between atoms: O_5  and  C_7 
REMARK    3  A    between atoms: O_5  and  C_10 
REMARK    4  A    between atoms: N_8  and  C_13 
REMARK    5  A    between atoms: C_13  and  C_14 
REMARK    6  A    between atoms: C_14  and  C_15 
ROOT
ATOM      1  C   UNN dAMED      -0.304  -1.716  -0.827  0.00  0.00     0.114 C 
ATOM      2  C   UNN dAMED      -1.041  -0.524  -0.278  0.00  0.00     0.056 C 
ATOM      3  C   UNN dAMED       1.122  -1.242  -0.832  0.00  0.00     0.221 C 
ATOM      4  C   UNN dAMED      -0.168   0.483  -0.109  0.00  0.00     0.022 C 
ATOM      5  N   UNN dAMED       1.080   0.099  -0.526  0.00  0.00    -0.206 NA
ATOM      6  O   UNN dAMED       2.069  -1.997  -0.963  0.00  0.00    -0.278 OA
ATOM      7  C   UNN dAMED      -0.467   1.763   0.609  0.00  0.00     0.044 C 
ENDROOT
BRANCH   2   8
ATOM      8  C   UNN dAMED      -2.455  -0.476   0.053  0.00  0.00     0.293 C 
ATOM      9  O   UNN dAMED      -3.349  -0.426  -0.775  0.00  0.00    -0.259 OA
BRANCH   8  10
ATOM     10  O   UNN dAMED      -2.621  -0.564   1.389  0.00  0.00    -0.299 OA
BRANCH  10  11
ATOM     11  C   UNN dAMED      -1.328  -0.573   1.917  0.00  0.00     0.152 C 
ATOM     12  C   UNN dAMED      -0.123  -0.774   0.994  0.00  0.00     0.035 C 
ENDBRANCH  10  11
ENDBRANCH   8  10
ENDBRANCH   2   8
BRANCH   5  13
ATOM     13  C   UNN dAMED       2.144   0.551   0.296  0.00  0.00     0.084 C 
BRANCH  13  14
ATOM     14  C   UNN dAMED       1.963   0.633   1.814  0.00  0.00     0.018 C 
BRANCH  14  15
ATOM     15  C   UNN dAMED       1.877  -0.645   2.655  0.00  0.00     0.002 C 
ATOM     16  C   UNN dAMED       1.923  -0.558   4.184  0.00  0.00     0.000 C 
ENDBRANCH  14  15
ENDBRANCH  13  14
ENDBRANCH   5  13
TORSDOF 6
