REMARK  0 active torsions:
REMARK  status: ('A' for Active; 'I' for Inactive)
ROOT
ATOM      1 CL   UNN dAMED      -3.180   0.457   0.820  0.00  0.00    -0.085 Cl
ATOM      2 CL   UNN dAMED      -1.889  -2.519  -0.963  0.00  0.00    -0.085 Cl
ATOM      3 CL   UNN dAMED      -0.567   2.501  -1.119  0.00  0.00    -0.101 Cl
ATOM      4 CL   UNN dAMED       0.523  -0.207  -2.743  0.00  0.00    -0.101 Cl
ATOM      5  O   UNN dAMED       1.987  -1.866  -0.319  0.00  0.00    -0.289 OA
ATOM      6 CL   UNN dAMED       2.661  -0.286   2.218  0.00  0.00    -0.076 Cl
ATOM      7  C   UNN dAMED       0.126  -0.308  -0.988  0.00  0.00     0.175 A 
ATOM      8  C   UNN dAMED      -0.380   0.950  -0.185  0.00  0.00     0.175 A 
ATOM      9  C   UNN dAMED       1.304  -0.862  -0.129  0.00  0.00     0.206 A 
ATOM     10  C   UNN dAMED      -1.199  -0.963  -0.615  0.00  0.00     0.066 A 
ATOM     11  C   UNN dAMED       1.468   0.032   1.043  0.00  0.00     0.130 A 
ATOM     12  C   UNN dAMED      -1.665   0.123   0.034  0.00  0.00     0.066 A 
ATOM     13  C   UNN dAMED       0.542   1.016   1.063  0.00  0.00     0.206 A 
ATOM     14  O   UNN dAMED       0.268   1.934   1.882  0.00  0.00    -0.289 OA
ENDROOT
TORSDOF 0
