REMARK  7 active torsions:
REMARK  status: ('A' for Active; 'I' for Inactive)
REMARK    1  A    between atoms: O_1  and  C_11 
REMARK    2  A    between atoms: O_1  and  C_19 
REMARK    3  A    between atoms: O_2  and  C_5 
REMARK    4  A    between atoms: O_2  and  C_20 
REMARK    5  A    between atoms: C_6  and  N_21 
REMARK    6  A    between atoms: C_13  and  N_18 
REMARK       I    between atoms: C_15  and  N_18 
REMARK    7  A    between atoms: C_19  and  C_20 
ROOT
ATOM      1  C   UNN dAMED      -0.037  -2.173  -0.092  0.00  0.00     0.181 C 
ENDROOT
BRANCH   1   2
ATOM      2  O   UNN dAMED      -0.266  -1.115   0.789  0.00  0.00    -0.328 OA
BRANCH   2   3
ATOM      3  C   UNN dAMED      -1.504  -0.636   0.479  0.00  0.00     0.094 A 
ATOM      4  C   UNN dAMED      -2.475  -1.492  -0.017  0.00  0.00     0.026 A 
ATOM      5  C   UNN dAMED      -3.768  -1.004  -0.217  0.00  0.00     0.021 A 
ATOM      6  C   UNN dAMED      -4.125   0.318   0.104  0.00  0.00     0.085 A 
ATOM      7  C   UNN dAMED      -3.099   1.153   0.571  0.00  0.00     0.021 A 
ATOM      8  C   UNN dAMED      -1.797   0.689   0.762  0.00  0.00     0.026 A 
BRANCH   6   9
ATOM      9  N   UNN dAMED      -5.350   0.842  -0.115  0.00  0.00    -0.212 NA
ATOM     10  C   UNN dAMED      -6.339   0.000   0.175  0.00  0.00     0.256 C 
ATOM     11  O   UNN dAMED      -7.506   0.301   0.397  0.00  0.00    -0.270 OA
ATOM     12  C   UNN dAMED      -6.041  -1.463  -0.009  0.00  0.00     0.100 C 
ENDBRANCH   6   9
ENDBRANCH   2   3
ENDBRANCH   1   2
BRANCH   1  13
ATOM     13  C   UNN dAMED       0.978  -2.016  -1.229  0.00  0.00     0.181 C 
BRANCH  13  14
ATOM     14  O   UNN dAMED       1.318  -0.744  -1.699  0.00  0.00    -0.328 OA
BRANCH  14  15
ATOM     15  C   UNN dAMED       1.955  -0.966  -2.882  0.00  0.00     0.094 A 
ATOM     16  C   UNN dAMED       1.874  -0.011  -3.890  0.00  0.00     0.026 A 
ATOM     17  C   UNN dAMED       2.491  -0.259  -5.112  0.00  0.00     0.025 A 
ATOM     18  C   UNN dAMED       3.169  -1.464  -5.294  0.00  0.00     0.127 A 
ATOM     19  C   UNN dAMED       3.255  -2.420  -4.282  0.00  0.00     0.025 A 
ATOM     20  C   UNN dAMED       2.645  -2.162  -3.059  0.00  0.00     0.026 A 
BRANCH  18  21
ATOM     21  N   UNN dAMED       3.748  -1.761  -6.589  0.00  0.00    -0.114 N 
ATOM     22  O   UNN dAMED       4.552  -2.701  -6.656  0.00  0.00    -0.532 OA
ATOM     23  O   UNN dAMED       3.396  -1.061  -7.548  0.00  0.00    -0.532 OA
ENDBRANCH  18  21
ENDBRANCH  14  15
ENDBRANCH  13  14
ENDBRANCH   1  13
TORSDOF 7
