REMARK  4 active torsions:
REMARK  status: ('A' for Active; 'I' for Inactive)
REMARK    1  A    between atoms: O_2  and  C_9 
REMARK    2  A    between atoms: O_2  and  C_18 
REMARK       I    between atoms: N_3  and  C_19 
REMARK    3  A    between atoms: C_11  and  N_15 
REMARK    4  A    between atoms: C_18  and  C_19 
ROOT
ATOM      1 CL   UNN dAMED      -3.030  -1.961   0.507  0.00  0.00    -0.080 Cl
ATOM      2  C   UNN dAMED      -1.226   1.442   1.676  0.00  0.00     0.027 A 
ATOM      3  C   UNN dAMED      -2.304   2.226   2.070  0.00  0.00     0.026 A 
ATOM      4  C   UNN dAMED      -1.448   0.148   1.203  0.00  0.00     0.105 A 
ATOM      5  C   UNN dAMED      -2.739  -0.371   1.094  0.00  0.00     0.082 A 
ATOM      6  C   UNN dAMED      -3.580   1.680   1.970  0.00  0.00     0.128 A 
ATOM      7  C   UNN dAMED      -3.828   0.399   1.487  0.00  0.00     0.037 A 
ENDROOT
BRANCH   4   8
ATOM      8  O   UNN dAMED      -0.357  -0.626   0.922  0.00  0.00    -0.321 OA
BRANCH   8   9
ATOM      9  C   UNN dAMED       0.542  -0.403   1.974  0.00  0.00     0.230 C 
BRANCH   9  10
ATOM     10  C   UNN dAMED       0.435  -1.154   3.283  0.00  0.00     0.244 C 
ATOM     11  N   UNN dAMED       0.288  -0.402   4.423  0.00  0.00    -0.216 NA
ATOM     12  C   UNN dAMED      -0.362  -1.225   5.411  0.00  0.00     0.112 C 
ATOM     13  C   UNN dAMED      -0.974   0.286   4.319  0.00  0.00     0.112 C 
ATOM     14  C   UNN dAMED      -0.878  -0.589   6.707  0.00  0.00     0.160 C 
ATOM     15  O   UNN dAMED      -1.952   0.314   6.667  0.00  0.00    -0.351 OA
ATOM     16  C   UNN dAMED      -1.542   1.031   5.531  0.00  0.00     0.160 C 
ATOM     17  O   UNN dAMED       0.510  -2.378   3.259  0.00  0.00    -0.276 OA
ENDBRANCH   9  10
ENDBRANCH   8   9
ENDBRANCH   4   8
BRANCH   6  18
ATOM     18  N   UNN dAMED      -4.686   2.446   2.459  0.00  0.00    -0.114 N 
ATOM     19  O   UNN dAMED      -4.911   2.389   3.674  0.00  0.00    -0.532 OA
ATOM     20  O   UNN dAMED      -5.328   3.098   1.628  0.00  0.00    -0.532 OA
ENDBRANCH   6  18
TORSDOF 4
