REMARK  1 active torsions:
REMARK  status: ('A' for Active; 'I' for Inactive)
REMARK    1  A    between atoms: C_3  and  C_23 
ROOT
ATOM      1  O   UNN dAMED       3.318   8.644  -3.212  0.00  0.00    -0.291 OA
ATOM      2  F   UNN dAMED       2.735   4.299   1.485  0.00  0.00    -0.238 F 
ATOM      3  C   UNN dAMED       3.484  -0.298   0.136  0.00  0.00    -0.011 C 
ATOM      4  C   UNN dAMED       2.140  -0.704  -0.447  0.00  0.00     0.024 C 
ATOM      5  C   UNN dAMED       3.488   1.182   0.375  0.00  0.00     0.015 C 
ATOM      6  C   UNN dAMED       4.527   2.346   0.453  0.00  0.00     0.039 C 
ATOM      7  C   UNN dAMED       4.169   3.624  -0.269  0.00  0.00     0.182 C 
ATOM      8  C   UNN dAMED       1.400   0.603  -0.667  0.00  0.00    -0.001 C 
ATOM      9  C   UNN dAMED       2.026   1.662   0.265  0.00  0.00     0.020 C 
ATOM     10  C   UNN dAMED       2.764   4.137   0.126  0.00  0.00     0.159 C 
ATOM     11  C   UNN dAMED       1.708   3.078  -0.202  0.00  0.00     0.047 C 
ATOM     12  C   UNN dAMED       2.520   5.511  -0.479  0.00  0.00     0.045 C 
ATOM     13  C   UNN dAMED       3.929   6.334  -0.404  0.00  0.00     0.015 C 
ATOM     14  C   UNN dAMED       4.008   7.624  -1.223  0.00  0.00     0.070 C 
ATOM     15  C   UNN dAMED       1.434   3.091  -1.709  0.00  0.00     0.001 C 
ATOM     16  C   UNN dAMED       2.057   5.535  -1.903  0.00  0.00    -0.039 C 
ATOM     17  C   UNN dAMED       3.345   7.612  -2.569  0.00  0.00     0.172 C 
ATOM     18  C   UNN dAMED       1.119   4.443  -2.311  0.00  0.00     0.022 C 
ATOM     19  C   UNN dAMED       2.160   6.656  -2.629  0.00  0.00     0.029 C 
ATOM     20  C   UNN dAMED       3.939   6.340  -0.403  0.00  0.00     0.007 C 
ATOM     21  O   UNN dAMED       5.209   4.481  -0.497  0.00  0.00    -0.221 OA
ATOM     22  C   UNN dAMED       4.462   2.350  -0.066  0.00  0.00     0.004 C 
ENDROOT
BRANCH   3  23
ATOM     23  C   UNN dAMED       4.296  -1.227   1.039  0.00  0.00     0.166 C 
ATOM     24  O   UNN dAMED       5.003  -2.106   0.578  0.00  0.00    -0.292 OA
ATOM     25  C   UNN dAMED       2.833  -1.486   1.402  0.00  0.00     0.077 C 
ENDBRANCH   3  23
TORSDOF 1
