REMARK  6 active torsions:
REMARK  status: ('A' for Active; 'I' for Inactive)
REMARK    1  A    between atoms: O_1  and  C_9 
REMARK    2  A    between atoms: O_1  and  C_20 
REMARK    3  A    between atoms: C_4  and  N_17 
REMARK    4  A    between atoms: C_5  and  N_14 
REMARK    5  A    between atoms: C_6  and  O_18 
REMARK    6  A    between atoms: C_12  and  N_22 
REMARK       I    between atoms: N_17  and  C_20 
REMARK       I    between atoms: N_22  and  C_23 
ROOT
ATOM      1  N   UNN dAMED      -1.399  -0.763   0.902  0.00  0.00    -0.184 NA
ATOM      2  C   UNN dAMED      -1.055  -0.091   2.000  0.00  0.00     0.392 C 
ATOM      3  O   UNN dAMED      -0.993  -0.566   3.130  0.00  0.00    -0.236 OA
ENDROOT
BRANCH   2   4
ATOM      4  O   UNN dAMED      -0.486   1.160   1.707  0.00  0.00    -0.258 OA
BRANCH   4   5
ATOM      5  C   UNN dAMED      -1.156   2.283   2.230  0.00  0.00     0.105 A 
ATOM      6  C   UNN dAMED      -1.793   2.264   3.465  0.00  0.00     0.026 A 
ATOM      7  C   UNN dAMED      -2.488   3.396   3.893  0.00  0.00     0.021 A 
ATOM      8  C   UNN dAMED      -2.541   4.577   3.134  0.00  0.00     0.085 A 
ATOM      9  C   UNN dAMED      -1.789   4.588   1.949  0.00  0.00     0.021 A 
ATOM     10  C   UNN dAMED      -1.111   3.456   1.486  0.00  0.00     0.026 A 
BRANCH   8  11
ATOM     11  N   UNN dAMED      -3.147   5.713   3.552  0.00  0.00    -0.212 NA
ATOM     12  C   UNN dAMED      -4.365   5.545   4.076  0.00  0.00     0.256 C 
ATOM     13  O   UNN dAMED      -4.620   5.059   5.174  0.00  0.00    -0.270 OA
ATOM     14  C   UNN dAMED      -5.458   6.401   3.487  0.00  0.00     0.100 C 
ENDBRANCH   8  11
ENDBRANCH   4   5
ENDBRANCH   2   4
BRANCH   1  15
ATOM     15  C   UNN dAMED      -2.621  -0.536   0.358  0.00  0.00     0.109 A 
ATOM     16  C   UNN dAMED      -2.793  -0.981  -0.964  0.00  0.00     0.023 A 
ATOM     17  C   UNN dAMED      -3.971  -0.786  -1.686  0.00  0.00     0.025 A 
ATOM     18  C   UNN dAMED      -5.020  -0.105  -1.086  0.00  0.00     0.129 A 
ATOM     19  C   UNN dAMED      -4.934   0.314   0.234  0.00  0.00     0.049 A 
ATOM     20  C   UNN dAMED      -3.755   0.063   0.943  0.00  0.00     0.114 A 
BRANCH  18  21
ATOM     21  N   UNN dAMED      -6.206   0.189  -1.867  0.00  0.00    -0.114 N 
ATOM     22  O   UNN dAMED      -6.161  -0.047  -3.083  0.00  0.00    -0.532 OA
ATOM     23  O   UNN dAMED      -7.185   0.664  -1.277  0.00  0.00    -0.532 OA
ENDBRANCH  18  21
BRANCH  20  24
ATOM     24  O   UNN dAMED      -3.784   0.407   2.266  0.00  0.00    -0.327 OA
ATOM     25  C   UNN dAMED      -3.710   1.802   2.280  0.00  0.00     0.181 C 
ENDBRANCH  20  24
ENDBRANCH   1  15
TORSDOF 6
