REMARK  0 active torsions:
REMARK  status: ('A' for Active; 'I' for Inactive)
ROOT
ATOM      1  O   UNN dAMED      -5.643  -0.243  -0.717  0.00  0.00    -0.272 OA
ATOM      2  N   UNN dAMED      -3.604   0.806  -0.455  0.00  0.00    -0.301 N 
ATOM      3  C   UNN dAMED       3.866  -0.150  -1.068  0.00  0.00     0.106 C 
ATOM      4  C   UNN dAMED       2.374  -0.238  -0.837  0.00  0.00     0.040 C 
ATOM      5  C   UNN dAMED       4.098   1.342  -0.799  0.00  0.00     0.057 C 
ATOM      6  C   UNN dAMED       1.756  -1.578  -0.514  0.00  0.00     0.006 C 
ATOM      7  C   UNN dAMED       0.259  -1.459  -0.185  0.00  0.00    -0.005 C 
ATOM      8  C   UNN dAMED       2.926   1.898   0.026  0.00  0.00     0.002 C 
ATOM      9  C   UNN dAMED       2.065   0.691   0.323  0.00  0.00     0.020 C 
ATOM     10  C   UNN dAMED      -0.182  -0.341   0.795  0.00  0.00     0.018 C 
ATOM     11  C   UNN dAMED       0.593   0.955   0.494  0.00  0.00     0.013 C 
ATOM     12  C   UNN dAMED      -1.686  -0.135   0.744  0.00  0.00     0.029 C 
ATOM     13  C   UNN dAMED      -2.441  -1.553   0.511  0.00  0.00     0.015 C 
ATOM     14  C   UNN dAMED      -3.974  -1.465   0.383  0.00  0.00     0.089 C 
ATOM     15  C   UNN dAMED      -0.003   1.553  -0.777  0.00  0.00     0.021 C 
ATOM     16  C   UNN dAMED      -2.282   0.871  -0.182  0.00  0.00     0.034 C 
ATOM     17  C   UNN dAMED      -4.480  -0.238  -0.326  0.00  0.00     0.237 C 
ATOM     18  C   UNN dAMED      -1.511   1.810  -0.729  0.00  0.00    -0.014 C 
ATOM     19  C   UNN dAMED      -4.081   1.854  -1.276  0.00  0.00     0.133 C 
ATOM     20  C   UNN dAMED      -2.446  -1.564   0.509  0.00  0.00     0.005 C 
ATOM     21  C   UNN dAMED       1.633   0.150  -2.118  0.00  0.00     0.006 C 
ATOM     22  O   UNN dAMED       4.188  -0.498  -2.273  0.00  0.00    -0.303 OA
ATOM     23  C   UNN dAMED       4.661  -0.932  -0.023  0.00  0.00     0.065 C 
ENDROOT
TORSDOF 0
