REMARK  0 active torsions:
REMARK  status: ('A' for Active; 'I' for Inactive)
ROOT
ATOM      1  C   UNN dAMED       0.370  -0.315  -0.007  0.00  0.00     0.144 A 
ATOM      2  C   UNN dAMED       1.448   0.396   0.768  0.00  0.00     0.260 A 
ATOM      3  O   UNN dAMED       0.833  -0.711  -1.258  0.00  0.00    -0.282 OA
ATOM      4  C   UNN dAMED       2.105  -0.257  -1.259  0.00  0.00     0.246 A 
ATOM      5  C   UNN dAMED       2.543   0.426  -0.025  0.00  0.00     0.279 A 
ATOM      6  C   UNN dAMED      -1.124  -0.157   0.227  0.00  0.00     0.026 A 
ATOM      7  C   UNN dAMED      -1.802   0.952  -0.280  0.00  0.00     0.002 A 
ATOM      8  C   UNN dAMED      -3.183   1.052  -0.133  0.00  0.00     0.000 A 
ATOM      9  C   UNN dAMED      -3.890   0.041   0.513  0.00  0.00     0.000 A 
ATOM     10  C   UNN dAMED      -3.216  -1.071   1.013  0.00  0.00     0.000 A 
ATOM     11  C   UNN dAMED      -1.834  -1.171   0.867  0.00  0.00     0.002 A 
ATOM     12  O   UNN dAMED       1.206   0.776   1.943  0.00  0.00    -0.281 OA
ATOM     13  N   UNN dAMED       2.833  -0.469  -2.323  0.00  0.00    -0.117 N 
ATOM     14  O   UNN dAMED       3.721   0.851   0.083  0.00  0.00    -0.279 OA
ENDROOT
TORSDOF 0
