REMARK  4 active torsions:
REMARK  status: ('A' for Active; 'I' for Inactive)
REMARK    1  A    between atoms: C_7  and  C_11 
REMARK    2  A    between atoms: C_11  and  C_13 
REMARK    3  A    between atoms: C_13  and  O_15 
REMARK    4  A    between atoms: O_15  and  C_16 
ROOT
ATOM      1  C   UNN dAMED      -2.153   1.715  -1.021  0.00  0.00    -0.002 A 
ATOM      2  C   UNN dAMED      -3.514   1.981  -0.905  0.00  0.00    -0.000 A 
ATOM      3  C   UNN dAMED      -4.347   1.140  -0.155  0.00  0.00     0.002 A 
ATOM      4  C   UNN dAMED      -3.834   0.007   0.483  0.00  0.00     0.019 A 
ATOM      5  C   UNN dAMED      -2.480  -0.273   0.378  0.00  0.00     0.081 A 
ATOM      6  C   UNN dAMED      -1.670   0.604  -0.356  0.00  0.00     0.012 A 
ATOM      7  C   UNN dAMED      -0.324  -0.008  -0.365  0.00  0.00     0.172 A 
ATOM      8  C   UNN dAMED      -0.553  -1.246   0.475  0.00  0.00     0.267 A 
ATOM      9  N   UNN dAMED      -1.836  -1.355   0.885  0.00  0.00    -0.211 NA
ATOM     10  O   UNN dAMED       0.355  -2.052   0.626  0.00  0.00    -0.269 OA
ENDROOT
BRANCH   7  11
ATOM     11  C   UNN dAMED       0.929   0.829  -0.211  0.00  0.00     0.248 C 
ATOM     12  O   UNN dAMED       1.282   1.204   0.897  0.00  0.00    -0.285 OA
BRANCH  11  13
ATOM     13  C   UNN dAMED       1.577   1.415  -1.433  0.00  0.00     0.332 C 
ATOM     14  O   UNN dAMED       1.073   1.293  -2.531  0.00  0.00    -0.256 OA
BRANCH  13  15
ATOM     15  O   UNN dAMED       2.728   2.020  -1.120  0.00  0.00    -0.296 OA
BRANCH  15  16
ATOM     16  C   UNN dAMED       2.823   1.928   0.270  0.00  0.00     0.152 C 
ATOM     17  C   UNN dAMED       2.475   0.612   0.973  0.00  0.00     0.035 C 
ENDBRANCH  15  16
ENDBRANCH  13  15
ENDBRANCH  11  13
ENDBRANCH   7  11
TORSDOF 4
