REMARK  0 active torsions:
REMARK  status: ('A' for Active; 'I' for Inactive)
ROOT
ATOM      1  C   UNN dAMED       2.157  -1.974  -0.120  0.00  0.00     0.000 A 
ATOM      2  C   UNN dAMED       2.700  -0.701   0.005  0.00  0.00     0.000 A 
ATOM      3  C   UNN dAMED       0.775  -2.135  -0.168  0.00  0.00     0.001 A 
ATOM      4  C   UNN dAMED       1.857   0.404   0.081  0.00  0.00     0.002 A 
ATOM      5  C   UNN dAMED      -0.095  -1.033  -0.093  0.00  0.00     0.014 A 
ATOM      6  C   UNN dAMED       0.459   0.258   0.034  0.00  0.00     0.028 A 
ATOM      7  C   UNN dAMED      -0.430   1.340   0.107  0.00  0.00     0.149 A 
ATOM      8  C   UNN dAMED      -1.491  -1.163  -0.138  0.00  0.00     0.077 A 
ATOM      9 CL   UNN dAMED      -2.286  -2.682  -0.291  0.00  0.00    -0.081 Cl
ATOM     10  N   UNN dAMED      -1.776   1.225   0.063  0.00  0.00    -0.233 NA
ATOM     11  C   UNN dAMED      -2.272  -0.023  -0.058  0.00  0.00     0.111 A 
ATOM     12  C   UNN dAMED       0.020   2.693   0.236  0.00  0.00     0.120 C 
ATOM     13  N   UNN dAMED       0.382   3.791   0.340  0.00  0.00    -0.190 NA
ENDROOT
TORSDOF 0
