REMARK  0 active torsions:
REMARK  status: ('A' for Active; 'I' for Inactive)
ROOT
ATOM      1  O   UNN dAMED      -3.034  -0.431   0.595  0.00  0.00    -0.298 OA
ATOM      2  O   UNN dAMED      -1.500  -1.971   1.362  0.00  0.00    -0.259 OA
ATOM      3  O   UNN dAMED       1.209  -1.260   0.649  0.00  0.00    -0.335 OA
ATOM      4  C   UNN dAMED      -1.764  -0.950   0.751  0.00  0.00     0.293 A 
ATOM      5  C   UNN dAMED      -0.791  -0.055   0.076  0.00  0.00     0.061 A 
ATOM      6  C   UNN dAMED      -1.501   1.086  -0.519  0.00  0.00     0.059 A 
ATOM      7  C   UNN dAMED       0.531  -0.200   0.042  0.00  0.00     0.073 C 
ATOM      8  C   UNN dAMED       1.407   0.810  -0.639  0.00  0.00     0.053 C 
ATOM      9  C   UNN dAMED       2.784   0.233  -0.486  0.00  0.00     0.037 C 
ATOM     10  C   UNN dAMED       2.574  -0.972   0.417  0.00  0.00     0.149 C 
ATOM     11  C   UNN dAMED      -2.926   0.728  -0.203  0.00  0.00     0.157 A 
ATOM     12  C   UNN dAMED      -1.117   1.622  -1.902  0.00  0.00     0.007 C 
ATOM     13  C   UNN dAMED       4.038   1.110  -0.407  0.00  0.00     0.003 C 
ENDROOT
TORSDOF 0
