REMARK  1 active torsions:
REMARK  status: ('A' for Active; 'I' for Inactive)
REMARK    1  A    between atoms: C_6  and  C_12 
ROOT
ATOM      1  N   UNN dAMED      -2.127  -0.723   0.001  0.00  0.00    -0.227 NA
ATOM      2  N   UNN dAMED       0.104  -1.643  -0.000  0.00  0.00    -0.338 N 
ATOM      3  H   UNN dAMED      -0.150  -2.622   0.002  0.00  0.00     0.167 HD
ATOM      4  C   UNN dAMED       1.388  -1.159   0.001  0.00  0.00     0.077 A 
ATOM      5  C   UNN dAMED       1.295   0.209  -0.013  0.00  0.00     0.062 A 
ATOM      6  C   UNN dAMED      -0.059   0.590  -0.005  0.00  0.00     0.039 A 
ATOM      7  C   UNN dAMED      -0.786  -0.597  -0.002  0.00  0.00     0.141 A 
ATOM      8  C   UNN dAMED      -0.773   1.796  -0.001  0.00  0.00     0.005 A 
ATOM      9  C   UNN dAMED      -2.164   1.721   0.001  0.00  0.00     0.021 A 
ATOM     10  C   UNN dAMED      -2.763   0.469   0.001  0.00  0.00     0.101 A 
ENDROOT
BRANCH   5  11
ATOM     11  C   UNN dAMED       2.460   1.154   0.012  0.00  0.00     0.236 C 
ATOM     12  O   UNN dAMED       2.996   1.485  -1.007  0.00  0.00    -0.283 OA
ENDBRANCH   5  11
TORSDOF 1
