REMARK  4 active torsions:
REMARK  status: ('A' for Active; 'I' for Inactive)
REMARK    1  A    between atoms: N_1  and  C_24 
REMARK    2  A    between atoms: C_15  and  C_24 
REMARK    3  A    between atoms: C_16  and  O_20 
REMARK    4  A    between atoms: C_18  and  O_22 
ROOT
ATOM      1  N   UNN dAMED      -0.088   0.285   1.175  0.00  0.00    -0.241 NA
ATOM      2  N   UNN dAMED      -2.294   1.345  -1.076  0.00  0.00    -0.249 NA
ATOM      3 CL   UNN dAMED      -3.301   2.089   1.731  0.00  0.00    -0.081 Cl
ATOM      4  C   UNN dAMED      -4.484   0.659  -1.831  0.00  0.00     0.012 A 
ATOM      5  C   UNN dAMED      -3.666   1.160  -0.815  0.00  0.00     0.047 A 
ATOM      6  C   UNN dAMED      -5.847   0.466  -1.617  0.00  0.00     0.001 A 
ATOM      7  C   UNN dAMED      -6.406   0.774  -0.380  0.00  0.00     0.001 A 
ATOM      8  C   UNN dAMED      -4.237   1.465   0.425  0.00  0.00     0.068 A 
ATOM      9  C   UNN dAMED      -5.602   1.273   0.640  0.00  0.00     0.012 A 
ATOM     10  C   UNN dAMED      -1.451   2.054  -0.104  0.00  0.00     0.094 C 
ATOM     11  C   UNN dAMED      -1.036   1.367   1.200  0.00  0.00     0.095 C 
ATOM     12  C   UNN dAMED      -1.389   0.187  -1.053  0.00  0.00     0.094 C 
ATOM     13  C   UNN dAMED      -0.078   0.253  -0.264  0.00  0.00     0.095 C 
ENDROOT
BRANCH   1  14
ATOM     14  C   UNN dAMED       1.124   0.814   1.557  0.00  0.00     0.093 C 
ATOM     15  S   UNN dAMED       2.213   1.334   0.393  0.00  0.00    -0.066 SA
BRANCH  14  16
ATOM     16  C   UNN dAMED       1.334   0.899   3.022  0.00  0.00     0.023 A 
ATOM     17  C   UNN dAMED       0.274   0.634   3.895  0.00  0.00     0.028 A 
ATOM     18  C   UNN dAMED       0.475   0.711   5.268  0.00  0.00     0.116 A 
ATOM     19  C   UNN dAMED       1.717   1.060   5.778  0.00  0.00     0.116 A 
ATOM     20  C   UNN dAMED       2.779   1.329   4.924  0.00  0.00     0.026 A 
ATOM     21  C   UNN dAMED       2.585   1.241   3.546  0.00  0.00     0.004 A 
BRANCH  18  22
ATOM     22  O   UNN dAMED      -0.566   0.433   6.101  0.00  0.00    -0.326 OA
ATOM     23  C   UNN dAMED      -1.688   0.360   5.273  0.00  0.00     0.181 C 
ENDBRANCH  18  22
BRANCH  19  24
ATOM     24  O   UNN dAMED       1.919   1.145   7.122  0.00  0.00    -0.326 OA
ATOM     25  C   UNN dAMED       0.644   1.076   7.688  0.00  0.00     0.181 C 
ENDBRANCH  19  24
ENDBRANCH  14  16
ENDBRANCH   1  14
TORSDOF 4
