REMARK  5 active torsions:
REMARK  status: ('A' for Active; 'I' for Inactive)
REMARK    1  A    between atoms: N_12  and  C_16 
REMARK    2  A    between atoms: C_13  and  C_20 
REMARK    3  A    between atoms: C_15  and  C_16 
REMARK    4  A    between atoms: C_15  and  C_20 
REMARK    5  A    between atoms: C_16  and  C_17 
ROOT
ATOM      1  C   UNN dAMED      -4.439   1.207  -0.369  0.00  0.00     0.001 C 
ATOM      2  C   UNN dAMED      -4.630  -0.259  -0.809  0.00  0.00     0.001 C 
ATOM      3  C   UNN dAMED      -3.266   1.119   0.613  0.00  0.00     0.009 C 
ATOM      4  C   UNN dAMED      -3.538  -0.222   1.276  0.00  0.00     0.001 C 
ATOM      5  C   UNN dAMED      -3.550  -1.016  -0.019  0.00  0.00     0.009 C 
ATOM      6  C   UNN dAMED      -2.003   0.804  -0.194  0.00  0.00     0.082 C 
ATOM      7  C   UNN dAMED      -2.185  -0.651  -0.618  0.00  0.00     0.082 C 
ATOM      8  C   UNN dAMED      -0.643   0.862   0.434  0.00  0.00     0.220 C 
ATOM      9  C   UNN dAMED      -0.904  -1.329  -0.200  0.00  0.00     0.220 C 
ATOM     10  O   UNN dAMED       0.003   1.896   0.355  0.00  0.00    -0.278 OA
ATOM     11  O   UNN dAMED      -0.898  -2.539  -0.010  0.00  0.00    -0.278 OA
ATOM     12  N   UNN dAMED      -0.122  -0.415   0.476  0.00  0.00    -0.163 NA
ENDROOT
BRANCH  12  13
ATOM     13  C   UNN dAMED       1.228  -0.357   0.013  0.00  0.00     0.159 C 
BRANCH  13  14
ATOM     14  C   UNN dAMED       1.898   1.021   0.085  0.00  0.00     0.037 C 
BRANCH  14  15
ATOM     15  C   UNN dAMED       2.785   1.376   1.283  0.00  0.00     0.086 C 
BRANCH  15  16
ATOM     16  C   UNN dAMED       4.365   1.130   1.181  0.00  0.00     0.243 C 
ATOM     17  O   UNN dAMED       4.995   1.645   0.267  0.00  0.00    -0.276 OA
ATOM     18  N   UNN dAMED       2.879   1.355   1.276  0.00  0.00    -0.061 NA
ENDBRANCH  15  16
ENDBRANCH  14  15
ENDBRANCH  13  14
BRANCH  13  19
ATOM     19  C   UNN dAMED       2.126  -1.581   0.027  0.00  0.00     0.201 C 
ATOM     20  O   UNN dAMED       2.219  -2.226  -1.062  0.00  0.00    -0.646 OA
ATOM     21  O   UNN dAMED       2.676  -1.872   1.130  0.00  0.00    -0.646 OA
ENDBRANCH  13  19
ENDBRANCH  12  13
TORSDOF 5
