REMARK  4 active torsions:
REMARK  status: ('A' for Active; 'I' for Inactive)
REMARK    1  A    between atoms: C_8  and  C_11 
REMARK    2  A    between atoms: C_11  and  C_12 
REMARK    3  A    between atoms: C_12  and  O_14 
REMARK    4  A    between atoms: O_14  and  C_15 
ROOT
ATOM      1  S   UNN dAMED      -4.037  -0.839   1.046  0.00  0.00    -0.040 SA
ATOM      2  H   UNN dAMED      -3.354   0.829  -1.040  0.00  0.00     0.171 HD
ATOM      3  N   UNN dAMED      -2.473   0.524  -0.636  0.00  0.00    -0.299 N 
ATOM      4  N   UNN dAMED      -1.391  -0.609   1.110  0.00  0.00    -0.330 N 
ATOM      5  O   UNN dAMED      -1.275   1.761  -2.203  0.00  0.00    -0.267 OA
ATOM      6  H   UNN dAMED      -1.283  -1.297   1.844  0.00  0.00     0.168 HD
ATOM      7  C   UNN dAMED      -1.320   0.987  -1.255  0.00  0.00     0.261 C 
ATOM      8  C   UNN dAMED      -0.106   0.386  -0.688  0.00  0.00     0.078 C 
ATOM      9  C   UNN dAMED      -0.239  -0.531   0.272  0.00  0.00     0.079 C 
ATOM     10  C   UNN dAMED      -2.561  -0.301   0.474  0.00  0.00     0.179 C 
ENDROOT
BRANCH   8  11
ATOM     11  C   UNN dAMED       1.202   0.508  -1.424  0.00  0.00     0.074 C 
BRANCH  11  12
ATOM     12  C   UNN dAMED       2.534   0.537  -0.714  0.00  0.00     0.296 C 
ATOM     13  O   UNN dAMED       3.535   0.777  -1.379  0.00  0.00    -0.259 OA
BRANCH  12  14
ATOM     14  O   UNN dAMED       2.592   0.263   0.617  0.00  0.00    -0.298 OA
BRANCH  14  15
ATOM     15  C   UNN dAMED       1.258   0.178   1.025  0.00  0.00     0.152 C 
ATOM     16  C   UNN dAMED       0.614   1.339   1.789  0.00  0.00     0.035 C 
ENDBRANCH  14  15
ENDBRANCH  12  14
ENDBRANCH  11  12
ENDBRANCH   8  11
TORSDOF 4
