REMARK  6 active torsions:
REMARK  status: ('A' for Active; 'I' for Inactive)
REMARK       I    between atoms: N_1  and  C_13 
REMARK    1  A    between atoms: C_13  and  C_15 
REMARK    2  A    between atoms: C_15  and  N_16 
REMARK    3  A    between atoms: N_16  and  C_17 
REMARK    4  A    between atoms: N_16  and  C_20 
REMARK    5  A    between atoms: C_17  and  C_18 
REMARK    6  A    between atoms: C_20  and  C_21 
ROOT
ATOM      1  N   UNN dAMED      -0.913   0.055   0.363  0.00  0.00    -0.287 N 
ATOM      2  N   UNN dAMED      -3.347   1.423  -0.308  0.00  0.00    -0.322 N 
ATOM      3  H   UNN dAMED      -4.237   1.877  -0.491  0.00  0.00     0.169 HD
ATOM      4  O   UNN dAMED      -2.169   3.400  -0.191  0.00  0.00    -0.270 OA
ATOM      5  C   UNN dAMED      -2.089  -2.051   0.122  0.00  0.00     0.019 A 
ATOM      6  C   UNN dAMED      -2.075  -0.657   0.051  0.00  0.00     0.078 A 
ATOM      7  C   UNN dAMED      -3.260  -2.765  -0.131  0.00  0.00     0.002 A 
ATOM      8  C   UNN dAMED      -3.268   0.022  -0.252  0.00  0.00     0.075 A 
ATOM      9  C   UNN dAMED      -4.437  -2.089  -0.437  0.00  0.00     0.002 A 
ATOM     10  C   UNN dAMED      -4.442  -0.698  -0.490  0.00  0.00     0.018 A 
ATOM     11  C   UNN dAMED      -0.925   1.404  -0.098  0.00  0.00     0.197 C 
ATOM     12  C   UNN dAMED      -2.214   2.177  -0.137  0.00  0.00     0.257 C 
ATOM     13  C   UNN dAMED       0.366  -0.395   0.558  0.00  0.00     0.272 C 
ATOM     14  O   UNN dAMED       1.330   0.348   0.725  0.00  0.00    -0.270 OA
ENDROOT
BRANCH  13  15
ATOM     15  C   UNN dAMED       0.606  -1.877   0.672  0.00  0.00     0.337 C 
BRANCH  15  16
ATOM     16  N   UNN dAMED       1.040  -2.647  -0.501  0.00  0.00     0.147 N 
BRANCH  16  17
ATOM     17  C   UNN dAMED       1.596  -1.289  -0.498  0.00  0.00     0.251 C 
BRANCH  17  18
ATOM     18  C   UNN dAMED       1.589  -0.458   0.789  0.00  0.00     0.035 C 
ATOM     19  C   UNN dAMED       2.909  -0.127   1.493  0.00  0.00     0.002 C 
ENDBRANCH  17  18
ENDBRANCH  16  17
BRANCH  16  20
ATOM     20  C   UNN dAMED       0.323  -3.346  -1.521  0.00  0.00     0.251 C 
BRANCH  20  21
ATOM     21  C   UNN dAMED       0.637  -3.073  -2.995  0.00  0.00     0.035 C 
ATOM     22  C   UNN dAMED       1.814  -3.784  -3.669  0.00  0.00     0.002 C 
ENDBRANCH  20  21
ENDBRANCH  16  20
ENDBRANCH  15  16
ENDBRANCH  13  15
TORSDOF 6
