REMARK  0 active torsions:
REMARK  status: ('A' for Active; 'I' for Inactive)
ROOT
ATOM      1  H   UNN dAMED      -1.149  -0.984   1.145  0.00  0.00     0.166 HD
ATOM      2  N   UNN dAMED      -1.038  -0.384   0.339  0.00  0.00    -0.352 N 
ATOM      3  N   UNN dAMED       1.765  -1.752  -0.120  0.00  0.00    -0.243 NA
ATOM      4  C   UNN dAMED       4.282   0.330   2.509  0.00  0.00     0.000 A 
ATOM      5  C   UNN dAMED       3.945   1.604   2.960  0.00  0.00     0.000 A 
ATOM      6  C   UNN dAMED       3.438  -0.358   1.638  0.00  0.00     0.003 A 
ATOM      7  C   UNN dAMED       3.790  -1.628   1.195  0.00  0.00     0.021 A 
ATOM      8  C   UNN dAMED       2.928  -2.275   0.327  0.00  0.00     0.099 A 
ATOM      9  C   UNN dAMED       2.759   2.199   2.541  0.00  0.00     0.000 A 
ATOM     10  C   UNN dAMED       2.234   0.234   1.205  0.00  0.00     0.019 A 
ATOM     11  C   UNN dAMED       1.910   1.520   1.671  0.00  0.00     0.002 A 
ATOM     12  C   UNN dAMED       1.438  -0.515   0.325  0.00  0.00     0.098 A 
ATOM     13  C   UNN dAMED       0.174  -0.026  -0.211  0.00  0.00     0.084 A 
ATOM     14  C   UNN dAMED      -0.105   0.786  -1.295  0.00  0.00     0.087 A 
ATOM     15  C   UNN dAMED      -1.509   0.907  -1.397  0.00  0.00     0.029 A 
ATOM     16  C   UNN dAMED      -4.107   0.492   0.977  0.00  0.00     0.001 A 
ATOM     17  C   UNN dAMED      -5.447   0.217   1.244  0.00  0.00     0.000 A 
ATOM     18  C   UNN dAMED      -3.467  -0.123  -0.099  0.00  0.00     0.016 A 
ATOM     19  C   UNN dAMED      -4.179  -1.012  -0.908  0.00  0.00     0.001 A 
ATOM     20  C   UNN dAMED      -2.075   0.155  -0.387  0.00  0.00     0.057 A 
ATOM     21  C   UNN dAMED      -6.152  -0.669   0.433  0.00  0.00     0.000 A 
ATOM     22  C   UNN dAMED      -5.519  -1.283  -0.645  0.00  0.00     0.000 A 
ATOM     23  C   UNN dAMED       0.855   1.372  -2.170  0.00  0.00     0.102 C 
ATOM     24  N   UNN dAMED       1.636   1.846  -2.885  0.00  0.00    -0.191 NA
ENDROOT
TORSDOF 0
