REMARK  3 active torsions:
REMARK  status: ('A' for Active; 'I' for Inactive)
REMARK    1  A    between atoms: N_3  and  C_6 
REMARK    2  A    between atoms: N_4  and  C_10 
REMARK    3  A    between atoms: C_11  and  C_18 
ROOT
ATOM      1  N   UNN dAMED      -1.031  -0.014   1.044  0.00  0.00    -0.143 NA
ATOM      2  N   UNN dAMED      -0.333  -0.968   0.638  0.00  0.00    -0.148 NA
ENDROOT
BRANCH   1   3
ATOM      3  C   UNN dAMED      -2.335  -0.102   0.518  0.00  0.00     0.165 A 
ATOM      4  C   UNN dAMED      -2.663  -0.839  -0.613  0.00  0.00     0.175 A 
ATOM      5  N   UNN dAMED      -3.902  -0.893  -1.141  0.00  0.00    -0.199 NA
ATOM      6  N   UNN dAMED      -1.630  -1.598  -1.234  0.00  0.00    -0.078 NA
ATOM      7  C   UNN dAMED      -4.845  -0.168  -0.511  0.00  0.00     0.239 A 
ATOM      8  N   UNN dAMED      -4.640   0.589   0.587  0.00  0.00    -0.199 NA
ATOM      9  N   UNN dAMED      -6.165  -0.208  -1.048  0.00  0.00    -0.060 NA
ATOM     10  C   UNN dAMED      -3.381   0.607   1.081  0.00  0.00     0.175 A 
ATOM     11  N   UNN dAMED      -3.124   1.409   2.229  0.00  0.00    -0.078 NA
ENDBRANCH   1   3
BRANCH   2  12
ATOM     12  C   UNN dAMED       1.009  -0.927   1.048  0.00  0.00     0.103 A 
ATOM     13  C   UNN dAMED       1.511  -0.089   2.046  0.00  0.00     0.021 A 
ATOM     14  C   UNN dAMED       2.852  -0.165   2.426  0.00  0.00     0.008 A 
ATOM     15  C   UNN dAMED       3.719  -1.080   1.820  0.00  0.00     0.065 A 
ATOM     16  C   UNN dAMED       3.219  -1.916   0.822  0.00  0.00     0.008 A 
ATOM     17  C   UNN dAMED       1.880  -1.840   0.447  0.00  0.00     0.021 A 
BRANCH  15  18
ATOM     18  C   UNN dAMED       5.157  -1.156   2.229  0.00  0.00     0.211 C 
ATOM     19  O   UNN dAMED       5.611  -0.189   2.916  0.00  0.00    -0.644 OA
ATOM     20  O   UNN dAMED       5.812  -2.179   1.857  0.00  0.00    -0.644 OA
ENDBRANCH  15  18
ENDBRANCH   2  12
TORSDOF 3
