REMARK  4 active torsions:
REMARK  status: ('A' for Active; 'I' for Inactive)
REMARK    1  A    between atoms: C_3  and  C_9 
REMARK    2  A    between atoms: C_3  and  C_12 
REMARK    3  A    between atoms: C_19  and  N_21 
REMARK    4  A    between atoms: N_24  and  N_25 
ROOT
ATOM      1  C   UNN dAMED       1.656   0.050  -0.008  0.00  0.00     0.103 C 
ATOM      2  N   UNN dAMED       0.389   0.334  -0.001  0.00  0.00    -0.147 NA
ENDROOT
BRANCH   1   3
ATOM      3  C   UNN dAMED       2.593   1.127  -0.354  0.00  0.00     0.019 A 
ATOM      4  C   UNN dAMED       3.146   1.178  -1.630  0.00  0.00     0.002 A 
ATOM      5  C   UNN dAMED       3.969   2.250  -1.964  0.00  0.00     0.000 A 
ATOM      6  C   UNN dAMED       4.213   3.264  -1.037  0.00  0.00     0.000 A 
ATOM      7  C   UNN dAMED       3.639   3.208   0.233  0.00  0.00     0.000 A 
ATOM      8  C   UNN dAMED       2.822   2.137   0.580  0.00  0.00     0.002 A 
ENDBRANCH   1   3
BRANCH   1   9
ATOM      9  C   UNN dAMED       2.235  -1.261   0.328  0.00  0.00     0.019 A 
ATOM     10  C   UNN dAMED       2.112  -2.314  -0.577  0.00  0.00     0.002 A 
ATOM     11  C   UNN dAMED       2.594  -3.570  -0.221  0.00  0.00     0.000 A 
ATOM     12  C   UNN dAMED       3.200  -3.760   1.021  0.00  0.00     0.000 A 
ATOM     13  C   UNN dAMED       3.331  -2.694   1.910  0.00  0.00     0.000 A 
ATOM     14  C   UNN dAMED       2.838  -1.437   1.570  0.00  0.00     0.002 A 
ENDBRANCH   1   9
BRANCH   2  15
ATOM     15  N   UNN dAMED      -0.442  -0.721   0.363  0.00  0.00    -0.131 NA
ATOM     16  C   UNN dAMED      -1.692  -0.379   0.286  0.00  0.00     0.162 A 
ATOM     17  N   UNN dAMED      -2.212   0.841  -0.095  0.00  0.00    -0.335 N 
ATOM     18  C   UNN dAMED      -2.706  -1.437   0.652  0.00  0.00     0.040 A 
ATOM     19  C   UNN dAMED      -3.642   1.118  -0.103  0.00  0.00     0.097 A 
ATOM     20  H   UNN dAMED      -1.531   1.556  -0.339  0.00  0.00     0.168 HD
ATOM     21  C   UNN dAMED      -4.531   0.175   0.209  0.00  0.00     0.144 A 
ATOM     22  C   UNN dAMED      -4.016  -1.179   0.618  0.00  0.00     0.028 A 
BRANCH  21  23
ATOM     23  N   UNN dAMED      -5.931   0.467   0.198  0.00  0.00    -0.112 N 
ATOM     24  O   UNN dAMED      -6.267   1.570   0.639  0.00  0.00    -0.532 OA
ATOM     25  O   UNN dAMED      -6.675  -0.404  -0.260  0.00  0.00    -0.532 OA
ENDBRANCH  21  23
ENDBRANCH   2  15
TORSDOF 4
