REMARK  2 active torsions:
REMARK  status: ('A' for Active; 'I' for Inactive)
REMARK    1  A    between atoms: N_15  and  C_16 
REMARK    2  A    between atoms: C_16  and  C_17 
ROOT
ATOM      1  O   UNN dAMED       0.532   0.354  -7.128  0.00  0.00    -0.246 OA
ATOM      2  N   UNN dAMED       1.617   2.261  -6.348  0.00  0.00    -0.246 N 
ATOM      3  N   UNN dAMED       1.680   0.280  -5.116  0.00  0.00    -0.263 N 
ATOM      4  O   UNN dAMED       2.168   4.333  -5.446  0.00  0.00    -0.266 OA
ATOM      5  N   UNN dAMED       2.788   2.723  -2.922  0.00  0.00    -0.193 NA
ATOM      6  N   UNN dAMED       2.500   0.525  -2.811  0.00  0.00    -0.198 NA
ATOM      7  C   UNN dAMED       2.088   3.114  -5.347  0.00  0.00     0.278 C 
ATOM      8  C   UNN dAMED       2.375   2.353  -4.162  0.00  0.00     0.134 A 
ATOM      9  C   UNN dAMED       2.169   0.996  -4.050  0.00  0.00     0.165 A 
ATOM     10  C   UNN dAMED       2.938   1.591  -2.158  0.00  0.00     0.212 A 
ATOM     11  C   UNN dAMED       1.228   0.906  -6.279  0.00  0.00     0.335 C 
ATOM     12  C   UNN dAMED       0.926   2.963  -7.370  0.00  0.00     0.138 C 
ATOM     13  C   UNN dAMED       0.882  -0.828  -4.733  0.00  0.00     0.137 C 
ATOM     14  C   UNN dAMED       4.046   3.377  -3.026  0.00  0.00     0.103 C 
ATOM     15  N   UNN dAMED       3.453   1.637  -0.916  0.00  0.00    -0.225 NA
ENDROOT
BRANCH  15  16
ATOM     16  C   UNN dAMED       3.139   0.600   0.053  0.00  0.00     0.040 C 
ATOM     17  C   UNN dAMED       2.264  -0.589  -0.356  0.00  0.00     0.047 C 
BRANCH  16  18
ATOM     18  C   UNN dAMED       3.868   0.579   1.401  0.00  0.00     0.041 C 
ATOM     19  C   UNN dAMED       3.149   0.078   2.658  0.00  0.00     0.006 C 
ENDBRANCH  16  18
ENDBRANCH  15  16
TORSDOF 2
