REMARK  5 active torsions:
REMARK  status: ('A' for Active; 'I' for Inactive)
REMARK    1  A    between atoms: N_1  and  C_10 
REMARK    2  A    between atoms: C_10  and  N_14 
REMARK    3  A    between atoms: N_11  and  C_12 
REMARK    4  A    between atoms: N_11  and  N_14 
REMARK    5  A    between atoms: C_12  and  C_15 
ROOT
ATOM      1  C   UNN dAMED      -0.857  -1.711   0.036  0.00  0.00     0.198 C 
ATOM      2  S   UNN dAMED       0.787  -1.417  -0.139  0.00  0.00    -0.043 SA
ENDROOT
BRANCH   1   3
ATOM      3  N   UNN dAMED      -1.628  -0.929   0.869  0.00  0.00    -0.228 NA
ATOM      4  C   UNN dAMED      -2.980  -1.324   0.631  0.00  0.00     0.079 C 
ATOM      5  C   UNN dAMED      -4.088  -0.263   0.622  0.00  0.00     0.016 C 
ATOM      6  C   UNN dAMED      -4.075   0.624  -0.626  0.00  0.00     0.001 C 
ATOM      7  C   UNN dAMED      -4.148   0.571   1.904  0.00  0.00     0.001 C 
ATOM      8  C   UNN dAMED      -2.978   1.683  -0.562  0.00  0.00     0.001 C 
ATOM      9  C   UNN dAMED      -2.143   1.570   0.718  0.00  0.00     0.016 C 
ATOM     10  C   UNN dAMED      -1.149   0.405   0.699  0.00  0.00     0.079 C 
ATOM     11  C   UNN dAMED      -3.024   1.602   1.970  0.00  0.00     0.001 C 
ENDBRANCH   1   3
BRANCH   1  12
ATOM     12  N   UNN dAMED      -1.478  -2.787  -0.426  0.00  0.00    -0.125 NA
BRANCH  12  13
ATOM     13  N   UNN dAMED      -2.319  -2.717  -1.473  0.00  0.00    -0.149 NA
BRANCH  13  14
ATOM     14  C   UNN dAMED      -2.726  -1.675  -2.130  0.00  0.00     0.100 C 
ATOM     15  C   UNN dAMED      -3.774  -1.959  -3.174  0.00  0.00     0.056 C 
BRANCH  14  16
ATOM     16  C   UNN dAMED      -2.363  -0.265  -1.986  0.00  0.00     0.116 A 
ATOM     17  C   UNN dAMED      -3.221   0.607  -1.352  0.00  0.00     0.119 A 
ATOM     18  N   UNN dAMED      -2.925   1.919  -1.254  0.00  0.00    -0.239 NA
ATOM     19  C   UNN dAMED      -1.772   2.321  -1.831  0.00  0.00     0.120 A 
ATOM     20  C   UNN dAMED      -0.949   1.443  -2.507  0.00  0.00     0.120 A 
ATOM     21  N   UNN dAMED      -1.239   0.130  -2.610  0.00  0.00    -0.240 NA
ENDBRANCH  14  16
ENDBRANCH  13  14
ENDBRANCH  12  13
ENDBRANCH   1  12
TORSDOF 5
