REMARK  4 active torsions:
REMARK  status: ('A' for Active; 'I' for Inactive)
REMARK    1  A    between atoms: C_2  and  N_14 
REMARK    2  A    between atoms: C_5  and  N_13 
REMARK    3  A    between atoms: C_7  and  C_11 
REMARK       I    between atoms: C_11  and  N_13 
REMARK       I    between atoms: N_14  and  C_15 
REMARK    4  A    between atoms: C_15  and  C_17 
ROOT
ATOM      1  C   UNN dAMED       0.436  -0.821   1.579  0.00  0.00     0.021 A 
ATOM      2  C   UNN dAMED       1.552  -0.420   0.836  0.00  0.00     0.084 A 
ATOM      3  C   UNN dAMED      -0.861  -0.692   1.071  0.00  0.00     0.021 A 
ATOM      4  C   UNN dAMED       1.317   0.105  -0.438  0.00  0.00     0.021 A 
ATOM      5  C   UNN dAMED      -1.098  -0.149  -0.197  0.00  0.00     0.084 A 
ATOM      6  C   UNN dAMED       0.020   0.245  -0.940  0.00  0.00     0.021 A 
ENDROOT
BRANCH   2   7
ATOM      7  N   UNN dAMED       2.786  -0.390   1.378  0.00  0.00    -0.212 NA
ATOM      8  C   UNN dAMED       3.459  -1.538   1.314  0.00  0.00     0.255 C 
ATOM      9  O   UNN dAMED       3.151  -2.618   0.816  0.00  0.00    -0.270 OA
BRANCH   8  10
ATOM     10  C   UNN dAMED       4.779  -1.347   1.998  0.00  0.00     0.073 C 
ATOM     11  C   UNN dAMED       4.603  -1.369   3.479  0.00  0.00     0.009 C 
ATOM     12  C   UNN dAMED       5.962  -1.483   0.922  0.00  0.00     0.009 C 
ATOM     13  C   UNN dAMED       5.962  -1.483   0.922  0.00  0.00     0.009 C 
ENDBRANCH   8  10
ENDBRANCH   2   7
BRANCH   5  14
ATOM     14  N   UNN dAMED      -2.350   0.138  -0.616  0.00  0.00    -0.212 NA
ATOM     15  C   UNN dAMED      -2.897  -0.794  -1.396  0.00  0.00     0.255 C 
ATOM     16  O   UNN dAMED      -2.373  -1.522  -2.235  0.00  0.00    -0.270 OA
BRANCH  15  17
ATOM     17  C   UNN dAMED      -4.385  -0.785  -1.206  0.00  0.00     0.073 C 
ATOM     18  C   UNN dAMED      -4.754   0.094   0.083  0.00  0.00     0.009 C 
ATOM     19  C   UNN dAMED      -4.754   0.094   0.083  0.00  0.00     0.009 C 
ATOM     20  C   UNN dAMED      -5.036  -1.682  -2.203  0.00  0.00     0.009 C 
ENDBRANCH  15  17
ENDBRANCH   5  14
TORSDOF 4
