REMARK  3 active torsions:
REMARK  status: ('A' for Active; 'I' for Inactive)
REMARK    1  A    between atoms: C_4  and  N_14 
REMARK    2  A    between atoms: C_11  and  C_18 
REMARK       I    between atoms: N_14  and  C_15 
REMARK       I    between atoms: C_15  and  N_17 
REMARK    3  A    between atoms: N_17  and  C_18 
ROOT
ATOM      1  N   UNN dAMED      -0.964   0.588  -0.413  0.00  0.00    -0.192 NA
ATOM      2  C   UNN dAMED      -0.613   0.418  -1.707  0.00  0.00     0.369 C 
ATOM      3  O   UNN dAMED      -1.307  -0.029  -2.617  0.00  0.00    -0.242 OA
ATOM      4  N   UNN dAMED       0.663   0.808  -1.868  0.00  0.00    -0.187 NA
ENDROOT
BRANCH   1   5
ATOM      5  C   UNN dAMED      -2.269   0.379  -0.146  0.00  0.00     0.078 A 
ATOM      6  C   UNN dAMED      -2.709  -0.852   0.360  0.00  0.00    -0.004 A 
ATOM      7  C   UNN dAMED      -4.043  -1.057   0.712  0.00  0.00    -0.003 A 
ATOM      8  C   UNN dAMED      -1.717  -1.967   0.542  0.00  0.00     0.033 C 
ATOM      9  C   UNN dAMED      -4.963  -0.023   0.574  0.00  0.00    -0.001 A 
ATOM     10  C   UNN dAMED      -4.549   1.210   0.081  0.00  0.00    -0.003 A 
ATOM     11  C   UNN dAMED      -3.213   1.407  -0.269  0.00  0.00    -0.004 A 
ATOM     12  C   UNN dAMED      -2.777   2.748  -0.788  0.00  0.00     0.033 C 
ENDBRANCH   1   5
BRANCH   4  13
ATOM     13  C   UNN dAMED       1.339   1.455  -0.750  0.00  0.00     0.128 C 
BRANCH  13  14
ATOM     14  C   UNN dAMED       2.834   1.408  -0.582  0.00  0.00     0.119 A 
ATOM     15  O   UNN dAMED       3.523   2.448  -0.047  0.00  0.00    -0.304 OA
ATOM     16  C   UNN dAMED       4.739   1.957   0.326  0.00  0.00     0.123 A 
ATOM     17  C   UNN dAMED       4.802   0.604   0.071  0.00  0.00     0.029 A 
ATOM     18  C   UNN dAMED       3.553   0.240  -0.486  0.00  0.00     0.028 A 
ENDBRANCH  13  14
ENDBRANCH   4  13
TORSDOF 3
