REMARK  5 active torsions:
REMARK  status: ('A' for Active; 'I' for Inactive)
REMARK    1  A    between atoms: C_2  and  C_13 
REMARK    2  A    between atoms: C_3  and  N_18 
REMARK    3  A    between atoms: C4*_8  and  C5*_21 
REMARK    4  A    between atoms: C1*_11  and  N_18 
REMARK    5  A    between atoms: C_13  and  O_15 
ROOT
ATOM      1  C   UNN dAMED      -0.644  -1.971  -1.952  0.00  0.00     0.081 A 
ATOM      2  C   UNN dAMED      -0.572  -0.927  -1.016  0.00  0.00     0.088 A 
ATOM      3  C   UNN dAMED      -1.457  -1.896  -3.086  0.00  0.00     0.002 A 
ATOM      4  C   UNN dAMED      -1.379   0.192  -1.252  0.00  0.00     0.015 A 
ATOM      5  C   UNN dAMED      -2.222  -0.757  -3.304  0.00  0.00    -0.025 A 
ATOM      6  C   UNN dAMED      -2.200   0.279  -2.377  0.00  0.00    -0.024 A 
ATOM      7  C   UNN dAMED      -3.040  -0.627  -4.557  0.00  0.00     0.031 C 
ATOM      8  C   UNN dAMED      -3.039   1.505  -2.600  0.00  0.00     0.031 C 
ENDROOT
BRANCH   2   9
ATOM      9  N   UNN dAMED       0.237  -0.951   0.060  0.00  0.00    -0.220 NA
BRANCH   9  10
ATOM     10  C1* UNN dAMED       1.574  -0.350   0.016  0.00  0.00     0.211 A 
ATOM     11  O4* UNN dAMED       1.886   0.688  -0.903  0.00  0.00    -0.283 OA
ATOM     12  C4* UNN dAMED       3.290   0.833  -0.777  0.00  0.00     0.157 A 
ATOM     13  C3* UNN dAMED       3.948  -0.151   0.197  0.00  0.00     0.184 A 
ATOM     14  C2* UNN dAMED       2.791  -0.985   0.697  0.00  0.00     0.199 A 
ATOM     15  O3* UNN dAMED       5.152  -0.738  -0.102  0.00  0.00    -0.186 OA
ATOM     16  O2* UNN dAMED       2.741  -1.408   2.003  0.00  0.00    -0.184 OA
BRANCH  12  17
ATOM     17  C5* UNN dAMED       3.929   2.181  -1.158  0.00  0.00     0.183 C 
ATOM     18  O5* UNN dAMED       5.229   2.481  -0.859  0.00  0.00    -0.186 OA
ENDBRANCH  12  17
ENDBRANCH   9  10
ENDBRANCH   2   9
BRANCH   1  19
ATOM     19  C   UNN dAMED       0.084  -3.224  -1.749  0.00  0.00     0.297 C 
ATOM     20  O   UNN dAMED      -0.322  -4.153  -1.075  0.00  0.00    -0.259 OA
BRANCH  19  21
ATOM     21  O   UNN dAMED       1.253  -3.159  -2.418  0.00  0.00    -0.296 OA
ATOM     22  C   UNN dAMED       1.069  -2.158  -3.375  0.00  0.00     0.185 C 
ENDBRANCH  19  21
ENDBRANCH   1  19
TORSDOF 5
