REMARK  3 active torsions:
REMARK  status: ('A' for Active; 'I' for Inactive)
REMARK    1  A    between atoms: C_5  and  C_16 
REMARK    2  A    between atoms: C_13  and  O_15 
REMARK    3  A    between atoms: O_15  and  C_16 
ROOT
ATOM      1  N   UNN dAMED      -0.001   0.594   0.021  0.00  0.00    -0.158 NA
ATOM      2  N   UNN dAMED      -0.896  -0.429   0.017  0.00  0.00    -0.226 N 
ATOM      3  C   UNN dAMED      -0.288  -1.656  -0.090  0.00  0.00     0.130 A 
ATOM      4  C   UNN dAMED       1.053  -1.395  -0.164  0.00  0.00     0.175 A 
ATOM      5  C   UNN dAMED       1.209   0.010  -0.081  0.00  0.00     0.191 A 
ATOM      6  C   UNN dAMED      -2.757   0.994   0.630  0.00  0.00     0.019 A 
ATOM      7  C   UNN dAMED      -4.132   1.209   0.723  0.00  0.00     0.002 A 
ATOM      8  C   UNN dAMED      -2.283  -0.212   0.117  0.00  0.00     0.083 A 
ATOM      9  C   UNN dAMED      -5.024   0.217   0.318  0.00  0.00     0.000 A 
ATOM     10  C   UNN dAMED      -3.173  -1.208  -0.290  0.00  0.00     0.019 A 
ATOM     11  C   UNN dAMED      -4.547  -0.992  -0.184  0.00  0.00     0.002 A 
ATOM     12  O   UNN dAMED       1.978  -2.320  -0.283  0.00  0.00    -0.187 OA
ENDROOT
BRANCH   5  13
ATOM     13  C   UNN dAMED       2.394   0.859  -0.102  0.00  0.00     0.318 C 
ATOM     14  O   UNN dAMED       2.359   2.079  -0.208  0.00  0.00    -0.257 OA
BRANCH  13  15
ATOM     15  O   UNN dAMED       3.563   0.175   0.022  0.00  0.00    -0.297 OA
BRANCH  15  16
ATOM     16  C   UNN dAMED       3.250  -1.141  -0.326  0.00  0.00     0.152 C 
ATOM     17  C   UNN dAMED       4.323  -2.045  -0.945  0.00  0.00     0.035 C 
ENDBRANCH  15  16
ENDBRANCH  13  15
ENDBRANCH   5  13
TORSDOF 3
