REMARK  7 active torsions:
REMARK  status: ('A' for Active; 'I' for Inactive)
REMARK    1  A    between atoms: C_5  and  C_13 
REMARK    2  A    between atoms: C_8  and  C_15 
REMARK    3  A    between atoms: O_9  and  C_10 
REMARK    4  A    between atoms: O_9  and  C_13 
REMARK    5  A    between atoms: C_16  and  C_17 
REMARK    6  A    between atoms: C_17  and  O_19 
REMARK    7  A    between atoms: O_19  and  C_20 
ROOT
ATOM      1  N   UNN dAMED      -1.407  -0.206   0.715  0.00  0.00    -0.335 N 
ATOM      2  H   UNN dAMED      -1.601   0.534   1.379  0.00  0.00     0.168 HD
ATOM      3  O   UNN dAMED      -0.686  -3.162  -1.855  0.00  0.00    -0.265 OA
ATOM      4  N   UNN dAMED       0.136  -1.717  -0.253  0.00  0.00    -0.191 NA
ATOM      5  C   UNN dAMED      -2.436  -0.720  -0.016  0.00  0.00     0.122 A 
ATOM      6  C   UNN dAMED      -2.259  -1.721  -0.883  0.00  0.00     0.057 A 
ATOM      7  C   UNN dAMED      -0.871  -2.260  -1.042  0.00  0.00     0.278 A 
ATOM      8  C   UNN dAMED      -0.154  -0.747   0.568  0.00  0.00     0.144 A 
ATOM      9  C   UNN dAMED      -3.406  -2.288  -1.666  0.00  0.00     0.038 C 
ENDROOT
BRANCH   8  10
ATOM     10  C   UNN dAMED       0.949  -0.208   1.437  0.00  0.00     0.042 C 
ATOM     11  C   UNN dAMED       1.912   0.550   0.915  0.00  0.00     0.071 C 
BRANCH  11  12
ATOM     12  C   UNN dAMED       2.948   1.156   1.819  0.00  0.00     0.296 C 
ATOM     13  O   UNN dAMED       2.640   1.396   2.979  0.00  0.00    -0.259 OA
BRANCH  12  14
ATOM     14  O   UNN dAMED       4.176   1.439   1.310  0.00  0.00    -0.298 OA
BRANCH  14  15
ATOM     15  C   UNN dAMED       4.844   2.105   2.342  0.00  0.00     0.152 C 
ATOM     16  C   UNN dAMED       4.286   2.064   3.769  0.00  0.00     0.035 C 
ENDBRANCH  14  15
ENDBRANCH  12  14
ENDBRANCH  11  12
ENDBRANCH   8  10
BRANCH   5  17
ATOM     17  C   UNN dAMED      -3.791  -0.199   0.161  0.00  0.00     0.311 C 
ATOM     18  O   UNN dAMED      -4.605  -0.635   0.958  0.00  0.00    -0.258 OA
BRANCH  17  19
ATOM     19  O   UNN dAMED      -3.983   0.851  -0.668  0.00  0.00    -0.297 OA
BRANCH  19  20
ATOM     20  C   UNN dAMED      -2.780   0.988  -1.366  0.00  0.00     0.152 C 
ATOM     21  C   UNN dAMED      -1.520   1.475  -0.642  0.00  0.00     0.035 C 
ENDBRANCH  19  20
ENDBRANCH  17  19
ENDBRANCH   5  17
TORSDOF 7
