REMARK  3 active torsions:
REMARK  status: ('A' for Active; 'I' for Inactive)
REMARK    1  A    between atoms: C_10  and  O_15 
REMARK    2  A    between atoms: O_15  and  C_16 
REMARK    3  A    between atoms: C_16  and  C_17 
ROOT
ATOM      1  O   UNN dAMED      -4.034  -1.342  -0.546  0.00  0.00    -0.246 OA
ATOM      2  N   UNN dAMED      -3.059   0.587   0.320  0.00  0.00    -0.246 N 
ATOM      3  N   UNN dAMED      -1.785  -0.924  -0.919  0.00  0.00    -0.263 N 
ATOM      4  O   UNN dAMED      -2.118   2.216   1.690  0.00  0.00    -0.266 OA
ATOM      5  N   UNN dAMED       0.536   1.140   0.630  0.00  0.00    -0.189 NA
ATOM      6  N   UNN dAMED       0.643  -0.576  -0.793  0.00  0.00    -0.193 NA
ATOM      7  C   UNN dAMED      -1.999   1.320   0.863  0.00  0.00     0.278 C 
ATOM      8  C   UNN dAMED      -0.754   0.802   0.367  0.00  0.00     0.135 A 
ATOM      9  C   UNN dAMED      -0.653  -0.280  -0.482  0.00  0.00     0.166 A 
ATOM     10  C   UNN dAMED       1.331   0.344  -0.146  0.00  0.00     0.230 A 
ATOM     11  C   UNN dAMED      -3.049  -0.619  -0.412  0.00  0.00     0.335 C 
ATOM     12  C   UNN dAMED      -4.258   0.750   1.064  0.00  0.00     0.138 C 
ATOM     13  C   UNN dAMED      -1.595  -2.313  -1.138  0.00  0.00     0.137 C 
ATOM     14  C   UNN dAMED       0.741   2.497   0.259  0.00  0.00     0.103 C 
ENDROOT
BRANCH  10  15
ATOM     15  O   UNN dAMED       2.644   0.493  -0.203  0.00  0.00    -0.306 OA
BRANCH  15  16
ATOM     16  C   UNN dAMED       3.066  -0.404  -1.187  0.00  0.00     0.152 C 
BRANCH  16  17
ATOM     17  C   UNN dAMED       4.165  -1.424  -0.873  0.00  0.00     0.033 C 
ATOM     18  C   UNN dAMED       3.852  -2.644  -0.000  0.00  0.00     0.003 C 
ENDBRANCH  16  17
ENDBRANCH  15  16
ENDBRANCH  10  15
TORSDOF 3
