REMARK  3 active torsions:
REMARK  status: ('A' for Active; 'I' for Inactive)
REMARK    1  A    between atoms: C_5  and  C_15 
REMARK    2  A    between atoms: C_12  and  C_16 
REMARK    3  A    between atoms: C_15  and  C_16 
ROOT
ATOM      1  C   UNN dAMED      -0.088  -1.171   4.162  0.00  0.00     0.175 C 
ATOM      2  O   UNN dAMED       1.128  -1.806   4.109  0.00  0.00    -0.186 OA
ENDROOT
BRANCH   1   3
ATOM      3  C   UNN dAMED      -1.261  -1.851   4.850  0.00  0.00     0.108 A 
ATOM      4  N   UNN dAMED      -1.952  -2.799   4.164  0.00  0.00    -0.248 NA
ATOM      5  C   UNN dAMED      -3.024  -3.353   4.776  0.00  0.00     0.059 A 
ATOM      6  C   UNN dAMED      -3.445  -2.993   6.046  0.00  0.00     0.015 A 
ATOM      7  C   UNN dAMED      -3.796  -4.414   4.043  0.00  0.00     0.052 C 
ATOM      8  C   UNN dAMED      -2.731  -2.008   6.718  0.00  0.00     0.003 A 
ATOM      9  C   UNN dAMED      -1.621  -1.420   6.120  0.00  0.00     0.021 A 
ENDBRANCH   1   3
BRANCH   1  10
ATOM     10  C   UNN dAMED      -0.241   0.272   3.614  0.00  0.00     0.175 C 
ATOM     11  O   UNN dAMED      -1.024   0.505   2.507  0.00  0.00    -0.186 OA
BRANCH  10  12
ATOM     12  C   UNN dAMED       0.449   1.434   4.294  0.00  0.00     0.108 A 
ATOM     13  N   UNN dAMED       1.551   1.965   3.705  0.00  0.00    -0.248 NA
ATOM     14  C   UNN dAMED       2.210   2.937   4.378  0.00  0.00     0.059 A 
ATOM     15  C   UNN dAMED       1.818   3.398   5.627  0.00  0.00     0.015 A 
ATOM     16  C   UNN dAMED       3.464   3.511   3.771  0.00  0.00     0.052 C 
ATOM     17  C   UNN dAMED       0.678   2.847   6.195  0.00  0.00     0.003 A 
ATOM     18  C   UNN dAMED      -0.020   1.846   5.533  0.00  0.00     0.021 A 
ENDBRANCH  10  12
ENDBRANCH   1  10
TORSDOF 3
