REMARK  3 active torsions:
REMARK  status: ('A' for Active; 'I' for Inactive)
REMARK    1  A    between atoms: C_9  and  O_11 
REMARK    2  A    between atoms: C_10  and  C_14 
REMARK    3  A    between atoms: C_14  and  O_15 
ROOT
ATOM      1  H   UNN dAMED      -1.492   2.290   0.604  0.00  0.00     0.173 HD
ATOM      2  O   UNN dAMED      -2.756   1.188  -1.219  0.00  0.00    -0.247 OA
ATOM      3  N   UNN dAMED      -1.049   1.424   0.307  0.00  0.00    -0.275 N 
ATOM      4  C   UNN dAMED      -1.705   0.763  -0.736  0.00  0.00     0.328 C 
ATOM      5  C   UNN dAMED       0.178   1.156   0.911  0.00  0.00     0.284 C 
ATOM      6  O   UNN dAMED       0.741   1.933   1.679  0.00  0.00    -0.268 OA
ATOM      7  N   UNN dAMED      -1.072  -0.355  -1.217  0.00  0.00    -0.289 N 
ATOM      8  H   UNN dAMED      -1.484  -1.025  -1.855  0.00  0.00     0.172 HD
ATOM      9  C   UNN dAMED      -0.296  -0.987  -0.210  0.00  0.00     0.184 C 
ATOM     10  C   UNN dAMED       0.773  -0.175   0.534  0.00  0.00     0.333 C 
ATOM     11  F   UNN dAMED       1.102  -0.844   1.678  0.00  0.00    -0.212 F 
ENDROOT
BRANCH  10  12
ATOM     12  C   UNN dAMED       1.979  -0.025  -0.361  0.00  0.00     0.318 C 
ATOM     13  O   UNN dAMED       1.951   0.452  -1.487  0.00  0.00    -0.260 OA
BRANCH  12  14
ATOM     14  O   UNN dAMED       3.097  -0.519   0.220  0.00  0.00    -0.296 OA
ATOM     15  C   UNN dAMED       3.994  -0.714  -0.832  0.00  0.00     0.185 C 
ENDBRANCH  12  14
ENDBRANCH  10  12
BRANCH   9  16
ATOM     16  O   UNN dAMED      -0.176  -2.438  -0.242  0.00  0.00    -0.314 OA
ATOM     17  C   UNN dAMED       0.009  -1.007  -0.414  0.00  0.00     0.183 C 
ENDBRANCH   9  16
TORSDOF 3
