REMARK  3 active torsions:
REMARK  status: ('A' for Active; 'I' for Inactive)
REMARK    1  A    between atoms: C_6  and  N_16 
REMARK    2  A    between atoms: C_12  and  N_15 
REMARK    3  A    between atoms: N_15  and  N_16 
ROOT
ATOM      1  N   UNN dAMED      -0.375  -0.934   0.351  0.00  0.00    -0.181 NA
ENDROOT
BRANCH   1   2
ATOM      2  C   UNN dAMED      -1.606  -0.580   0.202  0.00  0.00     0.125 C 
ATOM      3  C   UNN dAMED      -2.406  -0.965  -1.096  0.00  0.00     0.024 A 
ATOM      4  C   UNN dAMED      -2.323   0.124  -2.157  0.00  0.00     0.002 A 
ATOM      5  C   UNN dAMED      -3.601  -0.049  -1.321  0.00  0.00     0.002 A 
ATOM      6  C   UNN dAMED      -1.518   1.211  -1.492  0.00  0.00     0.002 C 
ATOM      7  C   UNN dAMED      -1.990   0.906  -0.073  0.00  0.00     0.024 C 
ATOM      8  C   UNN dAMED      -3.511   0.940  -0.188  0.00  0.00     0.002 C 
ENDBRANCH   1   2
BRANCH   1   9
ATOM      9  N   UNN dAMED       0.295   0.076   1.021  0.00  0.00    -0.181 NA
BRANCH   9  10
ATOM     10  C   UNN dAMED       1.554  -0.205   1.033  0.00  0.00     0.125 C 
ATOM     11  C   UNN dAMED       2.637   0.929   0.915  0.00  0.00     0.024 A 
ATOM     12  C   UNN dAMED       3.975   0.390   0.427  0.00  0.00     0.002 A 
ATOM     13  C   UNN dAMED       3.055   1.165  -0.531  0.00  0.00     0.002 A 
ATOM     14  C   UNN dAMED       3.705  -1.074   0.192  0.00  0.00     0.002 C 
ATOM     15  C   UNN dAMED       2.235  -0.903  -0.182  0.00  0.00     0.024 C 
ATOM     16  C   UNN dAMED       2.271   0.134  -1.302  0.00  0.00     0.002 C 
ENDBRANCH   9  10
ENDBRANCH   1   9
TORSDOF 3
