REMARK  5 active torsions:
REMARK  status: ('A' for Active; 'I' for Inactive)
REMARK    1  A    between atoms: C_4  and  C_24 
REMARK    2  A    between atoms: C_5  and  N_25 
REMARK    3  A    between atoms: C_14  and  C_23 
REMARK    4  A    between atoms: N_25  and  C_26 
REMARK    5  A    between atoms: N_25  and  C_28 
ROOT
ATOM      1  N   UNN dAMED      -1.455  -2.457   0.014  0.00  0.00    -0.246 NA
ATOM      2  C   UNN dAMED      -3.158  -4.051   0.184  0.00  0.00     0.019 A 
ATOM      3  C   UNN dAMED      -2.767  -2.725   0.064  0.00  0.00     0.081 A 
ATOM      4  C   UNN dAMED      -4.497  -4.427   0.237  0.00  0.00     0.002 A 
ATOM      5  C   UNN dAMED      -3.760  -1.720  -0.006  0.00  0.00     0.018 A 
ATOM      6  C   UNN dAMED      -5.481  -3.455   0.181  0.00  0.00     0.000 A 
ATOM      7  C   UNN dAMED      -3.347  -0.369  -0.158  0.00  0.00     0.003 A 
ATOM      8  C   UNN dAMED      -1.074  -1.172  -0.124  0.00  0.00     0.081 A 
ATOM      9  C   UNN dAMED      -1.971  -0.126  -0.223  0.00  0.00     0.019 A 
ATOM     10  C   UNN dAMED      -5.108  -2.120   0.067  0.00  0.00     0.002 A 
ATOM     11  C   UNN dAMED      -4.257   0.795  -0.250  0.00  0.00     0.000 A 
ATOM     12  C   UNN dAMED      -3.814   2.075   0.115  0.00  0.00     0.000 A 
ATOM     13  C   UNN dAMED      -5.563   0.697  -0.745  0.00  0.00     0.000 A 
ATOM     14  C   UNN dAMED      -6.400   1.808  -0.840  0.00  0.00     0.000 A 
ATOM     15  C   UNN dAMED      -4.629   3.201  -0.005  0.00  0.00     0.000 A 
ATOM     16  C   UNN dAMED      -5.929   3.064  -0.475  0.00  0.00     0.000 A 
ENDROOT
BRANCH   8  17
ATOM     17  C   UNN dAMED       0.393  -0.865  -0.213  0.00  0.00     0.019 C 
ATOM     18  C   UNN dAMED       1.020  -0.998  -1.380  0.00  0.00     0.002 C 
BRANCH  18  19
ATOM     19  C   UNN dAMED       2.466  -0.619  -1.507  0.00  0.00     0.000 A 
ATOM     20  C   UNN dAMED       3.241  -0.440  -0.364  0.00  0.00     0.002 A 
ATOM     21  C   UNN dAMED       4.576  -0.061  -0.486  0.00  0.00     0.017 A 
ATOM     22  C   UNN dAMED       5.137   0.141  -1.747  0.00  0.00     0.056 A 
ATOM     23  C   UNN dAMED       4.354  -0.040  -2.888  0.00  0.00     0.017 A 
ATOM     24  C   UNN dAMED       3.019  -0.419  -2.768  0.00  0.00     0.002 A 
BRANCH  22  25
ATOM     25  N   UNN dAMED       6.485   0.524  -1.870  0.00  0.00    -0.348 N 
BRANCH  25  26
ATOM     26  C   UNN dAMED       7.298   0.693  -0.678  0.00  0.00     0.102 C 
ATOM     27  C   UNN dAMED       6.653   0.605   0.708  0.00  0.00     0.026 C 
ENDBRANCH  25  26
BRANCH  25  28
ATOM     28  C   UNN dAMED       7.204   0.253  -3.102  0.00  0.00     0.102 C 
ATOM     29  C   UNN dAMED       6.481   0.353  -4.449  0.00  0.00     0.026 C 
ENDBRANCH  25  28
ENDBRANCH  22  25
ENDBRANCH  18  19
ENDBRANCH   8  17
TORSDOF 5
