REMARK  0 active torsions:
REMARK  status: ('A' for Active; 'I' for Inactive)
ROOT
ATOM      1  C   UNN dAMED      -2.741   0.192  -0.000  0.00  0.00    -0.000 A 
ATOM      2  C   UNN dAMED      -2.460  -1.176  -0.000  0.00  0.00     0.000 A 
ATOM      3  C   UNN dAMED      -1.704   1.124   0.000  0.00  0.00    -0.001 A 
ATOM      4  C   UNN dAMED      -1.140  -1.623   0.000  0.00  0.00     0.001 A 
ATOM      5  C   UNN dAMED      -0.389   0.677   0.000  0.00  0.00    -0.005 A 
ATOM      6  C   UNN dAMED      -0.113  -0.688   0.000  0.00  0.00     0.013 A 
ATOM      7  C   UNN dAMED       1.266  -1.189   0.000  0.00  0.00     0.054 A 
ATOM      8  C   UNN dAMED       0.768   1.624  -0.000  0.00  0.00    -0.020 A 
ATOM      9  N   UNN dAMED       2.303  -0.413  -0.000  0.00  0.00    -0.271 NA
ATOM     10  C   UNN dAMED       2.169   1.010   0.000  0.00  0.00     0.147 A 
ATOM     11  C   UNN dAMED       0.560   3.141   0.000  0.00  0.00     0.028 C 
ATOM     12  C   UNN dAMED       1.481  -2.678  -0.000  0.00  0.00     0.052 C 
ENDROOT
TORSDOF 0
