REMARK  2 active torsions:
REMARK  status: ('A' for Active; 'I' for Inactive)
REMARK    1  A    between atoms: N_3  and  N_15 
REMARK       I    between atoms: C_5  and  N_15 
REMARK       I    between atoms: C_5  and  N_16 
REMARK    2  A    between atoms: N_11  and  N_16 
ROOT
ATOM      1  C   UNN dAMED       1.787   0.491  -1.535  0.00  0.00     0.400 C 
ATOM      2  O   UNN dAMED       2.280   0.961  -2.559  0.00  0.00    -0.239 OA
ATOM      3  N   UNN dAMED       0.682  -0.282  -1.476  0.00  0.00    -0.113 NA
ATOM      4  N   UNN dAMED       2.204   0.750  -0.278  0.00  0.00    -0.113 NA
ENDROOT
BRANCH   3   5
ATOM      5  N   UNN dAMED       0.362  -0.891  -2.771  0.00  0.00    -0.268 N 
ATOM      6  C   UNN dAMED       1.283  -1.872  -3.349  0.00  0.00     0.122 C 
ATOM      7  C   UNN dAMED       1.034  -2.382  -4.774  0.00  0.00     0.026 C 
ATOM      8  C   UNN dAMED      -0.405  -2.784  -5.063  0.00  0.00     0.004 C 
ATOM      9  C   UNN dAMED      -1.406  -1.848  -4.404  0.00  0.00     0.026 C 
ATOM     10  C   UNN dAMED      -1.005  -1.366  -3.005  0.00  0.00     0.122 C 
ENDBRANCH   3   5
BRANCH   4  11
ATOM     11  N   UNN dAMED       3.644   1.001  -0.237  0.00  0.00    -0.268 N 
ATOM     12  C   UNN dAMED       4.560  -0.044   0.205  0.00  0.00     0.122 C 
ATOM     13  C   UNN dAMED       5.440  -0.739  -0.839  0.00  0.00     0.026 C 
ATOM     14  C   UNN dAMED       6.088   0.200  -1.849  0.00  0.00     0.004 C 
ATOM     15  C   UNN dAMED       5.697   1.660  -1.644  0.00  0.00     0.026 C 
ATOM     16  C   UNN dAMED       4.243   1.895  -1.221  0.00  0.00     0.122 C 
ENDBRANCH   4  11
TORSDOF 2
