REMARK  5 active torsions:
REMARK  status: ('A' for Active; 'I' for Inactive)
REMARK    1  A    between atoms: N_2  and  C_7 
REMARK    2  A    between atoms: N_3  and  C_12 
REMARK    3  A    between atoms: C_4  and  O_22 
REMARK    4  A    between atoms: C_18  and  C_20 
REMARK    5  A    between atoms: C_20  and  O_22 
ROOT
ATOM      1  O   UNN dAMED      -2.847   1.320  -2.701  0.00  0.00    -0.284 OA
ATOM      2  C   UNN dAMED      -2.792   0.442  -0.522  0.00  0.00     0.142 C 
ATOM      3  C   UNN dAMED      -2.128  -0.244   0.408  0.00  0.00     0.030 C 
ATOM      4  C   UNN dAMED      -0.650   0.026   0.741  0.00  0.00     0.023 C 
ATOM      5  C   UNN dAMED       0.335  -0.034  -0.157  0.00  0.00     0.103 C 
ATOM      6  C   UNN dAMED      -2.187   0.754  -1.835  0.00  0.00     0.218 C 
ATOM      7  C   UNN dAMED       0.025  -0.478  -1.561  0.00  0.00     0.024 C 
ATOM      8  C   UNN dAMED      -1.003  -0.059  -2.305  0.00  0.00     0.046 C 
ENDROOT
BRANCH   5   9
ATOM      9  N   UNN dAMED       1.610  -0.206   0.305  0.00  0.00    -0.148 NA
ATOM     10  N   UNN dAMED       2.441  -0.347  -0.615  0.00  0.00    -0.148 NA
BRANCH  10  11
ATOM     11  C   UNN dAMED       3.713  -0.612  -0.083  0.00  0.00     0.103 A 
ATOM     12  C   UNN dAMED       4.434   0.371   0.603  0.00  0.00     0.021 A 
ATOM     13  C   UNN dAMED       5.720   0.111   1.074  0.00  0.00    -0.003 A 
ATOM     14  C   UNN dAMED       6.306  -1.129   0.842  0.00  0.00    -0.022 A 
ATOM     15  C   UNN dAMED       5.610  -2.108   0.139  0.00  0.00    -0.003 A 
ATOM     16  C   UNN dAMED       7.713  -1.390   1.304  0.00  0.00     0.031 C 
ATOM     17  C   UNN dAMED       4.320  -1.848  -0.322  0.00  0.00     0.021 A 
ENDBRANCH  10  11
ENDBRANCH   5   9
BRANCH   2  18
ATOM     18  O   UNN dAMED      -4.162   0.650  -0.383  0.00  0.00    -0.273 OA
BRANCH  18  19
ATOM     19  C   UNN dAMED      -4.303   1.636   0.541  0.00  0.00     0.276 C 
ATOM     20  O   UNN dAMED      -4.535   1.479   1.729  0.00  0.00    -0.264 OA
BRANCH  19  21
ATOM     21  C   UNN dAMED      -4.318   2.945  -0.132  0.00  0.00     0.087 C 
ATOM     22  C   UNN dAMED      -3.572   3.118  -1.235  0.00  0.00     0.010 C 
ATOM     23  C   UNN dAMED      -3.743   4.168   0.564  0.00  0.00     0.010 C 
ENDBRANCH  19  21
ENDBRANCH  18  19
ENDBRANCH   2  18
TORSDOF 5
