REMARK  4 active torsions:
REMARK  status: ('A' for Active; 'I' for Inactive)
REMARK    1  A    between atoms: C_1  and  C_2 
REMARK       I    between atoms: C_2  and  N_12 
REMARK    2  A    between atoms: C_4  and  N_12 
REMARK    3  A    between atoms: C_9  and  N_13 
REMARK    4  A    between atoms: N_13  and  C_15 
ROOT
ATOM      1  C   UNN dAMED      -0.929  -1.042  -0.314  0.00  0.00     0.085 A 
ATOM      2  C   UNN dAMED      -0.313   0.162  -0.677  0.00  0.00     0.021 A 
ATOM      3  C   UNN dAMED      -0.140  -1.999   0.332  0.00  0.00     0.021 A 
ATOM      4  C   UNN dAMED       1.049   0.377  -0.454  0.00  0.00     0.021 A 
ATOM      5  C   UNN dAMED       1.222  -1.786   0.548  0.00  0.00     0.021 A 
ATOM      6  C   UNN dAMED       1.840  -0.599   0.152  0.00  0.00     0.081 A 
ENDROOT
BRANCH   1   7
ATOM      7  N   UNN dAMED      -2.249  -1.235  -0.508  0.00  0.00    -0.208 NA
ATOM      8  C   UNN dAMED      -2.654  -1.911  -1.585  0.00  0.00     0.275 C 
ATOM      9  O   UNN dAMED      -3.824  -2.186  -1.846  0.00  0.00    -0.266 OA
BRANCH   8  10
ATOM     10  C   UNN dAMED      -1.622  -2.353  -2.555  0.00  0.00     0.036 C 
ATOM     11  C   UNN dAMED      -1.972  -3.108  -3.596  0.00  0.00     0.000 C 
ATOM     12  C   UNN dAMED      -0.166  -2.264  -2.190  0.00  0.00     0.036 C 
ENDBRANCH   8  10
ENDBRANCH   1   7
BRANCH   6  13
ATOM     13  N   UNN dAMED       3.152  -0.414   0.359  0.00  0.00    -0.254 NA
BRANCH  13  14
ATOM     14  C   UNN dAMED       3.832   0.758  -0.165  0.00  0.00     0.038 C 
ATOM     15  C   UNN dAMED       4.969   1.376   0.654  0.00  0.00     0.047 C 
ATOM     16  C   UNN dAMED       3.751   1.060  -1.664  0.00  0.00     0.047 C 
ENDBRANCH  13  14
ENDBRANCH   6  13
TORSDOF 4
