REMARK  3 active torsions:
REMARK  status: ('A' for Active; 'I' for Inactive)
REMARK    1  A    between atoms: C_3  and  O_20 
REMARK    2  A    between atoms: C_9  and  C_13 
REMARK       I    between atoms: N_17  and  C_18 
REMARK    3  A    between atoms: C_18  and  O_20 
ROOT
ATOM      1  C   UNN dAMED       1.104   0.859   4.296  0.00  0.00     0.029 A 
ATOM      2  C   UNN dAMED       0.510   0.258   3.186  0.00  0.00     0.087 A 
ATOM      3  C   UNN dAMED       0.455   0.958   5.545  0.00  0.00     0.105 A 
ATOM      4  C   UNN dAMED      -0.761  -0.275   3.371  0.00  0.00     0.023 A 
ATOM      5  C   UNN dAMED      -0.865   0.466   5.733  0.00  0.00     0.202 A 
ATOM      6  C   UNN dAMED      -1.421  -0.145   4.595  0.00  0.00     0.044 A 
ATOM      7  O   UNN dAMED      -1.532   0.541   6.818  0.00  0.00    -0.286 OA
ATOM      8  N   UNN dAMED       1.193   0.097   2.036  0.00  0.00    -0.186 NA
ATOM      9  C   UNN dAMED       0.749   0.825   1.000  0.00  0.00     0.392 C 
ATOM     10  O   UNN dAMED      -0.227   1.573   0.957  0.00  0.00    -0.236 OA
ENDROOT
BRANCH   3  11
ATOM     11  C   UNN dAMED       1.249   1.575   6.669  0.00  0.00     0.214 C 
ATOM     12  O   UNN dAMED       0.680   2.479   7.355  0.00  0.00    -0.644 OA
ATOM     13  O   UNN dAMED       2.434   1.145   6.828  0.00  0.00    -0.644 OA
ENDBRANCH   3  11
BRANCH   9  14
ATOM     14  O   UNN dAMED       1.532   0.687  -0.177  0.00  0.00    -0.258 OA
BRANCH  14  15
ATOM     15  C   UNN dAMED       2.579  -0.253  -0.270  0.00  0.00     0.105 A 
ATOM     16  C   UNN dAMED       2.292  -1.558  -0.660  0.00  0.00     0.025 A 
ATOM     17  C   UNN dAMED       3.343  -2.462  -0.778  0.00  0.00     0.002 A 
ATOM     18  C   UNN dAMED       4.653  -2.052  -0.526  0.00  0.00     0.000 A 
ATOM     19  C   UNN dAMED       4.921  -0.732  -0.161  0.00  0.00     0.002 A 
ATOM     20  C   UNN dAMED       3.881   0.182  -0.037  0.00  0.00     0.025 A 
ENDBRANCH  14  15
ENDBRANCH   9  14
TORSDOF 3
