REMARK  4 active torsions:
REMARK  status: ('A' for Active; 'I' for Inactive)
REMARK    1  A    between atoms: C_3  and  N_17 
REMARK    2  A    between atoms: C_6  and  C_14 
REMARK    3  A    between atoms: C_8  and  N_20 
REMARK    4  A    between atoms: C_11  and  O_21 
REMARK       I    between atoms: N_17  and  C_18 
REMARK       I    between atoms: C_18  and  N_20 
ROOT
ATOM      1  N   UNN dAMED      -0.215  -1.390  -0.251  0.00  0.00    -0.191 NA
ATOM      2  C   UNN dAMED      -0.167  -2.170  -1.351  0.00  0.00     0.369 C 
ATOM      3  O   UNN dAMED      -1.067  -2.932  -1.705  0.00  0.00    -0.242 OA
ATOM      4  N   UNN dAMED       0.984  -2.082  -2.056  0.00  0.00    -0.189 NA
ENDROOT
BRANCH   1   5
ATOM      5  C   UNN dAMED      -1.440  -0.925   0.064  0.00  0.00     0.082 A 
ATOM      6  C   UNN dAMED      -2.222  -1.575   1.030  0.00  0.00    -0.004 A 
ATOM      7  C   UNN dAMED      -3.456  -1.065   1.431  0.00  0.00    -0.003 A 
ATOM      8  C   UNN dAMED      -1.712  -2.846   1.649  0.00  0.00     0.033 C 
ATOM      9  C   UNN dAMED      -3.925   0.123   0.880  0.00  0.00    -0.001 A 
ATOM     10  C   UNN dAMED      -3.160   0.791  -0.070  0.00  0.00    -0.006 A 
ATOM     11  C   UNN dAMED      -1.926   0.276  -0.467  0.00  0.00     0.018 A 
BRANCH  10  12
ATOM     12  C   UNN dAMED      -3.653   2.087  -0.648  0.00  0.00    -0.043 C 
ATOM     13  C   UNN dAMED      -5.065   2.582  -0.316  0.00  0.00     0.026 C 
ATOM     14  C   UNN dAMED      -2.803   2.837  -1.679  0.00  0.00     0.026 C 
ENDBRANCH  10  12
ENDBRANCH   1   5
BRANCH   4  15
ATOM     15  C   UNN dAMED       2.074  -1.484  -1.521  0.00  0.00     0.108 A 
ATOM     16  C   UNN dAMED       2.449  -0.215  -1.986  0.00  0.00     0.021 A 
ATOM     17  C   UNN dAMED       3.571   0.451  -1.494  0.00  0.00     0.002 A 
ATOM     18  C   UNN dAMED       4.360  -0.150  -0.521  0.00  0.00     0.002 A 
ATOM     19  C   UNN dAMED       4.035  -1.418  -0.053  0.00  0.00     0.026 A 
ATOM     20  C   UNN dAMED       2.912  -2.073  -0.560  0.00  0.00     0.112 A 
BRANCH  20  21
ATOM     21  O   UNN dAMED       2.640  -3.318  -0.064  0.00  0.00    -0.327 OA
ATOM     22  C   UNN dAMED       3.756  -3.656   0.706  0.00  0.00     0.181 C 
ENDBRANCH  20  21
ENDBRANCH   4  15
TORSDOF 4
