REMARK  0 active torsions:
REMARK  status: ('A' for Active; 'I' for Inactive)
ROOT
ATOM      1  H   UNN dAMED      -0.396   2.407   1.172  0.00  0.00     0.160 HD
ATOM      2  N   UNN dAMED       0.322   1.755   0.854  0.00  0.00    -0.372 N 
ATOM      3  N   UNN dAMED       3.014  -1.137  -0.669  0.00  0.00    -0.338 N 
ATOM      4  H   UNN dAMED       4.022  -1.192  -0.735  0.00  0.00     0.167 HD
ATOM      5  N   UNN dAMED       0.904  -1.800  -0.376  0.00  0.00    -0.223 NA
ATOM      6  C   UNN dAMED       2.681   1.313  -0.071  0.00  0.00     0.069 C 
ATOM      7  C   UNN dAMED       1.523   2.276   0.204  0.00  0.00     0.104 C 
ATOM      8  C   UNN dAMED       2.256  -0.014  -0.600  0.00  0.00     0.056 A 
ATOM      9  C   UNN dAMED       0.971  -0.433  -0.387  0.00  0.00     0.110 A 
ATOM     10  C   UNN dAMED      -0.077   0.487   0.217  0.00  0.00     0.072 C 
ATOM     11  C   UNN dAMED      -1.542   0.109   0.168  0.00  0.00     0.017 A 
ATOM     12  C   UNN dAMED      -2.319   0.469  -0.933  0.00  0.00     0.002 A 
ATOM     13  C   UNN dAMED      -2.123  -0.582   1.232  0.00  0.00     0.002 A 
ATOM     14  C   UNN dAMED      -3.475  -0.913   1.194  0.00  0.00     0.000 A 
ATOM     15  C   UNN dAMED      -3.672   0.138  -0.969  0.00  0.00     0.000 A 
ATOM     16  C   UNN dAMED      -4.249  -0.552   0.093  0.00  0.00     0.000 A 
ATOM     17  C   UNN dAMED       2.146  -2.197  -0.576  0.00  0.00     0.175 A 
ENDROOT
TORSDOF 0
