REMARK  4 active torsions:
REMARK  status: ('A' for Active; 'I' for Inactive)
REMARK    1  A    between atoms: C_1  and  N_2 
REMARK    2  A    between atoms: C_1  and  C_11 
REMARK    3  A    between atoms: N_2  and  C_17 
REMARK    4  A    between atoms: C_4  and  C_17 
ROOT
ATOM      1  C   UNN dAMED      -0.939   1.080   0.658  0.00  0.00     0.188 C 
ATOM      2  N   UNN dAMED      -0.800   2.226   1.312  0.00  0.00    -0.077 NA
ATOM      3  O   UNN dAMED      -1.042   3.288   0.450  0.00  0.00    -0.059 OA
ENDROOT
BRANCH   1   4
ATOM      4  N   UNN dAMED       0.064   0.474   0.114  0.00  0.00    -0.246 NA
BRANCH   4   5
ATOM      5  C   UNN dAMED       1.356   1.073   0.065  0.00  0.00     0.154 C 
BRANCH   5   6
ATOM      6  C   UNN dAMED       2.201   0.898  -1.169  0.00  0.00     0.002 A 
ATOM      7  C   UNN dAMED       1.983   1.723  -2.273  0.00  0.00    -0.002 A 
ATOM      8  C   UNN dAMED       2.578   1.423  -3.496  0.00  0.00    -0.000 A 
ATOM      9  C   UNN dAMED       3.389   0.298  -3.620  0.00  0.00    -0.000 A 
ATOM     10  C   UNN dAMED       3.614  -0.523  -2.517  0.00  0.00    -0.000 A 
ATOM     11  C   UNN dAMED       3.018  -0.225  -1.293  0.00  0.00    -0.002 A 
ENDBRANCH   5   6
ENDBRANCH   4   5
ENDBRANCH   1   4
BRANCH   1  12
ATOM     12  C   UNN dAMED      -2.274   0.483   0.615  0.00  0.00     0.038 A 
ATOM     13  C   UNN dAMED      -2.819  -0.078   1.769  0.00  0.00     0.003 A 
ATOM     14  C   UNN dAMED      -4.068  -0.686   1.700  0.00  0.00     0.000 A 
ATOM     15  C   UNN dAMED      -4.750  -0.751   0.485  0.00  0.00     0.000 A 
ATOM     16  C   UNN dAMED      -4.186  -0.204  -0.667  0.00  0.00     0.000 A 
ATOM     17  C   UNN dAMED      -2.942   0.417  -0.607  0.00  0.00     0.003 A 
ENDBRANCH   1  12
TORSDOF 4
