REMARK  4 active torsions:
REMARK  status: ('A' for Active; 'I' for Inactive)
REMARK    1  A    between atoms: S_2  and  C_5 
REMARK    2  A    between atoms: S_2  and  C_15 
REMARK    3  A    between atoms: C_10  and  S_11 
REMARK    4  A    between atoms: S_11  and  C_19 
ROOT
ATOM      1  O   UNN dAMED      -1.130  -1.790  -1.328  0.00  0.00    -0.265 OA
ATOM      2  C   UNN dAMED      -1.228   0.013   0.188  0.00  0.00     0.204 C 
ATOM      3  C   UNN dAMED      -0.483  -1.026  -0.622  0.00  0.00     0.288 C 
ATOM      4  N   UNN dAMED      -0.929   0.165   1.562  0.00  0.00    -0.279 N 
ATOM      5  N   UNN dAMED       0.890  -1.037  -0.506  0.00  0.00    -0.279 N 
ATOM      6  C   UNN dAMED       0.446   0.230   1.668  0.00  0.00     0.288 C 
ATOM      7  C   UNN dAMED       1.240   0.004   0.394  0.00  0.00     0.204 C 
ATOM      8  O   UNN dAMED       1.052   0.417   2.714  0.00  0.00    -0.265 OA
ATOM      9  C   UNN dAMED      -1.446   0.466   2.837  0.00  0.00     0.135 C 
ATOM     10  C   UNN dAMED       1.352  -2.095  -1.312  0.00  0.00     0.135 C 
ENDROOT
BRANCH   2  11
ATOM     11  S   UNN dAMED      -2.024   1.377  -0.669  0.00  0.00     0.209 S 
ATOM     12  O   UNN dAMED      -3.092   0.861  -1.504  0.00  0.00    -0.220 OA
ATOM     13  O   UNN dAMED      -1.020   2.273  -1.214  0.00  0.00    -0.220 OA
BRANCH  11  14
ATOM     14  C   UNN dAMED      -2.731   2.118   0.803  0.00  0.00     0.129 C 
ATOM     15  C   UNN dAMED      -3.344   1.228   1.892  0.00  0.00     0.018 C 
ENDBRANCH  11  14
ENDBRANCH   2  11
BRANCH   7  16
ATOM     16  S   UNN dAMED       2.650   1.051   0.009  0.00  0.00     0.209 S 
ATOM     17  O   UNN dAMED       3.769   0.722   0.869  0.00  0.00    -0.220 OA
ATOM     18  O   UNN dAMED       2.223   2.422  -0.195  0.00  0.00    -0.220 OA
BRANCH  16  19
ATOM     19  C   UNN dAMED       2.827   0.221  -1.568  0.00  0.00     0.129 C 
ATOM     20  C   UNN dAMED       4.183   0.204  -2.279  0.00  0.00     0.018 C 
ENDBRANCH  16  19
ENDBRANCH   7  16
TORSDOF 4
