REMARK  5 active torsions:
REMARK  status: ('A' for Active; 'I' for Inactive)
REMARK    1  A    between atoms: C_2  and  O_15 
REMARK    2  A    between atoms: C_4  and  C_18 
REMARK    3  A    between atoms: O_15  and  C_16 
REMARK    4  A    between atoms: C_18  and  O_20 
REMARK    5  A    between atoms: O_20  and  C_21 
ROOT
ATOM      1  N   UNN dAMED       1.343   1.234  -1.108  0.00  0.00    -0.240 NA
ATOM      2  C   UNN dAMED       0.089  -0.696   0.414  0.00  0.00     0.097 A 
ATOM      3  C   UNN dAMED       1.472  -0.703   0.322  0.00  0.00     0.049 A 
ATOM      4  C   UNN dAMED       2.043   0.283  -0.452  0.00  0.00     0.146 A 
ATOM      5  C   UNN dAMED      -0.713   0.259  -0.257  0.00  0.00     0.040 A 
ATOM      6  C   UNN dAMED      -2.148   0.329  -0.220  0.00  0.00     0.003 A 
ATOM      7  C   UNN dAMED       0.003   1.212  -1.020  0.00  0.00     0.083 A 
ATOM      8  C   UNN dAMED      -2.959  -0.559   0.511  0.00  0.00     0.000 A 
ATOM      9  C   UNN dAMED      -4.349  -0.461   0.524  0.00  0.00     0.000 A 
ATOM     10  C   UNN dAMED      -0.699   2.179  -1.718  0.00  0.00     0.019 A 
ATOM     11  C   UNN dAMED      -2.814   1.337  -0.951  0.00  0.00     0.000 A 
ATOM     12  C   UNN dAMED      -4.974   0.541  -0.206  0.00  0.00     0.000 A 
ATOM     13  C   UNN dAMED      -2.086   2.251  -1.694  0.00  0.00     0.002 A 
ATOM     14  C   UNN dAMED      -4.206   1.437  -0.941  0.00  0.00     0.000 A 
ENDROOT
BRANCH   4  15
ATOM     15  C   UNN dAMED       3.507   0.339  -0.552  0.00  0.00     0.314 C 
ATOM     16  O   UNN dAMED       4.273  -0.184   0.239  0.00  0.00    -0.257 OA
BRANCH  15  17
ATOM     17  O   UNN dAMED       3.874   1.035  -1.649  0.00  0.00    -0.297 OA
BRANCH  17  18
ATOM     18  C   UNN dAMED       2.689   1.249  -2.358  0.00  0.00     0.152 C 
ATOM     19  C   UNN dAMED       1.833   2.487  -2.072  0.00  0.00     0.035 C 
ENDBRANCH  17  18
ENDBRANCH  15  17
ENDBRANCH   4  15
BRANCH   2  20
ATOM     20  O   UNN dAMED      -0.466  -1.670   1.197  0.00  0.00    -0.331 OA
BRANCH  20  21
ATOM     21  C   UNN dAMED       0.591  -2.522   1.522  0.00  0.00     0.149 C 
ATOM     22  C   UNN dAMED       1.158  -3.473   0.463  0.00  0.00     0.035 C 
ENDBRANCH  20  21
ENDBRANCH   2  20
TORSDOF 5
