REMARK  1 active torsions:
REMARK  status: ('A' for Active; 'I' for Inactive)
REMARK    1  A    between atoms: C_10  and  S_12 
ROOT
ATOM      1  N   UNN dAMED       0.485  -1.979   0.026  0.00  0.00    -0.225 NA
ATOM      2 BR   UNN dAMED      -3.219  -0.243   0.387  0.00  0.00    -0.045 Br
ATOM      3  N   UNN dAMED       0.853   0.387  -0.132  0.00  0.00    -0.209 NA
ATOM      4  N   UNN dAMED      -0.944   1.937   0.006  0.00  0.00    -0.234 NA
ATOM      5  C   UNN dAMED      -1.358  -0.451   0.173  0.00  0.00     0.077 A 
ATOM      6  C   UNN dAMED      -0.474   0.607   0.015  0.00  0.00     0.129 A 
ATOM      7  C   UNN dAMED      -0.831  -1.729   0.171  0.00  0.00     0.070 A 
ATOM      8  C   UNN dAMED      -0.360   2.893  -0.918  0.00  0.00     0.096 A 
ATOM      9  C   UNN dAMED      -0.127   2.986   0.591  0.00  0.00     0.096 A 
ATOM     10  C   UNN dAMED       1.273  -0.897  -0.119  0.00  0.00     0.191 A 
ATOM     11  C   UNN dAMED      -1.769  -2.893   0.339  0.00  0.00     0.053 C 
ENDROOT
BRANCH  10  12
ATOM     12  S   UNN dAMED       3.019  -1.172  -0.308  0.00  0.00    -0.075 SA
ATOM     13  C   UNN dAMED       3.456   0.561  -0.184  0.00  0.00     0.077 C 
ENDBRANCH  10  12
TORSDOF 1
