REMARK  1 active torsions:
REMARK  status: ('A' for Active; 'I' for Inactive)
REMARK    1  A    between atoms: C_15  and  C_21 
ROOT
ATOM      1  O   UNN dAMED      -0.601  -1.377  -1.114  0.00  0.00    -0.267 OA
ATOM      2  H   UNN dAMED      -3.087  -1.426  -1.471  0.00  0.00     0.173 HD
ATOM      3  N   UNN dAMED      -2.787  -0.732  -0.792  0.00  0.00    -0.275 N 
ATOM      4  O   UNN dAMED      -1.701   2.097   1.887  0.00  0.00    -0.267 OA
ATOM      5  N   UNN dAMED      -3.345   1.019   0.671  0.00  0.00    -0.275 N 
ATOM      6  H   UNN dAMED      -4.058   1.615   1.082  0.00  0.00     0.173 HD
ATOM      7  O   UNN dAMED      -4.975  -0.062  -0.542  0.00  0.00    -0.246 OA
ATOM      8  C   UNN dAMED      -3.787   0.065  -0.240  0.00  0.00     0.329 A 
ATOM      9  C   UNN dAMED      -1.424  -0.670  -0.544  0.00  0.00     0.266 A 
ATOM     10  C   UNN dAMED      -1.037   0.344   0.467  0.00  0.00     0.112 A 
ATOM     11  C   UNN dAMED      -2.044   1.242   1.078  0.00  0.00     0.266 A 
ATOM     12  C   UNN dAMED       0.223   0.514   0.899  0.00  0.00     0.010 C 
ENDROOT
BRANCH  12  13
ATOM     13  C   UNN dAMED       1.425  -0.362   0.636  0.00  0.00     0.007 A 
ATOM     14  C   UNN dAMED       2.494   0.043  -0.208  0.00  0.00     0.006 A 
ATOM     15  C   UNN dAMED       3.527  -0.900  -0.176  0.00  0.00     0.029 A 
ATOM     16  C   UNN dAMED       2.651   1.187  -1.017  0.00  0.00     0.001 A 
ATOM     17  S   UNN dAMED       3.150  -2.217   0.879  0.00  0.00    -0.086 SA
ATOM     18  C   UNN dAMED       4.701  -0.732  -0.929  0.00  0.00     0.006 A 
ATOM     19  C   UNN dAMED       1.664  -1.528   1.303  0.00  0.00     0.035 A 
ATOM     20  C   UNN dAMED       4.825   0.411  -1.719  0.00  0.00     0.001 A 
ATOM     21  C   UNN dAMED       3.816   1.360  -1.765  0.00  0.00     0.000 A 
ENDBRANCH  12  13
TORSDOF 1
