REMARK  7 active torsions:
REMARK  status: ('A' for Active; 'I' for Inactive)
REMARK    1  A    between atoms: C_2  and  C_14 
REMARK    2  A    between atoms: C_8  and  O_25 
REMARK    3  A    between atoms: C_10  and  C_20 
REMARK    4  A    between atoms: C_14  and  O_16 
REMARK    5  A    between atoms: O_16  and  C_17 
REMARK    6  A    between atoms: C_20  and  O_22 
REMARK    7  A    between atoms: O_22  and  C_23 
ROOT
ATOM      1  N   UNN dAMED      -3.361  -0.516   0.305  0.00  0.00    -0.254 NA
ATOM      2  C   UNN dAMED      -1.442   0.936   0.165  0.00  0.00     0.077 A 
ATOM      3  C   UNN dAMED      -2.808   0.718   0.305  0.00  0.00     0.064 A 
ATOM      4  C   UNN dAMED      -0.565  -0.144  -0.001  0.00  0.00     0.013 A 
ATOM      5  C   UNN dAMED       0.873   0.051  -0.185  0.00  0.00     0.001 A 
ATOM      6  C   UNN dAMED       1.747   0.001   0.908  0.00  0.00     0.002 A 
ATOM      7  C   UNN dAMED       3.116   0.179   0.732  0.00  0.00     0.024 A 
ATOM      8  C   UNN dAMED       3.608   0.415  -0.545  0.00  0.00     0.094 A 
ATOM      9  C   UNN dAMED       1.399   0.288  -1.462  0.00  0.00     0.002 A 
ATOM     10  C   UNN dAMED      -1.146  -1.418   0.000  0.00  0.00     0.077 A 
ATOM     11  C   UNN dAMED       2.766   0.474  -1.647  0.00  0.00     0.024 A 
ATOM     12  C   UNN dAMED      -2.520  -1.563   0.155  0.00  0.00     0.064 A 
ATOM     13  C   UNN dAMED      -3.719   1.912   0.371  0.00  0.00     0.052 C 
ATOM     14  C   UNN dAMED      -3.100  -2.950   0.133  0.00  0.00     0.052 C 
ENDROOT
BRANCH   2  15
ATOM     15  C   UNN dAMED      -0.977   2.321   0.222  0.00  0.00     0.297 C 
ATOM     16  O   UNN dAMED      -0.627   2.889   1.240  0.00  0.00    -0.259 OA
BRANCH  15  17
ATOM     17  O   UNN dAMED      -1.010   2.837  -1.023  0.00  0.00    -0.298 OA
BRANCH  17  18
ATOM     18  C   UNN dAMED      -1.071   1.731  -1.873  0.00  0.00     0.152 C 
ATOM     19  C   UNN dAMED      -1.248   0.327  -1.288  0.00  0.00     0.035 C 
ENDBRANCH  17  18
ENDBRANCH  15  17
ENDBRANCH   2  15
BRANCH  10  20
ATOM     20  C   UNN dAMED      -0.370  -2.636  -0.231  0.00  0.00     0.297 C 
ATOM     21  O   UNN dAMED      -0.210  -3.151  -1.323  0.00  0.00    -0.259 OA
BRANCH  20  22
ATOM     22  O   UNN dAMED       0.108  -3.084   0.948  0.00  0.00    -0.298 OA
BRANCH  22  23
ATOM     23  C   UNN dAMED       0.190  -1.954   1.766  0.00  0.00     0.152 C 
ATOM     24  C   UNN dAMED       0.704  -2.089   3.204  0.00  0.00     0.035 C 
ENDBRANCH  22  23
ENDBRANCH  20  22
ENDBRANCH  10  20
BRANCH   8  25
ATOM     25  O   UNN dAMED       4.947   0.598  -0.717  0.00  0.00    -0.328 OA
ATOM     26  C   UNN dAMED       5.471   0.661   0.576  0.00  0.00     0.181 C 
ENDBRANCH   8  25
TORSDOF 7
