REMARK  4 active torsions:
REMARK  status: ('A' for Active; 'I' for Inactive)
REMARK       I    between atoms: N_6  and  C_10 
REMARK    1  A    between atoms: C_8  and  C_13 
REMARK    2  A    between atoms: C_9  and  C_19 
REMARK    3  A    between atoms: C_10  and  O_12 
REMARK    4  A    between atoms: O_12  and  C_25 
ROOT
ATOM      1  C   UNN dAMED      -1.277   0.382  -0.199  0.00  0.00     0.112 C 
ATOM      2  C   UNN dAMED      -1.457  -1.022   0.319  0.00  0.00     0.033 C 
ATOM      3  C   UNN dAMED      -0.290  -1.907   0.404  0.00  0.00     0.190 C 
ATOM      4  C   UNN dAMED       0.942  -1.189   0.067  0.00  0.00     0.033 C 
ATOM      5  C   UNN dAMED       0.840   0.217  -0.463  0.00  0.00     0.112 C 
ATOM      6  N   UNN dAMED      -0.094   1.133   0.133  0.00  0.00    -0.191 NA
ATOM      7  O   UNN dAMED      -0.339  -3.081   0.724  0.00  0.00    -0.287 OA
ATOM      8  C   UNN dAMED      -2.689  -1.524   0.419  0.00  0.00     0.000 C 
ATOM      9  C   UNN dAMED       2.126  -1.800   0.134  0.00  0.00     0.000 C 
ATOM     10  C   UNN dAMED      -0.103   2.270  -0.633  0.00  0.00     0.343 C 
ATOM     11  O   UNN dAMED      -1.101   2.804  -1.101  0.00  0.00    -0.245 OA
ENDROOT
BRANCH   8  12
ATOM     12  C   UNN dAMED      -3.895  -0.651   0.183  0.00  0.00    -0.000 A 
ATOM     13  C   UNN dAMED      -4.566  -0.092   1.270  0.00  0.00    -0.000 A 
ATOM     14  C   UNN dAMED      -5.606   0.809   1.058  0.00  0.00    -0.000 A 
ATOM     15  C   UNN dAMED      -5.977   1.149  -0.241  0.00  0.00    -0.000 A 
ATOM     16  C   UNN dAMED      -5.313   0.587  -1.328  0.00  0.00    -0.000 A 
ATOM     17  C   UNN dAMED      -4.273  -0.314  -1.117  0.00  0.00    -0.000 A 
ENDBRANCH   8  12
BRANCH  10  18
ATOM     18  O   UNN dAMED       1.150   2.762  -0.810  0.00  0.00    -0.289 OA
BRANCH  18  19
ATOM     19  C   UNN dAMED       1.999   1.845  -0.186  0.00  0.00     0.153 C 
ATOM     20  C   UNN dAMED       3.496   2.151  -0.066  0.00  0.00     0.035 C 
ENDBRANCH  18  19
ENDBRANCH  10  18
BRANCH   9  21
ATOM     21  C   UNN dAMED       3.388  -1.061  -0.232  0.00  0.00    -0.000 A 
ATOM     22  C   UNN dAMED       3.814   0.023   0.537  0.00  0.00    -0.000 A 
ATOM     23  C   UNN dAMED       4.904   0.785   0.129  0.00  0.00    -0.000 A 
ATOM     24  C   UNN dAMED       5.577   0.459  -1.046  0.00  0.00    -0.000 A 
ATOM     25  C   UNN dAMED       5.162  -0.631  -1.809  0.00  0.00    -0.000 A 
ATOM     26  C   UNN dAMED       4.067  -1.389  -1.405  0.00  0.00    -0.000 A 
ENDBRANCH   9  21
TORSDOF 4
