REMARK  5 active torsions:
REMARK  status: ('A' for Active; 'I' for Inactive)
REMARK    1  A    between atoms: C_6  and  C_7 
REMARK    2  A    between atoms: C_7  and  C_9 
REMARK    3  A    between atoms: C_13  and  C_20 
REMARK    4  A    between atoms: C_14  and  S_15 
REMARK    5  A    between atoms: C_14  and  S_17 
ROOT
ATOM      1  C   UNN dAMED      -1.498  -1.591  -2.165  0.00  0.00     0.080 C 
ATOM      2  C   UNN dAMED      -1.694  -2.911  -1.788  0.00  0.00     0.016 C 
ATOM      3  N   UNN dAMED      -0.552  -1.636  -3.151  0.00  0.00    -0.228 NA
ATOM      4  C   UNN dAMED      -0.744  -3.720  -2.463  0.00  0.00     0.013 C 
ATOM      5  C   UNN dAMED      -0.015  -2.875  -3.263  0.00  0.00     0.041 C 
ATOM      6  C   UNN dAMED       0.474  -0.692  -2.879  0.00  0.00     0.100 C 
ENDROOT
BRANCH   1   7
ATOM      7  C   UNN dAMED      -2.138  -0.380  -1.714  0.00  0.00     0.206 C 
ATOM      8  O   UNN dAMED      -2.018   0.716  -2.254  0.00  0.00    -0.285 OA
BRANCH   7   9
ATOM      9  C   UNN dAMED      -3.001  -0.455  -0.533  0.00  0.00     0.040 A 
ATOM     10  C   UNN dAMED      -4.371  -0.631  -0.712  0.00  0.00     0.003 A 
ATOM     11  C   UNN dAMED      -5.199  -0.651   0.406  0.00  0.00    -0.004 A 
ATOM     12  C   UNN dAMED      -4.654  -0.489   1.679  0.00  0.00    -0.022 A 
ATOM     13  C   UNN dAMED      -3.280  -0.308   1.844  0.00  0.00    -0.004 A 
ATOM     14  C   UNN dAMED      -5.555  -0.500   2.881  0.00  0.00     0.031 C 
ATOM     15  C   UNN dAMED      -2.444  -0.284   0.732  0.00  0.00     0.003 A 
ENDBRANCH   7   9
ENDBRANCH   1   7
BRANCH   5  16
ATOM     16  C   UNN dAMED       1.430  -3.122  -3.645  0.00  0.00     0.026 C 
ATOM     17  C   UNN dAMED       2.534  -2.860  -2.927  0.00  0.00     0.082 C 
BRANCH  17  18
ATOM     18  S   UNN dAMED       2.491  -2.420  -1.251  0.00  0.00    -0.104 SA
ATOM     19  C   UNN dAMED       4.269  -2.300  -1.075  0.00  0.00     0.075 C 
ENDBRANCH  17  18
BRANCH  17  20
ATOM     20  S   UNN dAMED       4.104  -3.032  -3.766  0.00  0.00     0.072 S 
ATOM     21  O   UNN dAMED       3.844  -3.976  -4.902  0.00  0.00    -0.251 OA
ATOM     22  C   UNN dAMED       5.597  -3.152  -2.841  0.00  0.00     0.112 C 
ENDBRANCH  17  20
ENDBRANCH   5  16
TORSDOF 5
