REMARK  4 active torsions:
REMARK  status: ('A' for Active; 'I' for Inactive)
REMARK    1  A    between atoms: C_4  and  C_20 
REMARK    2  A    between atoms: C_10  and  C_19 
REMARK    3  A    between atoms: C_12  and  N_17 
REMARK    4  A    between atoms: C_14  and  C_15 
REMARK       I    between atoms: C_15  and  N_17 
ROOT
ATOM      1  C   UNN dAMED      -0.447   0.066  -2.011  0.00  0.00     0.002 A 
ATOM      2  C   UNN dAMED      -1.830  -0.056  -2.124  0.00  0.00     0.020 A 
ATOM      3  C   UNN dAMED       0.147   0.138  -0.754  0.00  0.00     0.000 A 
ATOM      4  C   UNN dAMED      -0.638   0.109   0.396  0.00  0.00     0.002 A 
ATOM      5  C   UNN dAMED      -2.622  -0.094  -0.976  0.00  0.00     0.093 A 
ATOM      6  C   UNN dAMED      -2.023  -0.003   0.288  0.00  0.00     0.020 A 
ENDROOT
BRANCH   3   7
ATOM      7  C   UNN dAMED       1.635   0.302  -0.651  0.00  0.00     0.000 C 
ATOM      8  C   UNN dAMED       2.247   0.233   0.529  0.00  0.00     0.000 C 
BRANCH   8   9
ATOM      9  C   UNN dAMED       3.724   0.499   0.615  0.00  0.00     0.000 A 
ATOM     10  C   UNN dAMED       4.572  -0.454   1.176  0.00  0.00     0.000 A 
ATOM     11  C   UNN dAMED       5.920  -0.158   1.365  0.00  0.00     0.000 A 
ATOM     12  C   UNN dAMED       6.418   1.090   0.996  0.00  0.00     0.000 A 
ATOM     13  C   UNN dAMED       5.572   2.038   0.428  0.00  0.00     0.000 A 
ATOM     14  C   UNN dAMED       4.224   1.743   0.238  0.00  0.00     0.000 A 
ENDBRANCH   8   9
ENDBRANCH   3   7
BRANCH   5  15
ATOM     15  N   UNN dAMED      -4.017  -0.206  -1.131  0.00  0.00    -0.150 N 
ATOM     16  C   UNN dAMED      -4.819   0.914  -0.954  0.00  0.00     0.299 C 
ATOM     17  O   UNN dAMED      -6.030   0.959  -1.153  0.00  0.00    -0.267 OA
ATOM     18  O   UNN dAMED      -4.540  -1.377  -0.594  0.00  0.00    -0.077 OA
BRANCH  16  19
ATOM     19  C   UNN dAMED      -4.110   2.235  -0.773  0.00  0.00     0.283 C 
ATOM     20  F   UNN dAMED      -4.814   3.361  -0.613  0.00  0.00    -0.224 F 
ENDBRANCH  16  19
ENDBRANCH   5  15
TORSDOF 4
