REMARK  5 active torsions:
REMARK  status: ('A' for Active; 'I' for Inactive)
REMARK    1  A    between atoms: C_1  and  O_7 
REMARK    2  A    between atoms: C_3  and  C_12 
REMARK    3  A    between atoms: O_7  and  C_8 
REMARK    4  A    between atoms: C_8  and  C_9 
REMARK    5  A    between atoms: C_12  and  C_13 
ROOT
ATOM      1  C   UNN dAMED      -0.053  -0.281   0.251  0.00  0.00     0.091 A 
ATOM      2  C   UNN dAMED      -0.441  -1.606   0.111  0.00  0.00     0.024 A 
ATOM      3  C   UNN dAMED       1.287   0.082   0.183  0.00  0.00     0.004 A 
ATOM      4  C   UNN dAMED       2.256  -0.897  -0.028  0.00  0.00    -0.002 A 
ATOM      5  C   UNN dAMED       0.532  -2.583  -0.100  0.00  0.00     0.002 A 
ATOM      6  C   UNN dAMED       1.879  -2.230  -0.170  0.00  0.00    -0.000 A 
ENDROOT
BRANCH   1   7
ATOM      7  O   UNN dAMED      -1.003   0.680   0.429  0.00  0.00    -0.320 OA
BRANCH   7   8
ATOM      8  C   UNN dAMED      -2.118   0.017   0.957  0.00  0.00     0.246 C 
BRANCH   8   9
ATOM      9  C   UNN dAMED      -3.509   0.576   0.773  0.00  0.00     0.217 C 
ATOM     10  O   UNN dAMED      -4.379  -0.227   0.322  0.00  0.00    -0.645 OA
ATOM     11  O   UNN dAMED      -3.696   1.780   1.124  0.00  0.00    -0.645 OA
ENDBRANCH   8   9
ENDBRANCH   7   8
ENDBRANCH   1   7
BRANCH   3  12
ATOM     12  C   UNN dAMED       1.686   1.527   0.243  0.00  0.00     0.054 C 
BRANCH  12  13
ATOM     13  C   UNN dAMED       2.106   2.239  -1.045  0.00  0.00    -0.021 C 
ATOM     14  C   UNN dAMED       2.600   1.529  -2.058  0.00  0.00    -0.005 C 
ENDBRANCH  12  13
ENDBRANCH   3  12
TORSDOF 5
