adp.mol
  ChemDraw06121512512D

 94 97  0  0  0  0  0  0  0  0999 V2000
    2.8166   -0.8250    0.0000 C   0  0  0  0  0  0  0  0  0  0  0  0
    2.8166   -1.6500    0.0000 C   0  0  0  0  0  0  0  0  0  0  0  0
    3.5310   -2.0625    0.0000 C   0  0  0  0  0  0  0  0  0  0  0  0
    4.2454   -1.6500    0.0000 C   0  0  0  0  0  0  0  0  0  0  0  0
    4.2454   -0.8250    0.0000 C   0  0  0  0  0  0  0  0  0  0  0  0
    3.5310   -0.4125    0.0000 O   0  0  0  0  0  0  0  0  0  0  0  0
    2.1023   -0.4125    0.0000 C   0  0  0  0  0  0  0  0  0  0  0  0
    1.3875   -0.8250    0.0000 O   0  0  0  0  0  0  0  0  0  0  0  0
    0.6731   -0.4125    0.0000 C   0  0  0  0  0  0  0  0  0  0  0  0
    0.6731    0.4125    0.0000 O   0  0  0  0  0  0  0  0  0  0  0  0
   -0.0412    0.8250    0.0000 C   0  0  0  0  0  0  0  0  0  0  0  0
   -0.7556    0.4125    0.0000 C   0  0  0  0  0  0  0  0  0  0  0  0
   -0.7556   -0.4125    0.0000 C   0  0  0  0  0  0  0  0  0  0  0  0
   -0.0412   -0.8250    0.0000 C   0  0  0  0  0  0  0  0  0  0  0  0
   -0.0412    1.6500    0.0000 C   0  0  0  0  0  0  0  0  0  0  0  0
   -0.7556    2.0625    0.0000 O   0  0  0  0  0  0  0  0  0  0  0  0
   -0.7556    2.8875    0.0000 C   0  0  0  0  0  0  0  0  0  0  0  0
   -0.0412    3.3000    0.0000 O   0  0  0  0  0  0  0  0  0  0  0  0
   -0.0412    4.1250    0.0000 C   0  0  0  0  0  0  0  0  0  0  0  0
   -0.7556    4.5375    0.0000 C   0  0  0  0  0  0  0  0  0  0  0  0
   -1.4700    4.1250    0.0000 C   0  0  0  0  0  0  0  0  0  0  0  0
   -1.4700    3.3000    0.0000 C   0  0  0  0  0  0  0  0  0  0  0  0
   -2.1848    4.5375    0.0000 O   0  0  0  0  0  0  0  0  0  0  0  0
   -2.8991    4.1250    0.0000 C   0  0  0  0  0  0  0  0  0  0  0  0
   -3.6135    4.5375    0.0000 O   0  0  0  0  0  0  0  0  0  0  0  0
   -4.3279    4.1250    0.0000 C   0  0  0  0  0  0  0  0  0  0  0  0
   -4.3279    3.3000    0.0000 C   0  0  0  0  0  0  0  0  0  0  0  0
   -3.6135    2.8875    0.0000 C   0  0  0  0  0  0  0  0  0  0  0  0
   -2.8991    3.3000    0.0000 C   0  0  0  0  0  0  0  0  0  0  0  0
    4.9602   -0.4125    0.0000 O   0  0  0  0  0  0  0  0  0  0  0  0
    4.9602   -2.0625    0.0000 N   0  0  0  0  0  0  0  0  0  0  0  0
    3.5310   -2.8875    0.0000 O   0  0  0  0  0  0  0  0  0  0  0  0
    2.1023   -2.0625    0.0000 O   0  0  0  0  0  0  0  0  0  0  0  0
   -0.0412   -1.6500    0.0000 N   0  0  0  0  0  0  0  0  0  0  0  0
   -1.4700   -0.8250    0.0000 O   0  0  0  0  0  0  0  0  0  0  0  0
   -1.4700    0.8250    0.0000 O   0  0  0  0  0  0  0  0  0  0  0  0
   -0.7556    5.3625    0.0000 O   0  0  0  0  0  0  0  0  0  0  0  0
    0.6731    4.5375    0.0000 C   0  0  0  0  0  0  0  0  0  0  0  0
   -3.6135    2.0625    0.0000 O   0  0  0  0  0  0  0  0  0  0  0  0
   -5.0427    2.8875    0.0000 O   0  0  0  0  0  0  0  0  0  0  0  0
   -5.0427    4.5375    0.0000 C   0  0  0  0  0  0  0  0  0  0  0  0
    4.9602    0.4125    0.0000 P   0  0  0  0  0  0  0  0  0  0  0  0
    4.2454    0.8250    0.0000 O   0  5  0  0  0  0  0  0  0  0  0  0
    5.5435    0.9958    0.0000 O   0  0  0  0  0  0  0  0  0  0  0  0
   -2.1848    0.4125    0.0000 P   0  0  0  0  0  0  0  0  0  0  0  0
   -2.1848   -0.4125    0.0000 O   0  5  0  0  0  0  0  0  0  0  0  0
    1.3875    4.1250    0.0000 C   0  0  0  0  0  0  0  0  0  0  0  0
    2.1023    4.5375    0.0000 O   0  0  0  0  0  0  0  0  0  0  0  0
    0.6731    5.3625    0.0000 O   0  0  0  0  0  0  0  0  0  0  0  0
   -1.4700    2.4750    0.0000 C   0  0  0  0  0  0  0  0  0  0  0  0
   -2.1848    2.8875    0.0000 O   0  5  0  0  0  0  0  0  0  0  0  0
   -1.4700    1.6500    0.0000 O   0  0  0  0  0  0  0  0  0  0  0  0
   -5.0427    5.3625    0.0000 C   0  0  0  0  0  0  0  0  0  0  0  0
   -2.8991    4.9500    0.0000 C   0  0  0  0  0  0  0  0  0  0  0  0
   -2.1848    5.3625    0.0000 O   0  5  0  0  0  0  0  0  0  0  0  0
   -3.6135    5.3625    0.0000 O   0  0  0  0  0  0  0  0  0  0  0  0
   -5.7570    5.7750    0.0000 O   0  0  0  0  0  0  0  0  0  0  0  0
   -5.7570    4.1250    0.0000 O   0  0  0  0  0  0  0  0  0  0  0  0
    5.7570    0.6260    0.0000 O   0  5  0  0  0  0  0  0  0  0  0  0
   -2.9816    0.6260    0.0000 O   0  5  0  0  0  0  0  0  0  0  0  0
   -2.7681    0.9958    0.0000 O   0  0  0  0  0  0  0  0  0  0  0  0
    4.9602   -2.8875    0.0000 C   0  0  0  0  0  0  0  0  0  0  0  0
    4.2454   -3.3000    0.0000 C   0  0  0  0  0  0  0  0  0  0  0  0
    4.2454   -4.1250    0.0000 C   0  0  0  0  0  0  0  0  0  0  0  0
    3.5310   -4.5375    0.0000 C   0  0  0  0  0  0  0  0  0  0  0  0
    5.6745   -3.3000    0.0000 O   0  0  0  0  0  0  0  0  0  0  0  0
    4.9602   -4.5375    0.0000 O   0  0  0  0  0  0  0  0  0  0  0  0
    2.8166   -3.3000    0.0000 C   0  0  0  0  0  0  0  0  0  0  0  0
    2.8166   -4.1250    0.0000 C   0  0  0  0  0  0  0  0  0  0  0  0
    2.1023   -4.5375    0.0000 C   0  0  0  0  0  0  0  0  0  0  0  0
    2.1023   -5.3625    0.0000 C   0  0  0  0  0  0  0  0  0  0  0  0
   -0.0412   -2.4750    0.0000 C   0  0  0  0  0  0  0  0  0  0  0  0
   -0.7556   -2.8875    0.0000 C   0  0  0  0  0  0  0  0  0  0  0  0
   -0.7556   -3.7125    0.0000 C   0  0  0  0  0  0  0  0  0  0  0  0
   -1.4700   -4.1250    0.0000 C   0  0  0  0  0  0  0  0  0  0  0  0
   -2.4551   -1.2399    0.0000 C   0  0  0  0  0  0  0  0  0  0  0  0
   -2.4551   -2.0649    0.0000 C   0  0  0  0  0  0  0  0  0  0  0  0
   -3.1699   -2.4774    0.0000 C   0  0  0  0  0  0  0  0  0  0  0  0
   -3.1699   -3.3024    0.0000 C   0  0  0  0  0  0  0  0  0  0  0  0
   -3.1428   -0.7838    0.0000 O   0  0  0  0  0  0  0  0  0  0  0  0
   -3.8843   -2.0649    0.0000 O   0  0  0  0  0  0  0  0  0  0  0  0
    0.6731   -2.8875    0.0000 O   0  0  0  0  0  0  0  0  0  0  0  0
   -0.0412   -4.1250    0.0000 O   0  0  0  0  0  0  0  0  0  0  0  0
    2.1023   -2.8875    0.0000 O   0  0  0  0  0  0  0  0  0  0  0  0
    1.3875   -4.1250    0.0000 O   0  0  0  0  0  0  0  0  0  0  0  0
    4.9602   -5.3625    0.0000 C   0  0  0  0  0  0  0  0  0  0  0  0
    4.2454   -5.7750    0.0000 C   0  0  0  0  0  0  0  0  0  0  0  0
   -4.5986   -2.4774    0.0000 C   0  0  0  0  0  0  0  0  0  0  0  0
   -4.5986   -3.3024    0.0000 C   0  0  0  0  0  0  0  0  0  0  0  0
   -0.0412   -4.9500    0.0000 C   0  0  0  0  0  0  0  0  0  0  0  0
   -0.7556   -5.3625    0.0000 C   0  0  0  0  0  0  0  0  0  0  0  0
   -5.3130   -2.0649    0.0000 O   0  0  0  0  0  0  0  0  0  0  0  0
    0.6731   -5.3625    0.0000 O   0  0  0  0  0  0  0  0  0  0  0  0
    5.6745   -5.7750    0.0000 O   0  0  0  0  0  0  0  0  0  0  0  0
  1  2  1  0      
  2  3  1  0      
  3  4  1  0      
  4  5  1  0      
  5  6  1  0      
  6  1  1  0      
  1  7  1  1      
  7  8  1  0      
  9  8  1  1      
  9 10  1  0      
 10 11  1  0      
 11 12  1  0      
 12 13  1  0      
 13 14  1  0      
 14  9  1  0      
 11 15  1  1      
 15 16  1  0      
 17 16  1  6      
 17 18  1  0      
 18 19  1  0      
 19 20  1  0      
 20 21  1  0      
 21 22  1  0      
 22 17  1  0      
 21 23  1  1      
 24 23  1  6      
 24 25  1  0      
 25 26  1  0      
 26 27  1  0      
 27 28  1  0      
 28 29  1  0      
 29 24  1  0      
  5 30  1  6      
  4 31  1  6      
  3 32  1  1      
  2 33  1  6      
 14 34  1  6      
 13 35  1  1      
 12 36  1  6      
 20 37  1  1      
 19 38  1  1      
 28 39  1  1      
 27 40  1  1      
 26 41  1  1      
 30 42  1  0      
 42 43  1  0      
 42 44  2  0      
 36 45  1  0      
 45 46  1  0      
 38 47  1  0      
 47 48  1  0      
 38 49  1  6      
 17 50  1  1      
 50 51  1  0      
 50 52  2  0      
 41 53  1  0      
 24 54  1  1      
 54 55  1  0      
 54 56  2  0      
 53 57  1  0      
 41 58  1  6      
 42 59  1  0      
 45 60  1  0      
 45 61  2  0      
 31 62  1  0      
 62 63  1  0      
 63 64  1  0      
 64 65  1  0      
 62 66  2  0      
 64 67  1  6      
 32 68  1  0      
 68 69  1  0      
 69 70  1  0      
 70 71  1  0      
 34 72  1  0      
 72 73  1  0      
 73 74  1  0      
 74 75  1  0      
 35 76  1  0      
 76 77  1  0      
 77 78  1  0      
 78 79  1  0      
 76 80  2  0      
 78 81  1  1      
 72 82  2  0      
 74 83  1  6      
 68 84  2  0      
 70 85  1  1      
 67 86  1  0      
 86 87  1  0      
 81 88  1  0      
 88 89  1  0      
 83 90  1  0      
 90 91  1  0      
 88 92  2  0      
 90 93  2  0      
 86 94  2  0      
M  CHG  6  43  -1  46  -1  51  -1  55  -1  59  -1  60  -1
M  END
