c1sla.mol
  ChemDraw06121512512D

108111  0  0  0  0  0  0  0  0999 V2000
    2.8166   -0.2062    0.0000 C   0  0  0  0  0  0  0  0  0  0  0  0
    2.8166   -1.0312    0.0000 C   0  0  0  0  0  0  0  0  0  0  0  0
    3.5310   -1.4437    0.0000 C   0  0  0  0  0  0  0  0  0  0  0  0
    4.2454   -1.0312    0.0000 C   0  0  0  0  0  0  0  0  0  0  0  0
    4.2454   -0.2062    0.0000 C   0  0  0  0  0  0  0  0  0  0  0  0
    3.5310    0.2062    0.0000 O   0  0  0  0  0  0  0  0  0  0  0  0
    2.1023    0.2062    0.0000 C   0  0  0  0  0  0  0  0  0  0  0  0
    1.3875   -0.2062    0.0000 O   0  0  0  0  0  0  0  0  0  0  0  0
    0.6731    0.2062    0.0000 C   0  0  0  0  0  0  0  0  0  0  0  0
    0.6731    1.0312    0.0000 O   0  0  0  0  0  0  0  0  0  0  0  0
   -0.0412    1.4437    0.0000 C   0  0  0  0  0  0  0  0  0  0  0  0
   -0.7556    1.0312    0.0000 C   0  0  0  0  0  0  0  0  0  0  0  0
   -0.7556    0.2062    0.0000 C   0  0  0  0  0  0  0  0  0  0  0  0
   -0.0412   -0.2062    0.0000 C   0  0  0  0  0  0  0  0  0  0  0  0
   -0.0412    2.2687    0.0000 C   0  0  0  0  0  0  0  0  0  0  0  0
   -0.7556    2.6812    0.0000 O   0  0  0  0  0  0  0  0  0  0  0  0
   -0.7556    3.5062    0.0000 C   0  0  0  0  0  0  0  0  0  0  0  0
   -0.0412    3.9187    0.0000 O   0  0  0  0  0  0  0  0  0  0  0  0
   -0.0412    4.7437    0.0000 C   0  0  0  0  0  0  0  0  0  0  0  0
   -0.7556    5.1562    0.0000 C   0  0  0  0  0  0  0  0  0  0  0  0
   -1.4700    4.7437    0.0000 C   0  0  0  0  0  0  0  0  0  0  0  0
   -1.4700    3.9187    0.0000 C   0  0  0  0  0  0  0  0  0  0  0  0
   -2.1848    5.1562    0.0000 O   0  0  0  0  0  0  0  0  0  0  0  0
   -2.8991    4.7437    0.0000 C   0  0  0  0  0  0  0  0  0  0  0  0
   -3.6135    5.1562    0.0000 O   0  0  0  0  0  0  0  0  0  0  0  0
   -4.3279    4.7437    0.0000 C   0  0  0  0  0  0  0  0  0  0  0  0
   -4.3279    3.9187    0.0000 C   0  0  0  0  0  0  0  0  0  0  0  0
   -3.6135    3.5062    0.0000 C   0  0  0  0  0  0  0  0  0  0  0  0
   -2.8991    3.9187    0.0000 C   0  0  0  0  0  0  0  0  0  0  0  0
    4.9602    0.2062    0.0000 O   0  0  0  0  0  0  0  0  0  0  0  0
    4.9602   -1.4437    0.0000 N   0  0  0  0  0  0  0  0  0  0  0  0
    3.5310   -2.2687    0.0000 O   0  0  0  0  0  0  0  0  0  0  0  0
    2.1023   -1.4437    0.0000 O   0  0  0  0  0  0  0  0  0  0  0  0
   -0.0412   -1.0312    0.0000 N   0  0  0  0  0  0  0  0  0  0  0  0
   -1.4700   -0.2062    0.0000 O   0  0  0  0  0  0  0  0  0  0  0  0
   -1.4700    1.4437    0.0000 O   0  0  0  0  0  0  0  0  0  0  0  0
   -0.7556    5.9812    0.0000 O   0  0  0  0  0  0  0  0  0  0  0  0
    0.6731    5.1562    0.0000 C   0  0  0  0  0  0  0  0  0  0  0  0
   -3.6135    2.6812    0.0000 O   0  0  0  0  0  0  0  0  0  0  0  0
   -5.0427    3.5062    0.0000 O   0  0  0  0  0  0  0  0  0  0  0  0
   -5.0427    5.1562    0.0000 C   0  0  0  0  0  0  0  0  0  0  0  0
    4.9602    1.0312    0.0000 P   0  0  0  0  0  0  0  0  0  0  0  0
    4.2454    1.4437    0.0000 O   0  5  0  0  0  0  0  0  0  0  0  0
    5.5435    1.6146    0.0000 O   0  0  0  0  0  0  0  0  0  0  0  0
   -2.1848    1.0312    0.0000 P   0  0  0  0  0  0  0  0  0  0  0  0
   -2.1848    0.2062    0.0000 O   0  5  0  0  0  0  0  0  0  0  0  0
    1.3875    4.7437    0.0000 C   0  0  0  0  0  0  0  0  0  0  0  0
    2.1023    5.1562    0.0000 O   0  0  0  0  0  0  0  0  0  0  0  0
    0.6731    5.9812    0.0000 O   0  0  0  0  0  0  0  0  0  0  0  0
   -1.4700    3.0937    0.0000 C   0  0  0  0  0  0  0  0  0  0  0  0
   -2.1848    3.5062    0.0000 O   0  5  0  0  0  0  0  0  0  0  0  0
   -1.4700    2.2687    0.0000 O   0  0  0  0  0  0  0  0  0  0  0  0
   -5.0427    5.9812    0.0000 C   0  0  0  0  0  0  0  0  0  0  0  0
   -2.8991    5.5687    0.0000 C   0  0  0  0  0  0  0  0  0  0  0  0
   -2.1848    5.9812    0.0000 O   0  5  0  0  0  0  0  0  0  0  0  0
   -3.6135    5.9812    0.0000 O   0  0  0  0  0  0  0  0  0  0  0  0
   -5.7570    6.3937    0.0000 O   0  0  0  0  0  0  0  0  0  0  0  0
   -5.7570    4.7437    0.0000 O   0  0  0  0  0  0  0  0  0  0  0  0
    5.7570    1.2448    0.0000 O   0  5  0  0  0  0  0  0  0  0  0  0
   -2.9816    1.2448    0.0000 O   0  5  0  0  0  0  0  0  0  0  0  0
   -2.7681    1.6146    0.0000 O   0  0  0  0  0  0  0  0  0  0  0  0
    4.9602   -2.2687    0.0000 C   0  0  0  0  0  0  0  0  0  0  0  0
    4.2454   -2.6812    0.0000 C   0  0  0  0  0  0  0  0  0  0  0  0
    4.2454   -3.5062    0.0000 C   0  0  0  0  0  0  0  0  0  0  0  0
    3.5310   -3.9187    0.0000 C   0  0  0  0  0  0  0  0  0  0  0  0
    3.5310   -4.7437    0.0000 C   0  0  0  0  0  0  0  0  0  0  0  0
    2.8166   -5.1562    0.0000 C   0  0  0  0  0  0  0  0  0  0  0  0
    5.6745   -2.6812    0.0000 O   0  0  0  0  0  0  0  0  0  0  0  0
    4.9602   -3.9187    0.0000 O   0  0  0  0  0  0  0  0  0  0  0  0
    2.8166   -2.6812    0.0000 C   0  0  0  0  0  0  0  0  0  0  0  0
    2.8166   -3.5062    0.0000 C   0  0  0  0  0  0  0  0  0  0  0  0
    2.1023   -3.9187    0.0000 C   0  0  0  0  0  0  0  0  0  0  0  0
    2.1023   -4.7437    0.0000 C   0  0  0  0  0  0  0  0  0  0  0  0
    1.3875   -5.1562    0.0000 C   0  0  0  0  0  0  0  0  0  0  0  0
   -0.0412   -1.8562    0.0000 C   0  0  0  0  0  0  0  0  0  0  0  0
   -0.7556   -2.2687    0.0000 C   0  0  0  0  0  0  0  0  0  0  0  0
   -0.7556   -3.0937    0.0000 C   0  0  0  0  0  0  0  0  0  0  0  0
   -1.4700   -3.5062    0.0000 C   0  0  0  0  0  0  0  0  0  0  0  0
   -1.4700   -4.3312    0.0000 C   0  0  0  0  0  0  0  0  0  0  0  0
   -2.1848   -4.7437    0.0000 C   0  0  0  0  0  0  0  0  0  0  0  0
   -2.4551   -0.6212    0.0000 C   0  0  0  0  0  0  0  0  0  0  0  0
   -2.4551   -1.4462    0.0000 C   0  0  0  0  0  0  0  0  0  0  0  0
   -3.1699   -1.8587    0.0000 C   0  0  0  0  0  0  0  0  0  0  0  0
   -3.1699   -2.6837    0.0000 C   0  0  0  0  0  0  0  0  0  0  0  0
   -3.8843   -3.0962    0.0000 C   0  0  0  0  0  0  0  0  0  0  0  0
   -3.8843   -3.9212    0.0000 C   0  0  0  0  0  0  0  0  0  0  0  0
   -3.1428   -0.1650    0.0000 O   0  0  0  0  0  0  0  0  0  0  0  0
   -3.8843   -1.4462    0.0000 O   0  0  0  0  0  0  0  0  0  0  0  0
    0.6731   -2.2687    0.0000 O   0  0  0  0  0  0  0  0  0  0  0  0
   -0.0412   -3.5062    0.0000 O   0  0  0  0  0  0  0  0  0  0  0  0
    2.1023   -2.2687    0.0000 O   0  0  0  0  0  0  0  0  0  0  0  0
    1.3875   -3.5062    0.0000 O   0  0  0  0  0  0  0  0  0  0  0  0
    4.9602   -4.7437    0.0000 C   0  0  0  0  0  0  0  0  0  0  0  0
    4.2454   -5.1562    0.0000 C   0  0  0  0  0  0  0  0  0  0  0  0
    4.2454   -5.9812    0.0000 C   0  0  0  0  0  0  0  0  0  0  0  0
   -4.5986   -1.8587    0.0000 C   0  0  0  0  0  0  0  0  0  0  0  0
   -4.5986   -2.6837    0.0000 C   0  0  0  0  0  0  0  0  0  0  0  0
   -5.3130   -3.0962    0.0000 C   0  0  0  0  0  0  0  0  0  0  0  0
   -5.3130   -3.9212    0.0000 C   0  0  0  0  0  0  0  0  0  0  0  0
   -0.0412   -4.3312    0.0000 C   0  0  0  0  0  0  0  0  0  0  0  0
   -0.7556   -4.7437    0.0000 C   0  0  0  0  0  0  0  0  0  0  0  0
   -0.7556   -5.5687    0.0000 C   0  0  0  0  0  0  0  0  0  0  0  0
   -5.3130   -1.4462    0.0000 O   0  0  0  0  0  0  0  0  0  0  0  0
    0.6731   -4.7437    0.0000 O   0  0  0  0  0  0  0  0  0  0  0  0
    5.6745   -5.1562    0.0000 O   0  0  0  0  0  0  0  0  0  0  0  0
   -1.4704   -5.9812    0.0000 C   0  0  0  0  0  0  0  0  0  0  0  0
    1.3870   -5.9812    0.0000 C   0  0  0  0  0  0  0  0  0  0  0  0
    3.5305   -6.3937    0.0000 C   0  0  0  0  0  0  0  0  0  0  0  0
  1  2  1  0      
  2  3  1  0      
  3  4  1  0      
  4  5  1  0      
  5  6  1  0      
  6  1  1  0      
  1  7  1  1      
  7  8  1  0      
  9  8  1  1      
  9 10  1  0      
 10 11  1  0      
 11 12  1  0      
 12 13  1  0      
 13 14  1  0      
 14  9  1  0      
 11 15  1  1      
 15 16  1  0      
 17 16  1  6      
 17 18  1  0      
 18 19  1  0      
 19 20  1  0      
 20 21  1  0      
 21 22  1  0      
 22 17  1  0      
 21 23  1  1      
 24 23  1  6      
 24 25  1  0      
 25 26  1  0      
 26 27  1  0      
 27 28  1  0      
 28 29  1  0      
 29 24  1  0      
  5 30  1  6      
  4 31  1  6      
  3 32  1  1      
  2 33  1  6      
 14 34  1  6      
 13 35  1  1      
 12 36  1  6      
 20 37  1  1      
 19 38  1  1      
 28 39  1  1      
 27 40  1  1      
 26 41  1  1      
 30 42  1  0      
 42 43  1  0      
 42 44  2  0      
 36 45  1  0      
 45 46  1  0      
 38 47  1  0      
 47 48  1  0      
 38 49  1  6      
 17 50  1  1      
 50 51  1  0      
 50 52  2  0      
 41 53  1  0      
 24 54  1  1      
 54 55  1  0      
 54 56  2  0      
 53 57  1  0      
 41 58  1  6      
 42 59  1  0      
 45 60  1  0      
 45 61  2  0      
 31 62  1  0      
 62 63  1  0      
 63 64  1  0      
 64 65  1  0      
 65 66  1  0      
 66 67  1  0      
 62 68  2  0      
 64 69  1  6      
 32 70  1  0      
 70 71  1  0      
 71 72  1  0      
 72 73  1  0      
 73 74  1  0      
 34 75  1  0      
 75 76  1  0      
 76 77  1  0      
 77 78  1  0      
 78 79  1  0      
 79 80  1  0      
 35 81  1  0      
 81 82  1  0      
 82 83  1  0      
 83 84  1  0      
 84 85  1  0      
 85 86  1  0      
 81 87  2  0      
 83 88  1  1      
 75 89  2  0      
 77 90  1  6      
 70 91  2  0      
 72 92  1  1      
 69 93  1  0      
 93 94  1  0      
 94 95  1  0      
 88 96  1  0      
 96 97  1  0      
 97 98  1  0      
 98 99  1  0      
 90100  1  0      
100101  1  0      
101102  1  0      
 96103  2  0      
100104  2  0      
 93105  2  0      
102106  1  0      
 74107  1  0      
 95108  1  0      
M  CHG  6  43  -1  46  -1  51  -1  55  -1  59  -1  60  -1
M  END
