n2odla.mol
  ChemDraw06121512502D

 61 64  0  0  0  0  0  0  0  0999 V2000
    2.8166   -2.2687    0.0000 C   0  0  0  0  0  0  0  0  0  0  0  0
    2.8166   -3.0937    0.0000 C   0  0  0  0  0  0  0  0  0  0  0  0
    3.5310   -3.5062    0.0000 C   0  0  0  0  0  0  0  0  0  0  0  0
    4.2454   -3.0937    0.0000 C   0  0  0  0  0  0  0  0  0  0  0  0
    4.2454   -2.2687    0.0000 C   0  0  0  0  0  0  0  0  0  0  0  0
    3.5310   -1.8562    0.0000 O   0  0  0  0  0  0  0  0  0  0  0  0
    2.1023   -1.8562    0.0000 C   0  0  0  0  0  0  0  0  0  0  0  0
    1.3875   -2.2687    0.0000 O   0  0  0  0  0  0  0  0  0  0  0  0
    0.6731   -1.8562    0.0000 C   0  0  0  0  0  0  0  0  0  0  0  0
    0.6731   -1.0312    0.0000 O   0  0  0  0  0  0  0  0  0  0  0  0
   -0.0412   -0.6187    0.0000 C   0  0  0  0  0  0  0  0  0  0  0  0
   -0.7556   -1.0312    0.0000 C   0  0  0  0  0  0  0  0  0  0  0  0
   -0.7556   -1.8562    0.0000 C   0  0  0  0  0  0  0  0  0  0  0  0
   -0.0412   -2.2687    0.0000 C   0  0  0  0  0  0  0  0  0  0  0  0
   -0.0412    0.2062    0.0000 C   0  0  0  0  0  0  0  0  0  0  0  0
   -0.7556    0.6187    0.0000 O   0  0  0  0  0  0  0  0  0  0  0  0
   -0.7556    1.4437    0.0000 C   0  0  0  0  0  0  0  0  0  0  0  0
   -0.0412    1.8562    0.0000 O   0  0  0  0  0  0  0  0  0  0  0  0
   -0.0412    2.6812    0.0000 C   0  0  0  0  0  0  0  0  0  0  0  0
   -0.7556    3.0937    0.0000 C   0  0  0  0  0  0  0  0  0  0  0  0
   -1.4700    2.6812    0.0000 C   0  0  0  0  0  0  0  0  0  0  0  0
   -1.4700    1.8562    0.0000 C   0  0  0  0  0  0  0  0  0  0  0  0
   -2.1848    3.0937    0.0000 O   0  0  0  0  0  0  0  0  0  0  0  0
   -2.8991    2.6812    0.0000 C   0  0  0  0  0  0  0  0  0  0  0  0
   -3.6135    3.0937    0.0000 O   0  0  0  0  0  0  0  0  0  0  0  0
   -4.3279    2.6812    0.0000 C   0  0  0  0  0  0  0  0  0  0  0  0
   -4.3279    1.8562    0.0000 C   0  0  0  0  0  0  0  0  0  0  0  0
   -3.6135    1.4437    0.0000 C   0  0  0  0  0  0  0  0  0  0  0  0
   -2.8991    1.8562    0.0000 C   0  0  0  0  0  0  0  0  0  0  0  0
    4.9602   -1.8562    0.0000 O   0  0  0  0  0  0  0  0  0  0  0  0
    4.9602   -3.5062    0.0000 N   0  3  0  0  0  0  0  0  0  0  0  0
    3.5310   -4.3312    0.0000 O   0  0  0  0  0  0  0  0  0  0  0  0
    2.1023   -3.5062    0.0000 O   0  0  0  0  0  0  0  0  0  0  0  0
   -0.0412   -3.0937    0.0000 N   0  3  0  0  0  0  0  0  0  0  0  0
   -1.4700   -2.2687    0.0000 O   0  0  0  0  0  0  0  0  0  0  0  0
   -1.4700   -0.6187    0.0000 O   0  0  0  0  0  0  0  0  0  0  0  0
   -0.7556    3.9187    0.0000 O   0  0  0  0  0  0  0  0  0  0  0  0
    0.6731    3.0937    0.0000 C   0  0  0  0  0  0  0  0  0  0  0  0
   -3.6135    0.6187    0.0000 O   0  0  0  0  0  0  0  0  0  0  0  0
   -5.0427    1.4437    0.0000 O   0  0  0  0  0  0  0  0  0  0  0  0
   -5.0427    3.0937    0.0000 C   0  0  0  0  0  0  0  0  0  0  0  0
    4.9602   -1.0312    0.0000 P   0  0  0  0  0  0  0  0  0  0  0  0
    4.2454   -0.6187    0.0000 O   0  5  0  0  0  0  0  0  0  0  0  0
    5.5435   -0.4479    0.0000 O   0  0  0  0  0  0  0  0  0  0  0  0
   -2.1848   -1.0312    0.0000 P   0  0  0  0  0  0  0  0  0  0  0  0
   -2.1848   -1.8562    0.0000 O   0  5  0  0  0  0  0  0  0  0  0  0
    1.3875    2.6812    0.0000 C   0  0  0  0  0  0  0  0  0  0  0  0
    2.1023    3.0937    0.0000 O   0  0  0  0  0  0  0  0  0  0  0  0
    0.6731    3.9187    0.0000 O   0  0  0  0  0  0  0  0  0  0  0  0
   -1.4700    1.0312    0.0000 C   0  0  0  0  0  0  0  0  0  0  0  0
   -2.1848    1.4437    0.0000 O   0  5  0  0  0  0  0  0  0  0  0  0
   -1.4700    0.2062    0.0000 O   0  0  0  0  0  0  0  0  0  0  0  0
   -5.0427    3.9187    0.0000 C   0  0  0  0  0  0  0  0  0  0  0  0
   -2.8991    3.5062    0.0000 C   0  0  0  0  0  0  0  0  0  0  0  0
   -2.1848    3.9187    0.0000 O   0  5  0  0  0  0  0  0  0  0  0  0
   -3.6135    3.9187    0.0000 O   0  0  0  0  0  0  0  0  0  0  0  0
   -5.7570    4.3312    0.0000 O   0  0  0  0  0  0  0  0  0  0  0  0
   -5.7570    2.6812    0.0000 O   0  0  0  0  0  0  0  0  0  0  0  0
    5.7570   -0.8177    0.0000 O   0  5  0  0  0  0  0  0  0  0  0  0
   -2.9816   -0.8177    0.0000 O   0  5  0  0  0  0  0  0  0  0  0  0
   -2.7681   -0.4479    0.0000 O   0  0  0  0  0  0  0  0  0  0  0  0
  1  2  1  0      
  2  3  1  0      
  3  4  1  0      
  4  5  1  0      
  5  6  1  0      
  6  1  1  0      
  1  7  1  1      
  7  8  1  0      
  9  8  1  1      
  9 10  1  0      
 10 11  1  0      
 11 12  1  0      
 12 13  1  0      
 13 14  1  0      
 14  9  1  0      
 11 15  1  1      
 15 16  1  0      
 17 16  1  6      
 17 18  1  0      
 18 19  1  0      
 19 20  1  0      
 20 21  1  0      
 21 22  1  0      
 22 17  1  0      
 21 23  1  1      
 24 23  1  6      
 24 25  1  0      
 25 26  1  0      
 26 27  1  0      
 27 28  1  0      
 28 29  1  0      
 29 24  1  0      
  5 30  1  6      
  4 31  1  6      
  3 32  1  1      
  2 33  1  6      
 14 34  1  6      
 13 35  1  1      
 12 36  1  6      
 20 37  1  1      
 19 38  1  1      
 28 39  1  1      
 27 40  1  1      
 26 41  1  1      
 30 42  1  0      
 42 43  1  0      
 42 44  2  0      
 36 45  1  0      
 45 46  1  0      
 38 47  1  0      
 47 48  1  0      
 38 49  1  6      
 17 50  1  1      
 50 51  1  0      
 50 52  2  0      
 41 53  1  0      
 24 54  1  1      
 54 55  1  0      
 54 56  2  0      
 53 57  1  0      
 41 58  1  6      
 42 59  1  0      
 45 60  1  0      
 45 61  2  0      
M  CHG  8  31   1  34   1  43  -1  46  -1  51  -1  55  -1  59  -1  60  -1
M  END
