fdla.mol
  ChemDraw06121512502D

 74 78  0  0  0  0  0  0  0  0999 V2000
    2.8166   -3.7125    0.0000 C   0  0  0  0  0  0  0  0  0  0  0  0
    2.8166   -4.5375    0.0000 C   0  0  0  0  0  0  0  0  0  0  0  0
    3.5310   -4.9500    0.0000 C   0  0  0  0  0  0  0  0  0  0  0  0
    4.2454   -4.5375    0.0000 C   0  0  0  0  0  0  0  0  0  0  0  0
    4.2454   -3.7125    0.0000 C   0  0  0  0  0  0  0  0  0  0  0  0
    3.5310   -3.3000    0.0000 O   0  0  0  0  0  0  0  0  0  0  0  0
    2.1023   -3.3000    0.0000 C   0  0  0  0  0  0  0  0  0  0  0  0
    1.3875   -3.7125    0.0000 O   0  0  0  0  0  0  0  0  0  0  0  0
    0.6731   -3.3000    0.0000 C   0  0  0  0  0  0  0  0  0  0  0  0
    0.6731   -2.4750    0.0000 O   0  0  0  0  0  0  0  0  0  0  0  0
   -0.0412   -2.0625    0.0000 C   0  0  0  0  0  0  0  0  0  0  0  0
   -0.7556   -2.4750    0.0000 C   0  0  0  0  0  0  0  0  0  0  0  0
   -0.7556   -3.3000    0.0000 C   0  0  0  0  0  0  0  0  0  0  0  0
   -0.0412   -3.7125    0.0000 C   0  0  0  0  0  0  0  0  0  0  0  0
   -0.0412   -1.2375    0.0000 C   0  0  0  0  0  0  0  0  0  0  0  0
   -0.7556   -0.8250    0.0000 O   0  0  0  0  0  0  0  0  0  0  0  0
   -0.7556    0.0000    0.0000 C   0  0  0  0  0  0  0  0  0  0  0  0
   -0.0412    0.4125    0.0000 O   0  0  0  0  0  0  0  0  0  0  0  0
   -0.0412    1.2375    0.0000 C   0  0  0  0  0  0  0  0  0  0  0  0
   -0.7556    1.6500    0.0000 C   0  0  0  0  0  0  0  0  0  0  0  0
   -1.4700    1.2375    0.0000 C   0  0  0  0  0  0  0  0  0  0  0  0
   -1.4700    0.4125    0.0000 C   0  0  0  0  0  0  0  0  0  0  0  0
   -2.1848    1.6500    0.0000 O   0  0  0  0  0  0  0  0  0  0  0  0
   -2.8991    1.2375    0.0000 C   0  0  0  0  0  0  0  0  0  0  0  0
   -3.6135    1.6500    0.0000 O   0  0  0  0  0  0  0  0  0  0  0  0
   -4.3279    1.2375    0.0000 C   0  0  0  0  0  0  0  0  0  0  0  0
   -4.3279    0.4125    0.0000 C   0  0  0  0  0  0  0  0  0  0  0  0
   -3.6135    0.0000    0.0000 C   0  0  0  0  0  0  0  0  0  0  0  0
   -2.8991    0.4125    0.0000 C   0  0  0  0  0  0  0  0  0  0  0  0
    4.9602   -3.3000    0.0000 O   0  0  0  0  0  0  0  0  0  0  0  0
    4.9602   -4.9500    0.0000 N   0  3  0  0  0  0  0  0  0  0  0  0
    3.5310   -5.7750    0.0000 O   0  0  0  0  0  0  0  0  0  0  0  0
    2.1023   -4.9500    0.0000 O   0  0  0  0  0  0  0  0  0  0  0  0
   -0.0412   -4.5375    0.0000 N   0  3  0  0  0  0  0  0  0  0  0  0
   -1.4700   -3.7125    0.0000 O   0  0  0  0  0  0  0  0  0  0  0  0
   -1.4700   -2.0625    0.0000 O   0  0  0  0  0  0  0  0  0  0  0  0
   -0.7556    2.4750    0.0000 O   0  0  0  0  0  0  0  0  0  0  0  0
    0.6731    1.6500    0.0000 C   0  0  0  0  0  0  0  0  0  0  0  0
   -3.6135   -0.8250    0.0000 O   0  0  0  0  0  0  0  0  0  0  0  0
   -5.0427    0.0000    0.0000 O   0  0  0  0  0  0  0  0  0  0  0  0
   -5.0427    1.6500    0.0000 C   0  0  0  0  0  0  0  0  0  0  0  0
    4.9602   -2.4750    0.0000 P   0  0  0  0  0  0  0  0  0  0  0  0
    4.2454   -2.0625    0.0000 O   0  5  0  0  0  0  0  0  0  0  0  0
    5.5435   -1.8917    0.0000 O   0  0  0  0  0  0  0  0  0  0  0  0
   -2.1848   -2.4750    0.0000 P   0  0  0  0  0  0  0  0  0  0  0  0
   -2.1848   -3.3000    0.0000 O   0  5  0  0  0  0  0  0  0  0  0  0
    1.3875    1.2375    0.0000 C   0  0  0  0  0  0  0  0  0  0  0  0
    2.1023    1.6500    0.0000 O   0  0  0  0  0  0  0  0  0  0  0  0
    0.6731    2.4750    0.0000 O   0  0  0  0  0  0  0  0  0  0  0  0
   -1.4700   -0.4125    0.0000 C   0  0  0  0  0  0  0  0  0  0  0  0
   -2.1848    0.0000    0.0000 O   0  5  0  0  0  0  0  0  0  0  0  0
   -1.4700   -1.2375    0.0000 O   0  0  0  0  0  0  0  0  0  0  0  0
   -5.0427    2.4750    0.0000 C   0  0  0  0  0  0  0  0  0  0  0  0
   -2.8991    2.0625    0.0000 C   0  0  0  0  0  0  0  0  0  0  0  0
   -2.1848    2.4750    0.0000 O   0  5  0  0  0  0  0  0  0  0  0  0
   -3.6135    2.4750    0.0000 O   0  0  0  0  0  0  0  0  0  0  0  0
   -5.7570    2.8875    0.0000 O   0  0  0  0  0  0  0  0  0  0  0  0
   -5.7570    1.2375    0.0000 O   0  0  0  0  0  0  0  0  0  0  0  0
    5.7570   -2.2615    0.0000 O   0  5  0  0  0  0  0  0  0  0  0  0
   -2.9816   -2.2615    0.0000 O   0  5  0  0  0  0  0  0  0  0  0  0
   -2.7681   -1.8917    0.0000 O   0  0  0  0  0  0  0  0  0  0  0  0
   -0.7556    3.3000    0.0000 C   0  0  0  0  0  0  0  0  0  0  0  0
   -0.0412    3.7125    0.0000 O   0  0  0  0  0  0  0  0  0  0  0  0
   -0.0412    4.5375    0.0000 C   0  0  0  0  0  0  0  0  0  0  0  0
   -0.7556    4.9500    0.0000 C   0  0  0  0  0  0  0  0  0  0  0  0
   -1.4700    4.5375    0.0000 C   0  0  0  0  0  0  0  0  0  0  0  0
   -1.4700    3.7125    0.0000 C   0  0  0  0  0  0  0  0  0  0  0  0
    0.6731    4.9500    0.0000 C   0  0  0  0  0  0  0  0  0  0  0  0
   -0.7556    5.7750    0.0000 O   0  0  0  0  0  0  0  0  0  0  0  0
   -2.1848    4.9500    0.0000 O   0  0  0  0  0  0  0  0  0  0  0  0
   -2.1848    3.3000    0.0000 O   0  0  0  0  0  0  0  0  0  0  0  0
    1.3875    4.5375    0.0000 C   0  0  0  0  0  0  0  0  0  0  0  0
    0.6731    5.7750    0.0000 O   0  0  0  0  0  0  0  0  0  0  0  0
    2.1023    4.9500    0.0000 O   0  0  0  0  0  0  0  0  0  0  0  0
  1  2  1  0      
  2  3  1  0      
  3  4  1  0      
  4  5  1  0      
  5  6  1  0      
  6  1  1  0      
  1  7  1  1      
  7  8  1  0      
  9  8  1  1      
  9 10  1  0      
 10 11  1  0      
 11 12  1  0      
 12 13  1  0      
 13 14  1  0      
 14  9  1  0      
 11 15  1  1      
 15 16  1  0      
 17 16  1  6      
 17 18  1  0      
 18 19  1  0      
 19 20  1  0      
 20 21  1  0      
 21 22  1  0      
 22 17  1  0      
 21 23  1  1      
 24 23  1  6      
 24 25  1  0      
 25 26  1  0      
 26 27  1  0      
 27 28  1  0      
 28 29  1  0      
 29 24  1  0      
  5 30  1  6      
  4 31  1  6      
  3 32  1  1      
  2 33  1  6      
 14 34  1  6      
 13 35  1  1      
 12 36  1  6      
 20 37  1  1      
 19 38  1  1      
 28 39  1  1      
 27 40  1  1      
 26 41  1  1      
 30 42  1  0      
 42 43  1  0      
 42 44  2  0      
 36 45  1  0      
 45 46  1  0      
 38 47  1  0      
 47 48  1  0      
 38 49  1  6      
 17 50  1  1      
 50 51  1  0      
 50 52  2  0      
 41 53  1  0      
 24 54  1  1      
 54 55  1  0      
 54 56  2  0      
 53 57  1  0      
 41 58  1  6      
 42 59  1  0      
 45 60  1  0      
 45 61  2  0      
 62 37  1  6      
 62 63  1  0      
 63 64  1  0      
 64 65  1  0      
 65 66  1  0      
 66 67  1  0      
 67 62  1  0      
 64 68  1  1      
 65 69  1  6      
 66 70  1  6      
 67 71  1  1      
 68 72  1  0      
 68 73  1  1      
 72 74  1  0      
M  CHG  8  31   1  34   1  43  -1  46  -1  51  -1  55  -1  59  -1  60  -1
M  END
