Untitled template-1
  ChemDraw06121512482D

176179  0  0  0  0  0  0  0  0999 V2000
    4.3810    3.5062    0.0000 C   0  0  0  0  0  0  0  0  0  0  0  0
    4.3810    2.6812    0.0000 C   0  0  0  0  0  0  0  0  0  0  0  0
    5.0953    2.2687    0.0000 C   0  0  0  0  0  0  0  0  0  0  0  0
    5.8097    2.6812    0.0000 C   0  0  0  0  0  0  0  0  0  0  0  0
    5.8097    3.5062    0.0000 C   0  0  0  0  0  0  0  0  0  0  0  0
    5.0953    3.9187    0.0000 O   0  0  0  0  0  0  0  0  0  0  0  0
    3.6666    3.9187    0.0000 C   0  0  0  0  0  0  0  0  0  0  0  0
    2.9518    3.5062    0.0000 O   0  0  0  0  0  0  0  0  0  0  0  0
    2.2374    3.9187    0.0000 C   0  0  0  0  0  0  0  0  0  0  0  0
    2.2374    4.7437    0.0000 O   0  0  0  0  0  0  0  0  0  0  0  0
    1.5231    5.1562    0.0000 C   0  0  0  0  0  0  0  0  0  0  0  0
    0.8087    4.7437    0.0000 C   0  0  0  0  0  0  0  0  0  0  0  0
    0.8087    3.9187    0.0000 C   0  0  0  0  0  0  0  0  0  0  0  0
    1.5231    3.5062    0.0000 C   0  0  0  0  0  0  0  0  0  0  0  0
    1.5231    5.9812    0.0000 C   0  0  0  0  0  0  0  0  0  0  0  0
    0.8087    6.3937    0.0000 O   0  0  0  0  0  0  0  0  0  0  0  0
    0.8087    7.2187    0.0000 C   0  0  0  0  0  0  0  0  0  0  0  0
    1.5231    7.6312    0.0000 O   0  0  0  0  0  0  0  0  0  0  0  0
    1.5231    8.4562    0.0000 C   0  0  0  0  0  0  0  0  0  0  0  0
    0.8087    8.8687    0.0000 C   0  0  0  0  0  0  0  0  0  0  0  0
    0.0944    8.4562    0.0000 C   0  0  0  0  0  0  0  0  0  0  0  0
    0.0944    7.6312    0.0000 C   0  0  0  0  0  0  0  0  0  0  0  0
   -0.6204    8.8687    0.0000 O   0  0  0  0  0  0  0  0  0  0  0  0
   -1.3348    8.4562    0.0000 C   0  0  0  0  0  0  0  0  0  0  0  0
   -2.0492    8.8687    0.0000 O   0  0  0  0  0  0  0  0  0  0  0  0
   -2.7635    8.4562    0.0000 C   0  0  0  0  0  0  0  0  0  0  0  0
   -2.7635    7.6312    0.0000 C   0  0  0  0  0  0  0  0  0  0  0  0
   -2.0492    7.2187    0.0000 C   0  0  0  0  0  0  0  0  0  0  0  0
   -1.3348    7.6312    0.0000 C   0  0  0  0  0  0  0  0  0  0  0  0
    6.5245    3.9187    0.0000 O   0  0  0  0  0  0  0  0  0  0  0  0
    6.5245    2.2687    0.0000 N   0  0  0  0  0  0  0  0  0  0  0  0
    5.0953    1.4437    0.0000 O   0  0  0  0  0  0  0  0  0  0  0  0
    3.6666    2.2687    0.0000 O   0  0  0  0  0  0  0  0  0  0  0  0
    1.5231    2.6812    0.0000 N   0  0  0  0  0  0  0  0  0  0  0  0
    0.0944    3.5062    0.0000 O   0  0  0  0  0  0  0  0  0  0  0  0
    0.0944    5.1562    0.0000 O   0  0  0  0  0  0  0  0  0  0  0  0
    0.8087    9.6937    0.0000 O   0  0  0  0  0  0  0  0  0  0  0  0
    2.2374    8.8687    0.0000 C   0  0  0  0  0  0  0  0  0  0  0  0
   -2.0492    6.3937    0.0000 O   0  0  0  0  0  0  0  0  0  0  0  0
   -3.4783    7.2187    0.0000 O   0  0  0  0  0  0  0  0  0  0  0  0
   -3.4783    8.8687    0.0000 C   0  0  0  0  0  0  0  0  0  0  0  0
    6.5245    4.7437    0.0000 P   0  0  0  0  0  0  0  0  0  0  0  0
    5.8097    5.1562    0.0000 O   0  5  0  0  0  0  0  0  0  0  0  0
    7.1079    5.3271    0.0000 O   0  0  0  0  0  0  0  0  0  0  0  0
   -0.6204    4.7437    0.0000 P   0  0  0  0  0  0  0  0  0  0  0  0
   -0.6204    3.9187    0.0000 O   0  5  0  0  0  0  0  0  0  0  0  0
    2.9518    8.4562    0.0000 C   0  0  0  0  0  0  0  0  0  0  0  0
    3.6666    8.8687    0.0000 O   0  0  0  0  0  0  0  0  0  0  0  0
    2.2374    9.6937    0.0000 O   0  0  0  0  0  0  0  0  0  0  0  0
    0.0944    6.8062    0.0000 C   0  0  0  0  0  0  0  0  0  0  0  0
   -0.6204    7.2187    0.0000 O   0  5  0  0  0  0  0  0  0  0  0  0
    0.0944    5.9812    0.0000 O   0  0  0  0  0  0  0  0  0  0  0  0
   -3.4783    9.6937    0.0000 C   0  0  0  0  0  0  0  0  0  0  0  0
   -1.3348    9.2812    0.0000 C   0  0  0  0  0  0  0  0  0  0  0  0
   -0.6204    9.6937    0.0000 O   0  5  0  0  0  0  0  0  0  0  0  0
   -2.0492    9.6937    0.0000 O   0  0  0  0  0  0  0  0  0  0  0  0
   -4.1927   10.1062    0.0000 O   0  0  0  0  0  0  0  0  0  0  0  0
   -4.1927    8.4562    0.0000 O   0  0  0  0  0  0  0  0  0  0  0  0
    7.3214    4.9573    0.0000 O   0  5  0  0  0  0  0  0  0  0  0  0
   -1.4173    4.9573    0.0000 O   0  5  0  0  0  0  0  0  0  0  0  0
   -1.2038    5.3271    0.0000 O   0  0  0  0  0  0  0  0  0  0  0  0
    6.5245    1.4437    0.0000 C   0  0  0  0  0  0  0  0  0  0  0  0
    5.8097    1.0312    0.0000 C   0  0  0  0  0  0  0  0  0  0  0  0
    5.8097    0.2062    0.0000 C   0  0  0  0  0  0  0  0  0  0  0  0
    5.0953   -0.2062    0.0000 C   0  0  0  0  0  0  0  0  0  0  0  0
    5.0953   -1.0312    0.0000 C   0  0  0  0  0  0  0  0  0  0  0  0
    4.3810   -1.4437    0.0000 C   0  0  0  0  0  0  0  0  0  0  0  0
    4.3810   -2.2687    0.0000 C   0  0  0  0  0  0  0  0  0  0  0  0
    3.6666   -2.6812    0.0000 C   0  0  0  0  0  0  0  0  0  0  0  0
    3.6666   -3.5062    0.0000 C   0  0  0  0  0  0  0  0  0  0  0  0
    2.9518   -3.9187    0.0000 C   0  0  0  0  0  0  0  0  0  0  0  0
    2.9518   -4.7437    0.0000 C   0  0  0  0  0  0  0  0  0  0  0  0
    2.2374   -5.1562    0.0000 C   0  0  0  0  0  0  0  0  0  0  0  0
    2.2374   -5.9812    0.0000 C   0  0  0  0  0  0  0  0  0  0  0  0
    1.5231   -6.3937    0.0000 C   0  0  0  0  0  0  0  0  0  0  0  0
    7.2389    1.0312    0.0000 O   0  0  0  0  0  0  0  0  0  0  0  0
    6.5245   -0.2062    0.0000 O   0  0  0  0  0  0  0  0  0  0  0  0
    4.3810    1.0312    0.0000 C   0  0  0  0  0  0  0  0  0  0  0  0
    4.3810    0.2062    0.0000 C   0  0  0  0  0  0  0  0  0  0  0  0
    3.6666   -0.2062    0.0000 C   0  0  0  0  0  0  0  0  0  0  0  0
    3.6666   -1.0312    0.0000 C   0  0  0  0  0  0  0  0  0  0  0  0
    2.9518   -1.4437    0.0000 C   0  0  0  0  0  0  0  0  0  0  0  0
    2.9518   -2.2687    0.0000 C   0  0  0  0  0  0  0  0  0  0  0  0
    2.2374   -2.6812    0.0000 C   0  0  0  0  0  0  0  0  0  0  0  0
    2.2374   -3.5062    0.0000 C   0  0  0  0  0  0  0  0  0  0  0  0
    1.5231   -3.9187    0.0000 C   0  0  0  0  0  0  0  0  0  0  0  0
    1.5231   -4.7437    0.0000 C   0  0  0  0  0  0  0  0  0  0  0  0
    0.8087   -5.1562    0.0000 C   0  0  0  0  0  0  0  0  0  0  0  0
    0.8087   -5.9812    0.0000 C   0  0  0  0  0  0  0  0  0  0  0  0
    0.0944   -6.3937    0.0000 C   0  0  0  0  0  0  0  0  0  0  0  0
    0.0944   -7.2187    0.0000 C   0  0  0  0  0  0  0  0  0  0  0  0
    1.5231    1.8562    0.0000 C   0  0  0  0  0  0  0  0  0  0  0  0
    0.8087    1.4437    0.0000 C   0  0  0  0  0  0  0  0  0  0  0  0
    0.8087    0.6187    0.0000 C   0  0  0  0  0  0  0  0  0  0  0  0
    0.0944    0.2062    0.0000 C   0  0  0  0  0  0  0  0  0  0  0  0
    0.0944   -0.6187    0.0000 C   0  0  0  0  0  0  0  0  0  0  0  0
   -0.6204   -1.0312    0.0000 C   0  0  0  0  0  0  0  0  0  0  0  0
   -0.6204   -1.8562    0.0000 C   0  0  0  0  0  0  0  0  0  0  0  0
   -1.3348   -2.2687    0.0000 C   0  0  0  0  0  0  0  0  0  0  0  0
   -1.3348   -3.0937    0.0000 C   0  0  0  0  0  0  0  0  0  0  0  0
   -2.0492   -3.5062    0.0000 C   0  0  0  0  0  0  0  0  0  0  0  0
   -2.0492   -4.3312    0.0000 C   0  0  0  0  0  0  0  0  0  0  0  0
   -2.7635   -4.7437    0.0000 C   0  0  0  0  0  0  0  0  0  0  0  0
   -2.7635   -5.5687    0.0000 C   0  0  0  0  0  0  0  0  0  0  0  0
   -3.4783   -5.9812    0.0000 C   0  0  0  0  0  0  0  0  0  0  0  0
   -0.8908    3.0913    0.0000 C   0  0  0  0  0  0  0  0  0  0  0  0
   -0.8908    2.2663    0.0000 C   0  0  0  0  0  0  0  0  0  0  0  0
   -1.6056    1.8538    0.0000 C   0  0  0  0  0  0  0  0  0  0  0  0
   -1.6056    1.0288    0.0000 C   0  0  0  0  0  0  0  0  0  0  0  0
   -2.3199    0.6163    0.0000 C   0  0  0  0  0  0  0  0  0  0  0  0
   -2.3199   -0.2087    0.0000 C   0  0  0  0  0  0  0  0  0  0  0  0
   -3.0343   -0.6212    0.0000 C   0  0  0  0  0  0  0  0  0  0  0  0
   -3.0343   -1.4462    0.0000 C   0  0  0  0  0  0  0  0  0  0  0  0
   -3.7487   -1.8587    0.0000 C   0  0  0  0  0  0  0  0  0  0  0  0
   -3.7487   -2.6837    0.0000 C   0  0  0  0  0  0  0  0  0  0  0  0
   -4.4635   -3.0962    0.0000 C   0  0  0  0  0  0  0  0  0  0  0  0
   -4.4635   -3.9212    0.0000 C   0  0  0  0  0  0  0  0  0  0  0  0
   -5.1778   -4.3337    0.0000 C   0  0  0  0  0  0  0  0  0  0  0  0
   -5.1778   -5.1587    0.0000 C   0  0  0  0  0  0  0  0  0  0  0  0
   -5.8922   -5.5712    0.0000 C   0  0  0  0  0  0  0  0  0  0  0  0
   -5.8922   -6.3962    0.0000 C   0  0  0  0  0  0  0  0  0  0  0  0
   -6.6066   -6.8087    0.0000 C   0  0  0  0  0  0  0  0  0  0  0  0
   -6.6066   -7.6337    0.0000 C   0  0  0  0  0  0  0  0  0  0  0  0
   -7.3214   -8.0462    0.0000 C   0  0  0  0  0  0  0  0  0  0  0  0
   -7.3214   -8.8712    0.0000 C   0  0  0  0  0  0  0  0  0  0  0  0
   -1.5784    3.5475    0.0000 O   0  0  0  0  0  0  0  0  0  0  0  0
   -2.3199    2.2663    0.0000 O   0  0  0  0  0  0  0  0  0  0  0  0
    2.2374    1.4437    0.0000 O   0  0  0  0  0  0  0  0  0  0  0  0
    1.5231    0.2062    0.0000 O   0  0  0  0  0  0  0  0  0  0  0  0
    3.6666    1.4437    0.0000 O   0  0  0  0  0  0  0  0  0  0  0  0
    2.9518    0.2062    0.0000 O   0  0  0  0  0  0  0  0  0  0  0  0
    6.5245   -1.0312    0.0000 C   0  0  0  0  0  0  0  0  0  0  0  0
    5.8097   -1.4437    0.0000 C   0  0  0  0  0  0  0  0  0  0  0  0
    5.8097   -2.2687    0.0000 C   0  0  0  0  0  0  0  0  0  0  0  0
    5.0953   -2.6812    0.0000 C   0  0  0  0  0  0  0  0  0  0  0  0
    5.0953   -3.5062    0.0000 C   0  0  0  0  0  0  0  0  0  0  0  0
    4.3810   -3.9187    0.0000 C   0  0  0  0  0  0  0  0  0  0  0  0
    4.3810   -4.7437    0.0000 C   0  0  0  0  0  0  0  0  0  0  0  0
    3.6666   -5.1562    0.0000 C   0  0  0  0  0  0  0  0  0  0  0  0
    3.6666   -5.9812    0.0000 C   0  0  0  0  0  0  0  0  0  0  0  0
    2.9518   -6.3937    0.0000 C   0  0  0  0  0  0  0  0  0  0  0  0
    2.9518   -7.2187    0.0000 C   0  0  0  0  0  0  0  0  0  0  0  0
    2.2374   -7.6312    0.0000 C   0  0  0  0  0  0  0  0  0  0  0  0
    2.2374   -8.4562    0.0000 C   0  0  0  0  0  0  0  0  0  0  0  0
    1.5231   -8.8687    0.0000 C   0  0  0  0  0  0  0  0  0  0  0  0
    1.5231   -9.6937    0.0000 C   0  0  0  0  0  0  0  0  0  0  0  0
    0.8087  -10.1062    0.0000 C   0  0  0  0  0  0  0  0  0  0  0  0
   -3.0343    1.8538    0.0000 C   0  0  0  0  0  0  0  0  0  0  0  0
   -3.0343    1.0288    0.0000 C   0  0  0  0  0  0  0  0  0  0  0  0
   -3.7487    0.6163    0.0000 C   0  0  0  0  0  0  0  0  0  0  0  0
   -3.7487   -0.2087    0.0000 C   0  0  0  0  0  0  0  0  0  0  0  0
   -4.4635   -0.6212    0.0000 C   0  0  0  0  0  0  0  0  0  0  0  0
   -4.4635   -1.4462    0.0000 C   0  0  0  0  0  0  0  0  0  0  0  0
   -5.1778   -1.8587    0.0000 C   0  0  0  0  0  0  0  0  0  0  0  0
   -5.1778   -2.6837    0.0000 C   0  0  0  0  0  0  0  0  0  0  0  0
   -5.8922   -3.0962    0.0000 C   0  0  0  0  0  0  0  0  0  0  0  0
   -5.8922   -3.9212    0.0000 C   0  0  0  0  0  0  0  0  0  0  0  0
   -6.6066   -4.3337    0.0000 C   0  0  0  0  0  0  0  0  0  0  0  0
   -6.6066   -5.1587    0.0000 C   0  0  0  0  0  0  0  0  0  0  0  0
   -7.3214   -5.5712    0.0000 C   0  0  0  0  0  0  0  0  0  0  0  0
   -7.3214   -6.3962    0.0000 C   0  0  0  0  0  0  0  0  0  0  0  0
    1.5231   -0.6187    0.0000 C   0  0  0  0  0  0  0  0  0  0  0  0
    0.8087   -1.0312    0.0000 C   0  0  0  0  0  0  0  0  0  0  0  0
    0.8087   -1.8562    0.0000 C   0  0  0  0  0  0  0  0  0  0  0  0
    0.0944   -2.2687    0.0000 C   0  0  0  0  0  0  0  0  0  0  0  0
    0.0944   -3.0937    0.0000 C   0  0  0  0  0  0  0  0  0  0  0  0
   -0.6204   -3.5062    0.0000 C   0  0  0  0  0  0  0  0  0  0  0  0
   -0.6204   -4.3312    0.0000 C   0  0  0  0  0  0  0  0  0  0  0  0
   -1.3348   -4.7437    0.0000 C   0  0  0  0  0  0  0  0  0  0  0  0
   -1.3348   -5.5687    0.0000 C   0  0  0  0  0  0  0  0  0  0  0  0
   -2.0492   -5.9812    0.0000 C   0  0  0  0  0  0  0  0  0  0  0  0
   -2.0492   -6.8062    0.0000 C   0  0  0  0  0  0  0  0  0  0  0  0
   -2.7635   -7.2187    0.0000 C   0  0  0  0  0  0  0  0  0  0  0  0
   -3.7487    2.2663    0.0000 O   0  0  0  0  0  0  0  0  0  0  0  0
    2.2374   -1.0312    0.0000 O   0  0  0  0  0  0  0  0  0  0  0  0
    7.2389   -1.4437    0.0000 O   0  0  0  0  0  0  0  0  0  0  0  0
  1  2  1  0      
  2  3  1  0      
  3  4  1  0      
  4  5  1  0      
  5  6  1  0      
  6  1  1  0      
  1  7  1  1      
  7  8  1  0      
  9  8  1  1      
  9 10  1  0      
 10 11  1  0      
 11 12  1  0      
 12 13  1  0      
 13 14  1  0      
 14  9  1  0      
 11 15  1  1      
 15 16  1  0      
 17 16  1  6      
 17 18  1  0      
 18 19  1  0      
 19 20  1  0      
 20 21  1  0      
 21 22  1  0      
 22 17  1  0      
 21 23  1  1      
 24 23  1  6      
 24 25  1  0      
 25 26  1  0      
 26 27  1  0      
 27 28  1  0      
 28 29  1  0      
 29 24  1  0      
  5 30  1  6      
  4 31  1  6      
  3 32  1  1      
  2 33  1  6      
 14 34  1  6      
 13 35  1  1      
 12 36  1  6      
 20 37  1  1      
 19 38  1  1      
 28 39  1  1      
 27 40  1  1      
 26 41  1  1      
 30 42  1  0      
 42 43  1  0      
 42 44  2  0      
 36 45  1  0      
 45 46  1  0      
 38 47  1  0      
 47 48  1  0      
 38 49  1  6      
 17 50  1  1      
 50 51  1  0      
 50 52  2  0      
 41 53  1  0      
 24 54  1  1      
 54 55  1  0      
 54 56  2  0      
 53 57  1  0      
 41 58  1  6      
 42 59  1  0      
 45 60  1  0      
 45 61  2  0      
 31 62  1  0      
 62 63  1  0      
 63 64  1  0      
 64 65  1  0      
 65 66  1  0      
 66 67  1  0      
 67 68  1  0      
 68 69  1  0      
 69 70  1  0      
 70 71  1  0      
 71 72  1  0      
 72 73  1  0      
 73 74  1  0      
 74 75  1  0      
 62 76  2  0      
 64 77  1  6      
 32 78  1  0      
 78 79  1  0      
 79 80  1  0      
 80 81  1  0      
 81 82  1  0      
 82 83  1  0      
 83 84  1  0      
 84 85  1  0      
 85 86  1  0      
 86 87  1  0      
 87 88  1  0      
 88 89  1  0      
 89 90  1  0      
 90 91  1  0      
 34 92  1  0      
 92 93  1  0      
 93 94  1  0      
 94 95  1  0      
 95 96  1  0      
 96 97  1  0      
 97 98  1  0      
 98 99  1  0      
 99100  1  0      
100101  1  0      
101102  1  0      
102103  1  0      
103104  1  0      
104105  1  0      
 35106  1  0      
106107  1  0      
107108  1  0      
108109  1  0      
109110  1  0      
110111  1  0      
111112  1  0      
112113  1  0      
113114  1  0      
114115  1  0      
115116  1  0      
116117  1  0      
117118  1  0      
118119  1  0      
119120  1  0      
120121  1  0      
121122  1  0      
122123  1  0      
123124  1  0      
124125  1  0      
106126  2  0      
108127  1  1      
 92128  2  0      
 94129  1  6      
 78130  2  0      
 80131  1  1      
 77132  1  0      
132133  1  0      
133134  1  0      
134135  1  0      
135136  1  0      
136137  1  0      
137138  1  0      
138139  1  0      
139140  1  0      
140141  1  0      
141142  1  0      
142143  1  0      
143144  1  0      
144145  1  0      
145146  1  0      
146147  1  0      
127148  1  0      
148149  1  0      
149150  1  0      
150151  1  0      
151152  1  0      
152153  1  0      
153154  1  0      
154155  1  0      
155156  1  0      
156157  1  0      
157158  1  0      
158159  1  0      
159160  1  0      
160161  1  0      
129162  1  0      
162163  1  0      
163164  1  0      
164165  1  0      
165166  1  0      
166167  1  0      
167168  1  0      
168169  1  0      
169170  1  0      
170171  1  0      
171172  1  0      
172173  1  0      
148174  2  0      
162175  2  0      
132176  2  0      
M  CHG  6  43  -1  46  -1  51  -1  55  -1  59  -1  60  -1
M  END
