odla.mol
  ChemDraw06121512492D

 77 80  0  0  0  0  0  0  0  0999 V2000
    2.8166    1.4437    0.0000 C   0  0  0  0  0  0  0  0  0  0  0  0
    2.8166    0.6187    0.0000 C   0  0  0  0  0  0  0  0  0  0  0  0
    3.5310    0.2062    0.0000 C   0  0  0  0  0  0  0  0  0  0  0  0
    4.2454    0.6187    0.0000 C   0  0  0  0  0  0  0  0  0  0  0  0
    4.2454    1.4437    0.0000 C   0  0  0  0  0  0  0  0  0  0  0  0
    3.5310    1.8562    0.0000 O   0  0  0  0  0  0  0  0  0  0  0  0
    2.1023    1.8562    0.0000 C   0  0  0  0  0  0  0  0  0  0  0  0
    1.3875    1.4437    0.0000 O   0  0  0  0  0  0  0  0  0  0  0  0
    0.6731    1.8562    0.0000 C   0  0  0  0  0  0  0  0  0  0  0  0
    0.6731    2.6812    0.0000 O   0  0  0  0  0  0  0  0  0  0  0  0
   -0.0412    3.0937    0.0000 C   0  0  0  0  0  0  0  0  0  0  0  0
   -0.7556    2.6812    0.0000 C   0  0  0  0  0  0  0  0  0  0  0  0
   -0.7556    1.8562    0.0000 C   0  0  0  0  0  0  0  0  0  0  0  0
   -0.0412    1.4437    0.0000 C   0  0  0  0  0  0  0  0  0  0  0  0
   -0.0412    3.9187    0.0000 C   0  0  0  0  0  0  0  0  0  0  0  0
   -0.7556    4.3312    0.0000 O   0  0  0  0  0  0  0  0  0  0  0  0
   -0.7556    5.1562    0.0000 C   0  0  0  0  0  0  0  0  0  0  0  0
   -0.0412    5.5687    0.0000 O   0  0  0  0  0  0  0  0  0  0  0  0
   -0.0412    6.3937    0.0000 C   0  0  0  0  0  0  0  0  0  0  0  0
   -0.7556    6.8062    0.0000 C   0  0  0  0  0  0  0  0  0  0  0  0
   -1.4700    6.3937    0.0000 C   0  0  0  0  0  0  0  0  0  0  0  0
   -1.4700    5.5687    0.0000 C   0  0  0  0  0  0  0  0  0  0  0  0
   -2.1848    6.8062    0.0000 O   0  0  0  0  0  0  0  0  0  0  0  0
   -2.8991    6.3937    0.0000 C   0  0  0  0  0  0  0  0  0  0  0  0
   -3.6135    6.8062    0.0000 O   0  0  0  0  0  0  0  0  0  0  0  0
   -4.3279    6.3937    0.0000 C   0  0  0  0  0  0  0  0  0  0  0  0
   -4.3279    5.5687    0.0000 C   0  0  0  0  0  0  0  0  0  0  0  0
   -3.6135    5.1562    0.0000 C   0  0  0  0  0  0  0  0  0  0  0  0
   -2.8991    5.5687    0.0000 C   0  0  0  0  0  0  0  0  0  0  0  0
    4.9602    1.8562    0.0000 O   0  0  0  0  0  0  0  0  0  0  0  0
    4.9602    0.2062    0.0000 N   0  3  0  0  0  0  0  0  0  0  0  0
    3.5310   -0.6187    0.0000 O   0  0  0  0  0  0  0  0  0  0  0  0
    2.1023    0.2062    0.0000 O   0  0  0  0  0  0  0  0  0  0  0  0
   -0.0412    0.6187    0.0000 N   0  0  0  0  0  0  0  0  0  0  0  0
   -1.4700    1.4437    0.0000 O   0  0  0  0  0  0  0  0  0  0  0  0
   -1.4700    3.0937    0.0000 O   0  0  0  0  0  0  0  0  0  0  0  0
   -0.7556    7.6312    0.0000 O   0  0  0  0  0  0  0  0  0  0  0  0
    0.6731    6.8062    0.0000 C   0  0  0  0  0  0  0  0  0  0  0  0
   -3.6135    4.3312    0.0000 O   0  0  0  0  0  0  0  0  0  0  0  0
   -5.0427    5.1562    0.0000 O   0  0  0  0  0  0  0  0  0  0  0  0
   -5.0427    6.8062    0.0000 C   0  0  0  0  0  0  0  0  0  0  0  0
    4.9602    2.6812    0.0000 P   0  0  0  0  0  0  0  0  0  0  0  0
    4.2454    3.0937    0.0000 O   0  5  0  0  0  0  0  0  0  0  0  0
    5.5435    3.2646    0.0000 O   0  0  0  0  0  0  0  0  0  0  0  0
   -2.1848    2.6812    0.0000 P   0  0  0  0  0  0  0  0  0  0  0  0
   -2.1848    1.8562    0.0000 O   0  5  0  0  0  0  0  0  0  0  0  0
    1.3875    6.3937    0.0000 C   0  0  0  0  0  0  0  0  0  0  0  0
    2.1023    6.8062    0.0000 O   0  0  0  0  0  0  0  0  0  0  0  0
    0.6731    7.6312    0.0000 O   0  0  0  0  0  0  0  0  0  0  0  0
   -1.4700    4.7437    0.0000 C   0  0  0  0  0  0  0  0  0  0  0  0
   -2.1848    5.1562    0.0000 O   0  5  0  0  0  0  0  0  0  0  0  0
   -1.4700    3.9187    0.0000 O   0  0  0  0  0  0  0  0  0  0  0  0
   -5.0427    7.6312    0.0000 C   0  0  0  0  0  0  0  0  0  0  0  0
   -2.8991    7.2187    0.0000 C   0  0  0  0  0  0  0  0  0  0  0  0
   -2.1848    7.6312    0.0000 O   0  5  0  0  0  0  0  0  0  0  0  0
   -3.6135    7.6312    0.0000 O   0  0  0  0  0  0  0  0  0  0  0  0
   -5.7570    8.0437    0.0000 O   0  0  0  0  0  0  0  0  0  0  0  0
   -5.7570    6.3937    0.0000 O   0  0  0  0  0  0  0  0  0  0  0  0
    5.7570    2.8948    0.0000 O   0  5  0  0  0  0  0  0  0  0  0  0
   -2.9816    2.8948    0.0000 O   0  5  0  0  0  0  0  0  0  0  0  0
   -2.7681    3.2646    0.0000 O   0  0  0  0  0  0  0  0  0  0  0  0
   -0.7556    0.2062    0.0000 C   0  0  0  0  0  0  0  0  0  0  0  0
   -0.7556   -0.6187    0.0000 C   0  0  0  0  0  0  0  0  0  0  0  0
   -1.4700   -1.0312    0.0000 C   0  0  0  0  0  0  0  0  0  0  0  0
   -1.4700   -1.8562    0.0000 C   0  0  0  0  0  0  0  0  0  0  0  0
   -2.1848   -2.2687    0.0000 C   0  0  0  0  0  0  0  0  0  0  0  0
   -2.1848   -3.0937    0.0000 C   0  0  0  0  0  0  0  0  0  0  0  0
   -2.8991   -3.5062    0.0000 C   0  0  0  0  0  0  0  0  0  0  0  0
   -2.8991   -4.3312    0.0000 C   0  0  0  0  0  0  0  0  0  0  0  0
   -3.6135   -4.7437    0.0000 C   0  0  0  0  0  0  0  0  0  0  0  0
   -3.6135   -5.5687    0.0000 C   0  0  0  0  0  0  0  0  0  0  0  0
   -4.3279   -5.9812    0.0000 C   0  0  0  0  0  0  0  0  0  0  0  0
   -4.3279   -6.8062    0.0000 C   0  0  0  0  0  0  0  0  0  0  0  0
   -5.0427   -7.2187    0.0000 C   0  0  0  0  0  0  0  0  0  0  0  0
   -5.0427   -8.0437    0.0000 C   0  0  0  0  0  0  0  0  0  0  0  0
   -1.4700    0.6187    0.0000 O   0  0  0  0  0  0  0  0  0  0  0  0
   -2.1848   -0.6187    0.0000 O   0  0  0  0  0  0  0  0  0  0  0  0
  1  2  1  0      
  2  3  1  0      
  3  4  1  0      
  4  5  1  0      
  5  6  1  0      
  6  1  1  0      
  1  7  1  1      
  7  8  1  0      
  9  8  1  1      
  9 10  1  0      
 10 11  1  0      
 11 12  1  0      
 12 13  1  0      
 13 14  1  0      
 14  9  1  0      
 11 15  1  1      
 15 16  1  0      
 17 16  1  6      
 17 18  1  0      
 18 19  1  0      
 19 20  1  0      
 20 21  1  0      
 21 22  1  0      
 22 17  1  0      
 21 23  1  1      
 24 23  1  6      
 24 25  1  0      
 25 26  1  0      
 26 27  1  0      
 27 28  1  0      
 28 29  1  0      
 29 24  1  0      
  5 30  1  6      
  4 31  1  6      
  3 32  1  1      
  2 33  1  6      
 14 34  1  6      
 13 35  1  1      
 12 36  1  6      
 20 37  1  1      
 19 38  1  1      
 28 39  1  1      
 27 40  1  1      
 26 41  1  1      
 30 42  1  0      
 42 43  1  0      
 42 44  2  0      
 36 45  1  0      
 45 46  1  0      
 38 47  1  0      
 47 48  1  0      
 38 49  1  6      
 17 50  1  1      
 50 51  1  0      
 50 52  2  0      
 41 53  1  0      
 24 54  1  1      
 54 55  1  0      
 54 56  2  0      
 53 57  1  0      
 41 58  1  6      
 42 59  1  0      
 45 60  1  0      
 45 61  2  0      
 34 62  1  0      
 62 63  1  0      
 63 64  1  0      
 64 65  1  0      
 65 66  1  0      
 66 67  1  0      
 67 68  1  0      
 68 69  1  0      
 69 70  1  0      
 70 71  1  0      
 71 72  1  0      
 72 73  1  0      
 73 74  1  0      
 74 75  1  0      
 62 76  2  0      
 64 77  1  1      
M  CHG  7  31   1  43  -1  46  -1  51  -1  55  -1  59  -1  60  -1
M  END
