n1odla.mol
  ChemDraw06121512492D

 76 79  0  0  0  0  0  0  0  0999 V2000
    2.8166    1.6500    0.0000 C   0  0  0  0  0  0  0  0  0  0  0  0
    2.8166    0.8250    0.0000 C   0  0  0  0  0  0  0  0  0  0  0  0
    3.5310    0.4125    0.0000 C   0  0  0  0  0  0  0  0  0  0  0  0
    4.2454    0.8250    0.0000 C   0  0  0  0  0  0  0  0  0  0  0  0
    4.2454    1.6500    0.0000 C   0  0  0  0  0  0  0  0  0  0  0  0
    3.5310    2.0625    0.0000 O   0  0  0  0  0  0  0  0  0  0  0  0
    2.1023    2.0625    0.0000 C   0  0  0  0  0  0  0  0  0  0  0  0
    1.3875    1.6500    0.0000 O   0  0  0  0  0  0  0  0  0  0  0  0
    0.6731    2.0625    0.0000 C   0  0  0  0  0  0  0  0  0  0  0  0
    0.6731    2.8875    0.0000 O   0  0  0  0  0  0  0  0  0  0  0  0
   -0.0412    3.3000    0.0000 C   0  0  0  0  0  0  0  0  0  0  0  0
   -0.7556    2.8875    0.0000 C   0  0  0  0  0  0  0  0  0  0  0  0
   -0.7556    2.0625    0.0000 C   0  0  0  0  0  0  0  0  0  0  0  0
   -0.0412    1.6500    0.0000 C   0  0  0  0  0  0  0  0  0  0  0  0
   -0.0412    4.1250    0.0000 C   0  0  0  0  0  0  0  0  0  0  0  0
   -0.7556    4.5375    0.0000 O   0  0  0  0  0  0  0  0  0  0  0  0
   -0.7556    5.3625    0.0000 C   0  0  0  0  0  0  0  0  0  0  0  0
   -0.0412    5.7750    0.0000 O   0  0  0  0  0  0  0  0  0  0  0  0
   -0.0412    6.6000    0.0000 C   0  0  0  0  0  0  0  0  0  0  0  0
   -0.7556    7.0125    0.0000 C   0  0  0  0  0  0  0  0  0  0  0  0
   -1.4700    6.6000    0.0000 C   0  0  0  0  0  0  0  0  0  0  0  0
   -1.4700    5.7750    0.0000 C   0  0  0  0  0  0  0  0  0  0  0  0
   -2.1848    7.0125    0.0000 O   0  0  0  0  0  0  0  0  0  0  0  0
   -2.8991    6.6000    0.0000 C   0  0  0  0  0  0  0  0  0  0  0  0
   -3.6135    7.0125    0.0000 O   0  0  0  0  0  0  0  0  0  0  0  0
   -4.3279    6.6000    0.0000 C   0  0  0  0  0  0  0  0  0  0  0  0
   -4.3279    5.7750    0.0000 C   0  0  0  0  0  0  0  0  0  0  0  0
   -3.6135    5.3625    0.0000 C   0  0  0  0  0  0  0  0  0  0  0  0
   -2.8991    5.7750    0.0000 C   0  0  0  0  0  0  0  0  0  0  0  0
    4.9602    2.0625    0.0000 O   0  0  0  0  0  0  0  0  0  0  0  0
    4.9602    0.4125    0.0000 N   0  0  0  0  0  0  0  0  0  0  0  0
    3.5310   -0.4125    0.0000 O   0  0  0  0  0  0  0  0  0  0  0  0
    2.1023    0.4125    0.0000 O   0  0  0  0  0  0  0  0  0  0  0  0
   -1.4700    1.6500    0.0000 O   0  0  0  0  0  0  0  0  0  0  0  0
   -1.4700    3.3000    0.0000 O   0  0  0  0  0  0  0  0  0  0  0  0
   -0.7556    7.8375    0.0000 O   0  0  0  0  0  0  0  0  0  0  0  0
    0.6731    7.0125    0.0000 C   0  0  0  0  0  0  0  0  0  0  0  0
   -3.6135    4.5375    0.0000 O   0  0  0  0  0  0  0  0  0  0  0  0
   -5.0427    5.3625    0.0000 O   0  0  0  0  0  0  0  0  0  0  0  0
   -5.0427    7.0125    0.0000 C   0  0  0  0  0  0  0  0  0  0  0  0
    4.9602    2.8875    0.0000 P   0  0  0  0  0  0  0  0  0  0  0  0
    4.2454    3.3000    0.0000 O   0  5  0  0  0  0  0  0  0  0  0  0
    5.5435    3.4708    0.0000 O   0  0  0  0  0  0  0  0  0  0  0  0
   -2.1848    2.8875    0.0000 P   0  0  0  0  0  0  0  0  0  0  0  0
   -2.1848    2.0625    0.0000 O   0  5  0  0  0  0  0  0  0  0  0  0
    1.3875    6.6000    0.0000 C   0  0  0  0  0  0  0  0  0  0  0  0
    2.1023    7.0125    0.0000 O   0  0  0  0  0  0  0  0  0  0  0  0
    0.6731    7.8375    0.0000 O   0  0  0  0  0  0  0  0  0  0  0  0
   -1.4700    4.9500    0.0000 C   0  0  0  0  0  0  0  0  0  0  0  0
   -2.1848    5.3625    0.0000 O   0  5  0  0  0  0  0  0  0  0  0  0
   -1.4700    4.1250    0.0000 O   0  0  0  0  0  0  0  0  0  0  0  0
   -5.0427    7.8375    0.0000 C   0  0  0  0  0  0  0  0  0  0  0  0
   -2.8991    7.4250    0.0000 C   0  0  0  0  0  0  0  0  0  0  0  0
   -2.1848    7.8375    0.0000 O   0  5  0  0  0  0  0  0  0  0  0  0
   -3.6135    7.8375    0.0000 O   0  0  0  0  0  0  0  0  0  0  0  0
   -5.7570    8.2500    0.0000 O   0  0  0  0  0  0  0  0  0  0  0  0
   -5.7570    6.6000    0.0000 O   0  0  0  0  0  0  0  0  0  0  0  0
    5.7570    3.1010    0.0000 O   0  5  0  0  0  0  0  0  0  0  0  0
   -2.9816    3.1010    0.0000 O   0  5  0  0  0  0  0  0  0  0  0  0
   -2.7681    3.4708    0.0000 O   0  0  0  0  0  0  0  0  0  0  0  0
    4.9602   -0.4125    0.0000 C   0  0  0  0  0  0  0  0  0  0  0  0
    4.2454   -0.8250    0.0000 C   0  0  0  0  0  0  0  0  0  0  0  0
    4.2454   -1.6500    0.0000 C   0  0  0  0  0  0  0  0  0  0  0  0
    3.5310   -2.0625    0.0000 C   0  0  0  0  0  0  0  0  0  0  0  0
    3.5310   -2.8875    0.0000 C   0  0  0  0  0  0  0  0  0  0  0  0
    2.8166   -3.3000    0.0000 C   0  0  0  0  0  0  0  0  0  0  0  0
    2.8166   -4.1250    0.0000 C   0  0  0  0  0  0  0  0  0  0  0  0
    2.1023   -4.5375    0.0000 C   0  0  0  0  0  0  0  0  0  0  0  0
    2.1023   -5.3625    0.0000 C   0  0  0  0  0  0  0  0  0  0  0  0
    1.3875   -5.7750    0.0000 C   0  0  0  0  0  0  0  0  0  0  0  0
    1.3875   -6.6000    0.0000 C   0  0  0  0  0  0  0  0  0  0  0  0
    0.6731   -7.0125    0.0000 C   0  0  0  0  0  0  0  0  0  0  0  0
    0.6731   -7.8375    0.0000 C   0  0  0  0  0  0  0  0  0  0  0  0
   -0.0412   -8.2500    0.0000 C   0  0  0  0  0  0  0  0  0  0  0  0
    5.6745   -0.8250    0.0000 O   0  0  0  0  0  0  0  0  0  0  0  0
    4.9602   -2.0625    0.0000 O   0  0  0  0  0  0  0  0  0  0  0  0
  1  2  1  0      
  2  3  1  0      
  3  4  1  0      
  4  5  1  0      
  5  6  1  0      
  6  1  1  0      
  1  7  1  1      
  7  8  1  0      
  9  8  1  1      
  9 10  1  0      
 10 11  1  0      
 11 12  1  0      
 12 13  1  0      
 13 14  1  0      
 14  9  1  0      
 11 15  1  1      
 15 16  1  0      
 17 16  1  6      
 17 18  1  0      
 18 19  1  0      
 19 20  1  0      
 20 21  1  0      
 21 22  1  0      
 22 17  1  0      
 21 23  1  1      
 24 23  1  6      
 24 25  1  0      
 25 26  1  0      
 26 27  1  0      
 27 28  1  0      
 28 29  1  0      
 29 24  1  0      
  5 30  1  6      
  4 31  1  6      
  3 32  1  1      
  2 33  1  6      
 13 34  1  1      
 12 35  1  6      
 20 36  1  1      
 19 37  1  1      
 28 38  1  1      
 27 39  1  1      
 26 40  1  1      
 30 41  1  0      
 41 42  1  0      
 41 43  2  0      
 35 44  1  0      
 44 45  1  0      
 37 46  1  0      
 46 47  1  0      
 37 48  1  6      
 17 49  1  1      
 49 50  1  0      
 49 51  2  0      
 40 52  1  0      
 24 53  1  1      
 53 54  1  0      
 53 55  2  0      
 52 56  1  0      
 40 57  1  6      
 41 58  1  0      
 44 59  1  0      
 44 60  2  0      
 31 61  1  0      
 61 62  1  0      
 62 63  1  0      
 63 64  1  0      
 64 65  1  0      
 65 66  1  0      
 66 67  1  0      
 67 68  1  0      
 68 69  1  0      
 69 70  1  0      
 70 71  1  0      
 71 72  1  0      
 72 73  1  0      
 73 74  1  0      
 61 75  2  0      
 63 76  1  6      
M  CHG  6  42  -1  45  -1  50  -1  54  -1  58  -1  59  -1
M  END
