la.mol
  ChemDraw06121512492D

131134  0  0  0  0  0  0  0  0999 V2000
   -4.3810    2.8887    0.0000 C   0  0  0  0  0  0  0  0  0  0  0  0
   -4.3810    2.0637    0.0000 C   0  0  0  0  0  0  0  0  0  0  0  0
   -5.0953    1.6512    0.0000 C   0  0  0  0  0  0  0  0  0  0  0  0
   -5.8097    2.0637    0.0000 C   0  0  0  0  0  0  0  0  0  0  0  0
   -5.8097    2.8887    0.0000 C   0  0  0  0  0  0  0  0  0  0  0  0
   -5.0953    3.3012    0.0000 O   0  0  0  0  0  0  0  0  0  0  0  0
   -3.6666    3.3012    0.0000 C   0  0  0  0  0  0  0  0  0  0  0  0
   -2.9518    2.8887    0.0000 O   0  0  0  0  0  0  0  0  0  0  0  0
   -2.2374    3.3012    0.0000 C   0  0  0  0  0  0  0  0  0  0  0  0
   -2.2374    4.1262    0.0000 O   0  0  0  0  0  0  0  0  0  0  0  0
   -1.5231    4.5387    0.0000 C   0  0  0  0  0  0  0  0  0  0  0  0
   -0.8087    4.1262    0.0000 C   0  0  0  0  0  0  0  0  0  0  0  0
   -0.8087    3.3012    0.0000 C   0  0  0  0  0  0  0  0  0  0  0  0
   -1.5231    2.8887    0.0000 C   0  0  0  0  0  0  0  0  0  0  0  0
   -1.5231    5.3637    0.0000 C   0  0  0  0  0  0  0  0  0  0  0  0
   -0.8087    5.7762    0.0000 O   0  0  0  0  0  0  0  0  0  0  0  0
   -0.8087    6.6012    0.0000 C   0  0  0  0  0  0  0  0  0  0  0  0
   -1.5231    7.0137    0.0000 O   0  0  0  0  0  0  0  0  0  0  0  0
   -1.5231    7.8387    0.0000 C   0  0  0  0  0  0  0  0  0  0  0  0
   -0.8087    8.2512    0.0000 C   0  0  0  0  0  0  0  0  0  0  0  0
   -0.0944    7.8387    0.0000 C   0  0  0  0  0  0  0  0  0  0  0  0
   -0.0944    7.0137    0.0000 C   0  0  0  0  0  0  0  0  0  0  0  0
    0.6204    8.2512    0.0000 O   0  0  0  0  0  0  0  0  0  0  0  0
    1.3348    7.8387    0.0000 C   0  0  0  0  0  0  0  0  0  0  0  0
    2.0492    8.2512    0.0000 O   0  0  0  0  0  0  0  0  0  0  0  0
    2.7635    7.8387    0.0000 C   0  0  0  0  0  0  0  0  0  0  0  0
    2.7635    7.0137    0.0000 C   0  0  0  0  0  0  0  0  0  0  0  0
    2.0492    6.6012    0.0000 C   0  0  0  0  0  0  0  0  0  0  0  0
    1.3348    7.0137    0.0000 C   0  0  0  0  0  0  0  0  0  0  0  0
   -6.5245    3.3012    0.0000 O   0  0  0  0  0  0  0  0  0  0  0  0
   -6.5245    1.6512    0.0000 N   0  0  0  0  0  0  0  0  0  0  0  0
   -5.0953    0.8262    0.0000 O   0  0  0  0  0  0  0  0  0  0  0  0
   -3.6666    1.6512    0.0000 O   0  0  0  0  0  0  0  0  0  0  0  0
   -1.5231    2.0637    0.0000 N   0  0  0  0  0  0  0  0  0  0  0  0
   -0.0944    2.8887    0.0000 O   0  0  0  0  0  0  0  0  0  0  0  0
   -0.0944    4.5387    0.0000 O   0  0  0  0  0  0  0  0  0  0  0  0
   -0.8087    9.0762    0.0000 O   0  0  0  0  0  0  0  0  0  0  0  0
   -2.2374    8.2512    0.0000 C   0  0  0  0  0  0  0  0  0  0  0  0
    2.0492    5.7762    0.0000 O   0  0  0  0  0  0  0  0  0  0  0  0
    3.4783    6.6012    0.0000 O   0  0  0  0  0  0  0  0  0  0  0  0
    3.4783    8.2512    0.0000 C   0  0  0  0  0  0  0  0  0  0  0  0
   -6.5245    4.1262    0.0000 P   0  0  0  0  0  0  0  0  0  0  0  0
   -5.8097    4.5387    0.0000 O   0  5  0  0  0  0  0  0  0  0  0  0
   -7.1079    4.7095    0.0000 O   0  0  0  0  0  0  0  0  0  0  0  0
    0.6204    4.1262    0.0000 P   0  0  0  0  0  0  0  0  0  0  0  0
    0.6204    3.3012    0.0000 O   0  5  0  0  0  0  0  0  0  0  0  0
   -2.9518    7.8387    0.0000 C   0  0  0  0  0  0  0  0  0  0  0  0
   -3.6666    8.2512    0.0000 O   0  0  0  0  0  0  0  0  0  0  0  0
   -2.2374    9.0762    0.0000 O   0  0  0  0  0  0  0  0  0  0  0  0
   -0.0944    6.1887    0.0000 C   0  0  0  0  0  0  0  0  0  0  0  0
    0.6204    6.6012    0.0000 O   0  5  0  0  0  0  0  0  0  0  0  0
   -0.0944    5.3637    0.0000 O   0  0  0  0  0  0  0  0  0  0  0  0
    3.4783    9.0762    0.0000 C   0  0  0  0  0  0  0  0  0  0  0  0
    1.3348    8.6637    0.0000 C   0  0  0  0  0  0  0  0  0  0  0  0
    0.6204    9.0762    0.0000 O   0  5  0  0  0  0  0  0  0  0  0  0
    2.0492    9.0762    0.0000 O   0  0  0  0  0  0  0  0  0  0  0  0
    4.1927    9.4887    0.0000 O   0  0  0  0  0  0  0  0  0  0  0  0
    4.1927    7.8387    0.0000 O   0  0  0  0  0  0  0  0  0  0  0  0
   -7.3214    4.3397    0.0000 O   0  5  0  0  0  0  0  0  0  0  0  0
    1.4173    4.3397    0.0000 O   0  5  0  0  0  0  0  0  0  0  0  0
    1.2038    4.7095    0.0000 O   0  0  0  0  0  0  0  0  0  0  0  0
   -6.5245    0.8262    0.0000 C   0  0  0  0  0  0  0  0  0  0  0  0
   -5.8097    0.4137    0.0000 C   0  0  0  0  0  0  0  0  0  0  0  0
   -5.8097   -0.4113    0.0000 C   0  0  0  0  0  0  0  0  0  0  0  0
   -5.0953   -0.8238    0.0000 C   0  0  0  0  0  0  0  0  0  0  0  0
   -5.0953   -1.6488    0.0000 C   0  0  0  0  0  0  0  0  0  0  0  0
   -4.3810   -2.0613    0.0000 C   0  0  0  0  0  0  0  0  0  0  0  0
   -4.3810   -2.8863    0.0000 C   0  0  0  0  0  0  0  0  0  0  0  0
   -3.6666   -3.2988    0.0000 C   0  0  0  0  0  0  0  0  0  0  0  0
   -3.6666   -4.1238    0.0000 C   0  0  0  0  0  0  0  0  0  0  0  0
   -2.9518   -4.5363    0.0000 C   0  0  0  0  0  0  0  0  0  0  0  0
   -2.9518   -5.3613    0.0000 C   0  0  0  0  0  0  0  0  0  0  0  0
   -2.2374   -5.7738    0.0000 C   0  0  0  0  0  0  0  0  0  0  0  0
   -2.2374   -6.5988    0.0000 C   0  0  0  0  0  0  0  0  0  0  0  0
   -1.5231   -7.0113    0.0000 C   0  0  0  0  0  0  0  0  0  0  0  0
   -7.2389    0.4137    0.0000 O   0  0  0  0  0  0  0  0  0  0  0  0
   -6.5245   -0.8238    0.0000 O   0  0  0  0  0  0  0  0  0  0  0  0
   -4.3810    0.4137    0.0000 C   0  0  0  0  0  0  0  0  0  0  0  0
   -4.3810   -0.4113    0.0000 C   0  0  0  0  0  0  0  0  0  0  0  0
   -3.6666   -0.8238    0.0000 C   0  0  0  0  0  0  0  0  0  0  0  0
   -3.6666   -1.6488    0.0000 C   0  0  0  0  0  0  0  0  0  0  0  0
   -2.9518   -2.0613    0.0000 C   0  0  0  0  0  0  0  0  0  0  0  0
   -2.9518   -2.8863    0.0000 C   0  0  0  0  0  0  0  0  0  0  0  0
   -2.2374   -3.2988    0.0000 C   0  0  0  0  0  0  0  0  0  0  0  0
   -2.2374   -4.1238    0.0000 C   0  0  0  0  0  0  0  0  0  0  0  0
   -1.5231   -4.5363    0.0000 C   0  0  0  0  0  0  0  0  0  0  0  0
   -1.5231   -5.3613    0.0000 C   0  0  0  0  0  0  0  0  0  0  0  0
   -0.8087   -5.7738    0.0000 C   0  0  0  0  0  0  0  0  0  0  0  0
   -0.8087   -6.5988    0.0000 C   0  0  0  0  0  0  0  0  0  0  0  0
   -0.0944   -7.0113    0.0000 C   0  0  0  0  0  0  0  0  0  0  0  0
   -0.0944   -7.8363    0.0000 C   0  0  0  0  0  0  0  0  0  0  0  0
   -1.5231    1.2387    0.0000 C   0  0  0  0  0  0  0  0  0  0  0  0
   -0.8087    0.8262    0.0000 C   0  0  0  0  0  0  0  0  0  0  0  0
   -0.8087    0.0012    0.0000 C   0  0  0  0  0  0  0  0  0  0  0  0
   -0.0944   -0.4113    0.0000 C   0  0  0  0  0  0  0  0  0  0  0  0
   -0.0944   -1.2363    0.0000 C   0  0  0  0  0  0  0  0  0  0  0  0
    0.6204   -1.6488    0.0000 C   0  0  0  0  0  0  0  0  0  0  0  0
    0.6204   -2.4738    0.0000 C   0  0  0  0  0  0  0  0  0  0  0  0
    1.3348   -2.8863    0.0000 C   0  0  0  0  0  0  0  0  0  0  0  0
    1.3348   -3.7113    0.0000 C   0  0  0  0  0  0  0  0  0  0  0  0
    2.0492   -4.1238    0.0000 C   0  0  0  0  0  0  0  0  0  0  0  0
    2.0492   -4.9488    0.0000 C   0  0  0  0  0  0  0  0  0  0  0  0
    2.7635   -5.3613    0.0000 C   0  0  0  0  0  0  0  0  0  0  0  0
    2.7635   -6.1863    0.0000 C   0  0  0  0  0  0  0  0  0  0  0  0
    3.4783   -6.5988    0.0000 C   0  0  0  0  0  0  0  0  0  0  0  0
    0.8908    2.4738    0.0000 C   0  0  0  0  0  0  0  0  0  0  0  0
    0.8908    1.6488    0.0000 C   0  0  0  0  0  0  0  0  0  0  0  0
    1.6056    1.2363    0.0000 C   0  0  0  0  0  0  0  0  0  0  0  0
    1.6056    0.4113    0.0000 C   0  0  0  0  0  0  0  0  0  0  0  0
    2.3199   -0.0012    0.0000 C   0  0  0  0  0  0  0  0  0  0  0  0
    2.3199   -0.8262    0.0000 C   0  0  0  0  0  0  0  0  0  0  0  0
    3.0343   -1.2387    0.0000 C   0  0  0  0  0  0  0  0  0  0  0  0
    3.0343   -2.0637    0.0000 C   0  0  0  0  0  0  0  0  0  0  0  0
    3.7487   -2.4762    0.0000 C   0  0  0  0  0  0  0  0  0  0  0  0
    3.7487   -3.3012    0.0000 C   0  0  0  0  0  0  0  0  0  0  0  0
    4.4635   -3.7137    0.0000 C   0  0  0  0  0  0  0  0  0  0  0  0
    4.4635   -4.5387    0.0000 C   0  0  0  0  0  0  0  0  0  0  0  0
    5.1778   -4.9512    0.0000 C   0  0  0  0  0  0  0  0  0  0  0  0
    5.1778   -5.7762    0.0000 C   0  0  0  0  0  0  0  0  0  0  0  0
    5.8922   -6.1887    0.0000 C   0  0  0  0  0  0  0  0  0  0  0  0
    5.8922   -7.0137    0.0000 C   0  0  0  0  0  0  0  0  0  0  0  0
    6.6066   -7.4262    0.0000 C   0  0  0  0  0  0  0  0  0  0  0  0
    6.6066   -8.2512    0.0000 C   0  0  0  0  0  0  0  0  0  0  0  0
    7.3214   -8.6637    0.0000 C   0  0  0  0  0  0  0  0  0  0  0  0
    7.3214   -9.4887    0.0000 C   0  0  0  0  0  0  0  0  0  0  0  0
    1.5784    2.9300    0.0000 O   0  0  0  0  0  0  0  0  0  0  0  0
    2.3199    1.6488    0.0000 O   0  0  0  0  0  0  0  0  0  0  0  0
   -2.2374    0.8262    0.0000 O   0  0  0  0  0  0  0  0  0  0  0  0
   -1.5231   -0.4113    0.0000 O   0  0  0  0  0  0  0  0  0  0  0  0
   -3.6666    0.8262    0.0000 O   0  0  0  0  0  0  0  0  0  0  0  0
   -2.9518   -0.4113    0.0000 O   0  0  0  0  0  0  0  0  0  0  0  0
  1  2  1  0      
  2  3  1  0      
  3  4  1  0      
  4  5  1  0      
  5  6  1  0      
  6  1  1  0      
  1  7  1  1      
  7  8  1  0      
  9  8  1  1      
  9 10  1  0      
 10 11  1  0      
 11 12  1  0      
 12 13  1  0      
 13 14  1  0      
 14  9  1  0      
 11 15  1  1      
 15 16  1  0      
 17 16  1  6      
 17 18  1  0      
 18 19  1  0      
 19 20  1  0      
 20 21  1  0      
 21 22  1  0      
 22 17  1  0      
 21 23  1  1      
 24 23  1  6      
 24 25  1  0      
 25 26  1  0      
 26 27  1  0      
 27 28  1  0      
 28 29  1  0      
 29 24  1  0      
  5 30  1  6      
  4 31  1  6      
  3 32  1  1      
  2 33  1  6      
 14 34  1  6      
 13 35  1  1      
 12 36  1  6      
 20 37  1  1      
 19 38  1  1      
 28 39  1  1      
 27 40  1  1      
 26 41  1  1      
 30 42  1  0      
 42 43  1  0      
 42 44  2  0      
 36 45  1  0      
 45 46  1  0      
 38 47  1  0      
 47 48  1  0      
 38 49  1  6      
 17 50  1  1      
 50 51  1  0      
 50 52  2  0      
 41 53  1  0      
 24 54  1  1      
 54 55  1  0      
 54 56  2  0      
 53 57  1  0      
 41 58  1  6      
 42 59  1  0      
 45 60  1  0      
 45 61  2  0      
 31 62  1  0      
 62 63  1  0      
 63 64  1  0      
 64 65  1  0      
 65 66  1  0      
 66 67  1  0      
 67 68  1  0      
 68 69  1  0      
 69 70  1  0      
 70 71  1  0      
 71 72  1  0      
 72 73  1  0      
 73 74  1  0      
 74 75  1  0      
 62 76  2  0      
 64 77  1  6      
 32 78  1  0      
 78 79  1  0      
 79 80  1  0      
 80 81  1  0      
 81 82  1  0      
 82 83  1  0      
 83 84  1  0      
 84 85  1  0      
 85 86  1  0      
 86 87  1  0      
 87 88  1  0      
 88 89  1  0      
 89 90  1  0      
 90 91  1  0      
 34 92  1  0      
 92 93  1  0      
 93 94  1  0      
 94 95  1  0      
 95 96  1  0      
 96 97  1  0      
 97 98  1  0      
 98 99  1  0      
 99100  1  0      
100101  1  0      
101102  1  0      
102103  1  0      
103104  1  0      
104105  1  0      
 35106  1  0      
106107  1  0      
107108  1  0      
108109  1  0      
109110  1  0      
110111  1  0      
111112  1  0      
112113  1  0      
113114  1  0      
114115  1  0      
115116  1  0      
116117  1  0      
117118  1  0      
118119  1  0      
119120  1  0      
120121  1  0      
121122  1  0      
122123  1  0      
123124  1  0      
124125  1  0      
106126  2  0      
108127  1  1      
 92128  2  0      
 94129  1  6      
 78130  2  0      
 80131  1  1      
M  CHG  6  43  -1  46  -1  51  -1  55  -1  59  -1  60  -1
M  END
