REMARK  27 active torsions:
REMARK  status: ('A' for Active; 'I' for Inactive)
REMARK    1  A    between atoms: C_6  and  N_10 
REMARK    2  A    between atoms: N_7  and  C_11 
REMARK    3  A    between atoms: C_13  and  C_16 
REMARK    4  A    between atoms: C_16  and  O_17 
REMARK    5  A    between atoms: O_17  and  P_18 
REMARK    6  A    between atoms: P_18  and  O_19 
REMARK    7  A    between atoms: O_19  and  P_20 
REMARK    8  A    between atoms: P_20  and  O_21 
REMARK    9  A    between atoms: O_21  and  C_22 
REMARK   10  A    between atoms: C_22  and  C_23 
REMARK   11  A    between atoms: C_23  and  C_24 
REMARK   12  A    between atoms: C_24  and  C_25 
REMARK       I    between atoms: C_25  and  N_26 
REMARK   13  A    between atoms: N_26  and  C_27 
REMARK   14  A    between atoms: C_27  and  C_28 
REMARK   15  A    between atoms: C_28  and  C_37 
REMARK       I    between atoms: C_37  and  N_38 
REMARK   16  A    between atoms: N_38  and  C_39 
REMARK   17  A    between atoms: C_39  and  C_41 
REMARK   18  A    between atoms: C_41  and  S_42 
REMARK   19  A    between atoms: S_42  and  C_43 
REMARK   20  A    between atoms: C_43  and  C_44 
REMARK       I    between atoms: C_44  and  N_45 
REMARK   21  A    between atoms: N_45  and  C_47 
REMARK   22  A    between atoms: C_47  and  C_48 
REMARK   23  A    between atoms: C_48  and  C_49 
REMARK   24  A    between atoms: C_49  and  C_50 
REMARK   25  A    between atoms: C_50  and  C_51 
REMARK   26  A    between atoms: C_51  and  C_52 
REMARK   27  A    between atoms: C_51  and  N_53 
REMARK       I    between atoms: C_52  and  N_55 
REMARK       I    between atoms: N_53  and  C_56 
ROOT
HETATM    1  C           1       0.438  -2.408   2.713  0.00  0.00     0.083 C 
HETATM    2  C           1       0.643  -1.273   3.734  0.00  0.00     0.020 C 
ENDROOT
BRANCH   1   3
HETATM    3  C           1       1.183  -3.736   3.049  0.00  0.00    -0.014 C 
HETATM    4  C           1       2.692  -3.517   3.289  0.00  0.00     0.018 C 
HETATM    5  C           1       1.020  -4.725   1.872  0.00  0.00     0.018 C 
BRANCH   3   6
HETATM    6  C           1       0.554  -4.343   4.322  0.00  0.00     0.191 C 
BRANCH   6   7
HETATM    7  O           1       1.040  -5.637   4.576  0.00  0.00    -0.289 OA
BRANCH   7   8
HETATM    8  P           1       0.422  -6.494   5.839  0.00  0.00     0.417 P 
HETATM    9  O           1      -0.932  -7.089   4.920  0.00  0.00    -0.624 OA
HETATM   10  O           1      -0.161  -5.572   6.852  0.00  0.00    -0.624 OA
BRANCH   8  11
HETATM   11  O           1       1.431  -7.593   6.438  0.00  0.00    -0.180 OA
BRANCH  11  12
HETATM   12  P           1       2.730  -7.040   7.265  0.00  0.00     0.417 P 
HETATM   13  O           1       2.850  -7.356   8.966  0.00  0.00    -0.624 OA
HETATM   14  O           1       3.183  -5.666   6.908  0.00  0.00    -0.624 OA
BRANCH  12  15
HETATM   15  O           1       3.884  -7.975   6.502  0.00  0.00    -0.287 OA
BRANCH  15  16
HETATM   16  C           1       4.179  -9.244   7.034  0.00  0.00     0.213 C 
BRANCH  16  17
HETATM   17  C           1       5.266  -9.920   6.203  0.00  0.00     0.148 C 
HETATM   18  O           1       6.412  -9.114   6.153  0.00  0.00    -0.359 OA
HETATM   19  C           1       7.385  -9.618   7.047  0.00  0.00     0.231 C 
HETATM   20  C           1       6.770 -10.797   7.794  0.00  0.00     0.057 C 
HETATM   21  C           1       5.707 -11.254   6.796  0.00  0.00     0.038 C 
BRANCH  19  22
HETATM   22  N           1       7.960  -8.610   7.949  0.00  0.00    -0.296 N 
HETATM   23  C           1       9.152  -8.643   8.369  0.00  0.00     0.167 A 
HETATM   24  N           1      10.150  -9.403   8.231  0.00  0.00    -0.222 NA
HETATM   25  C           1       9.214  -7.536   9.133  0.00  0.00     0.149 A 
HETATM   26  C           1      11.191  -9.039   8.856  0.00  0.00     0.237 A 
HETATM   27  N           1      11.347  -8.019   9.595  0.00  0.00    -0.222 NA
HETATM   28  C           1      10.363  -7.233   9.758  0.00  0.00     0.155 A 
HETATM   29  N           1       8.103  -6.923   9.134  0.00  0.00    -0.236 NA
HETATM   30  C           1       7.335  -7.603   8.391  0.00  0.00     0.214 A 
BRANCH  28  31
HETATM   31  N           1      10.423  -6.190  10.476  0.00  0.00    -0.382 N 
HETATM   32  H           1      11.314  -5.939  10.971  0.00  0.00     0.157 HD
HETATM   33  H           1       9.582  -5.571  10.579  0.00  0.00     0.157 HD
ENDBRANCH  28  31
ENDBRANCH  19  22
ENDBRANCH  16  17
ENDBRANCH  15  16
ENDBRANCH  12  15
ENDBRANCH  11  12
ENDBRANCH   8  11
ENDBRANCH   7   8
ENDBRANCH   6   7
ENDBRANCH   3   6
ENDBRANCH   1   3
BRANCH   1  34
HETATM   34  C           1       0.693  -1.853   1.311  0.00  0.00     0.222 C 
HETATM   35  N           1      -0.348  -2.031   0.436  0.00  0.00    -0.360 N 
HETATM   36  H           1      -1.194  -2.485   0.777  0.00  0.00     0.162 HD
HETATM   37  O           1       1.698  -1.265   1.004  0.00  0.00    -0.273 OA
BRANCH  35  38
HETATM   38  C           1      -0.338  -1.527  -0.945  0.00  0.00     0.132 C 
BRANCH  38  39
HETATM   39  C           1      -1.070  -0.175  -1.070  0.00  0.00     0.122 C 
BRANCH  39  40
HETATM   40  C           1      -1.120   0.365  -2.497  0.00  0.00     0.219 C 
HETATM   41  N           1      -1.723   1.590  -2.634  0.00  0.00    -0.360 N 
HETATM   42  H           1      -2.054   2.073  -1.798  0.00  0.00     0.162 HD
HETATM   43  O           1      -0.663  -0.239  -3.437  0.00  0.00    -0.274 OA
BRANCH  41  44
HETATM   44  C           1      -1.791   2.275  -3.934  0.00  0.00     0.132 C 
BRANCH  44  45
HETATM   45  C           1      -2.798   3.443  -3.952  0.00  0.00     0.094 C 
BRANCH  45  46
HETATM   46  S           1      -2.754   4.171  -5.625  0.00  0.00    -0.158 SA
BRANCH  46  47
HETATM   47  C           1      -3.899   5.578  -5.459  0.00  0.00     0.176 C 
BRANCH  47  48
HETATM   48  C           1      -3.973   6.439  -6.725  0.00  0.00     0.226 C 
HETATM   49  N           1      -5.064   7.268  -6.787  0.00  0.00    -0.360 N 
HETATM   50  H           1      -5.756   7.230  -6.039  0.00  0.00     0.162 HD
HETATM   51  O           1      -3.147   6.417  -7.606  0.00  0.00    -0.273 OA
BRANCH  49  52
HETATM   52  C           1      -5.310   8.137  -7.946  0.00  0.00     0.122 C 
BRANCH  52  53
HETATM   53  C           1      -6.386   9.195  -7.655  0.00  0.00     0.020 C 
BRANCH  53  54
HETATM   54  C           1      -6.640  10.089  -8.884  0.00  0.00     0.004 C 
BRANCH  54  55
HETATM   55  C           1      -7.707  11.170  -8.634  0.00  0.00     0.035 C 
BRANCH  55  56
HETATM   56  C           1      -7.986  12.022  -9.887  0.00  0.00     0.176 C 
BRANCH  56  57
HETATM   57  C           1      -9.095  13.034  -9.622  0.00  0.00     0.238 C 
HETATM   58  O           1      -8.886  14.192  -9.368  0.00  0.00    -0.271 OA
HETATM   59  N           1     -10.360  12.541  -9.684  0.00  0.00    -0.368 N 
HETATM   60  H           1     -11.124  13.181  -9.515  0.00  0.00     0.159 HD
HETATM   61  H           1     -10.536  11.571  -9.905  0.00  0.00     0.159 HD
ENDBRANCH  56  57
BRANCH  56  62
HETATM   62  N           1      -6.781  12.756 -10.300  0.00  0.00    -0.348 N 
HETATM   63  C           1      -6.293  12.751 -11.578  0.00  0.00     0.214 C 
HETATM   64  C           1      -5.079  13.639 -11.776  0.00  0.00     0.117 C 
HETATM   65  O           1      -6.781  12.102 -12.469  0.00  0.00    -0.274 OA
HETATM   66  H           1      -6.359  13.387  -9.619  0.00  0.00     0.163 HD
ENDBRANCH  56  62
ENDBRANCH  55  56
ENDBRANCH  54  55
ENDBRANCH  53  54
ENDBRANCH  52  53
ENDBRANCH  49  52
ENDBRANCH  47  48
ENDBRANCH  46  47
ENDBRANCH  45  46
ENDBRANCH  44  45
ENDBRANCH  41  44
ENDBRANCH  39  40
ENDBRANCH  38  39
ENDBRANCH  35  38
ENDBRANCH   1  34
TORSDOF 27
