REMARK  29 active torsions:
REMARK  status: ('A' for Active; 'I' for Inactive)
REMARK    1  A    between atoms: C_1  and  C_2 
REMARK    2  A    between atoms: C_4  and  C_9 
REMARK    3  A    between atoms: C_5  and  C_7 
REMARK    4  A    between atoms: C_6  and  O_8 
REMARK    5  A    between atoms: C_7  and  P_11 
REMARK    6  A    between atoms: C_9  and  O_10 
REMARK    7  A    between atoms: O_10  and  P_15 
REMARK    8  A    between atoms: P_15  and  O_16 
REMARK    9  A    between atoms: O_16  and  P_17 
REMARK   10  A    between atoms: P_17  and  O_18 
REMARK   11  A    between atoms: O_18  and  C_19 
REMARK   12  A    between atoms: C_19  and  C_20 
REMARK   13  A    between atoms: C_20  and  C_21 
REMARK   14  A    between atoms: C_21  and  C_22 
REMARK       I    between atoms: C_22  and  N_23 
REMARK   15  A    between atoms: N_23  and  C_24 
REMARK   16  A    between atoms: C_24  and  C_25 
REMARK   17  A    between atoms: C_25  and  C_34 
REMARK       I    between atoms: C_34  and  N_35 
REMARK   18  A    between atoms: N_35  and  C_36 
REMARK   19  A    between atoms: C_36  and  C_38 
REMARK   20  A    between atoms: C_38  and  S_39 
REMARK   21  A    between atoms: S_39  and  C_40 
REMARK   22  A    between atoms: C_40  and  C_41 
REMARK       I    between atoms: C_41  and  N_42 
REMARK   23  A    between atoms: N_42  and  C_44 
REMARK   24  A    between atoms: C_44  and  C_45 
REMARK   25  A    between atoms: C_45  and  C_46 
REMARK   26  A    between atoms: C_46  and  C_47 
REMARK   27  A    between atoms: C_47  and  C_48 
REMARK   28  A    between atoms: C_48  and  C_49 
REMARK   29  A    between atoms: C_48  and  N_50 
REMARK       I    between atoms: C_49  and  N_52 
REMARK       I    between atoms: N_50  and  C_53 
ROOT
HETATM    1  C           1       0.094  -0.471  -2.800  0.00  0.00     0.083 C 
HETATM    2  C           1      -0.915  -1.599  -3.092  0.00  0.00     0.020 C 
ENDROOT
BRANCH   1   3
HETATM    3  C           1       1.345  -0.465  -3.732  0.00  0.00    -0.014 C 
HETATM    4  C           1       2.058  -1.833  -3.720  0.00  0.00     0.018 C 
HETATM    5  C           1       2.364   0.601  -3.265  0.00  0.00     0.018 C 
BRANCH   3   6
HETATM    6  C           1       0.897  -0.128  -5.171  0.00  0.00     0.191 C 
BRANCH   6   7
HETATM    7  O           1       2.003   0.097  -6.011  0.00  0.00    -0.289 OA
BRANCH   7   8
HETATM    8  P           1       1.760   0.518  -7.575  0.00  0.00     0.417 P 
HETATM    9  O           1       2.567   2.055  -7.434  0.00  0.00    -0.624 OA
HETATM   10  O           1       0.341   0.880  -7.842  0.00  0.00    -0.624 OA
BRANCH   8  11
HETATM   11  O           1       2.431  -0.401  -8.701  0.00  0.00    -0.180 OA
BRANCH  11  12
HETATM   12  P           1       1.920  -1.962  -8.849  0.00  0.00     0.417 P 
HETATM   13  O           1       0.938  -2.309 -10.235  0.00  0.00    -0.624 OA
HETATM   14  O           1       1.404  -2.543  -7.579  0.00  0.00    -0.624 OA
BRANCH  12  15
HETATM   15  O           1       3.485  -2.544  -8.936  0.00  0.00    -0.287 OA
BRANCH  15  16
HETATM   16  C           1       4.180  -2.402 -10.151  0.00  0.00     0.213 C 
BRANCH  16  17
HETATM   17  C           1       5.654  -2.795 -10.011  0.00  0.00     0.154 C 
HETATM   18  O           1       5.821  -4.197  -9.872  0.00  0.00    -0.371 OA
HETATM   19  C           1       6.669  -4.634 -10.914  0.00  0.00     0.184 C 
HETATM   20  C           1       6.309  -3.681 -12.030  0.00  0.00     0.159 C 
HETATM   21  C           1       6.470  -2.367 -11.267  0.00  0.00     0.061 C 
BRANCH  19  22
HETATM   22  C           1       6.429  -6.087 -11.284  0.00  0.00    -0.027 A 
HETATM   23  C           1       7.461  -6.919 -11.518  0.00  0.00     0.010 A 
HETATM   24  C           1       7.254  -8.202 -11.853  0.00  0.00     0.001 A 
HETATM   25  C           1       6.004  -8.675 -11.965  0.00  0.00     0.000 A 
HETATM   26  C           1       4.966  -7.856 -11.741  0.00  0.00     0.001 A 
HETATM   27  C           1       5.181  -6.574 -11.406  0.00  0.00     0.010 A 
ENDBRANCH  19  22
BRANCH  20  28
HETATM   28  O           1       6.986  -3.855 -13.247  0.00  0.00    -0.392 OA
HETATM   29  H           1       7.768  -3.322 -13.366  0.00  0.00     0.210 HD
ENDBRANCH  20  28
BRANCH  21  30
HETATM   30  C           1       7.876  -1.899 -10.813  0.00  0.00     0.155 C 
BRANCH  30  31
HETATM   31  P           1       9.287  -2.141 -12.012  0.00  0.00     0.260 P 
HETATM   32  O           1      10.864  -1.617 -11.526  0.00  0.00    -0.640 OA
HETATM   33  O           1       9.196  -3.878 -12.017  0.00  0.00    -0.640 OA
HETATM   34  O           1       8.874  -1.726 -13.381  0.00  0.00    -0.640 OA
ENDBRANCH  30  31
ENDBRANCH  21  30
ENDBRANCH  16  17
ENDBRANCH  15  16
ENDBRANCH  12  15
ENDBRANCH  11  12
ENDBRANCH   8  11
ENDBRANCH   7   8
ENDBRANCH   6   7
ENDBRANCH   3   6
ENDBRANCH   1   3
BRANCH   1  35
HETATM   35  C           1       0.411  -0.424  -1.304  0.00  0.00     0.222 C 
HETATM   36  N           1       0.720   0.824  -0.833  0.00  0.00    -0.360 N 
HETATM   37  H           1       0.672   1.611  -1.480  0.00  0.00     0.162 HD
HETATM   38  O           1       0.358  -1.385  -0.578  0.00  0.00    -0.273 OA
BRANCH  36  39
HETATM   39  C           1       1.048   1.093   0.570  0.00  0.00     0.132 C 
BRANCH  39  40
HETATM   40  C           1      -0.227   1.271   1.411  0.00  0.00     0.122 C 
BRANCH  40  41
HETATM   41  C           1       0.024   1.702   2.849  0.00  0.00     0.219 C 
HETATM   42  N           1      -1.110   1.796   3.610  0.00  0.00    -0.360 N 
HETATM   43  H           1      -2.010   1.609   3.167  0.00  0.00     0.162 HD
HETATM   44  O           1       1.121   1.948   3.286  0.00  0.00    -0.274 OA
BRANCH  42  45
HETATM   45  C           1      -1.083   2.236   5.011  0.00  0.00     0.132 C 
BRANCH  45  46
HETATM   46  C           1      -2.426   1.916   5.688  0.00  0.00     0.094 C 
BRANCH  46  47
HETATM   47  S           1      -2.367   2.467   7.428  0.00  0.00    -0.158 SA
BRANCH  47  48
HETATM   48  C           1      -4.018   1.897   7.939  0.00  0.00     0.176 C 
BRANCH  48  49
HETATM   49  C           1      -4.211   2.083   9.440  0.00  0.00     0.226 C 
HETATM   50  N           1      -4.145   3.383   9.861  0.00  0.00    -0.360 N 
HETATM   51  H           1      -4.010   4.115   9.162  0.00  0.00     0.162 HD
HETATM   52  O           1      -4.417   1.160  10.189  0.00  0.00    -0.273 OA
BRANCH  50  53
HETATM   53  C           1      -4.339   3.766  11.265  0.00  0.00     0.122 C 
BRANCH  53  54
HETATM   54  C           1      -5.833   3.927  11.589  0.00  0.00     0.020 C 
BRANCH  54  55
HETATM   55  C           1      -6.073   4.296  13.064  0.00  0.00     0.004 C 
BRANCH  55  56
HETATM   56  C           1      -7.567   4.501  13.367  0.00  0.00     0.035 C 
BRANCH  56  57
HETATM   57  C           1      -7.833   4.839  14.845  0.00  0.00     0.176 C 
BRANCH  57  58
HETATM   58  C           1      -9.305   5.169  15.065  0.00  0.00     0.238 C 
HETATM   59  O           1     -10.086   4.396  15.555  0.00  0.00    -0.271 OA
HETATM   60  N           1      -9.691   6.407  14.660  0.00  0.00    -0.368 N 
HETATM   61  H           1     -10.660   6.663  14.784  0.00  0.00     0.159 HD
HETATM   62  H           1      -9.030   7.058  14.259  0.00  0.00     0.159 HD
ENDBRANCH  57  58
BRANCH  57  63
HETATM   63  N           1      -7.498   3.705  15.716  0.00  0.00    -0.348 N 
HETATM   64  C           1      -6.536   3.749  16.687  0.00  0.00     0.214 C 
HETATM   65  C           1      -6.419   2.471  17.495  0.00  0.00     0.117 C 
HETATM   66  O           1      -5.841   4.714  16.885  0.00  0.00    -0.274 OA
HETATM   67  H           1      -8.086   2.874  15.642  0.00  0.00     0.163 HD
ENDBRANCH  57  63
ENDBRANCH  56  57
ENDBRANCH  55  56
ENDBRANCH  54  55
ENDBRANCH  53  54
ENDBRANCH  50  53
ENDBRANCH  48  49
ENDBRANCH  47  48
ENDBRANCH  46  47
ENDBRANCH  45  46
ENDBRANCH  42  45
ENDBRANCH  40  41
ENDBRANCH  39  40
ENDBRANCH  36  39
ENDBRANCH   1  35
TORSDOF 29
