REMARK  8 active torsions:
REMARK  status: ('A' for Active; 'I' for Inactive)
REMARK    1  A    between atoms: C_1  and  C_4 
REMARK    2  A    between atoms: C_5  and  C_6 
REMARK    3  A    between atoms: C_6  and  C_7 
REMARK    4  A    between atoms: C_8  and  C_9 
REMARK    5  A    between atoms: C_8  and  O_20 
REMARK    6  A    between atoms: C_10  and  C_11 
REMARK    7  A    between atoms: C_14  and  O_18 
REMARK    8  A    between atoms: O_17  and  C_24 
ROOT
HETATM    1  C           1       0.358  -0.616   0.165  0.00  0.00     0.091 C 
HETATM    2  C           1      -0.534  -1.600   0.426  0.00  0.00     0.069 C 
ENDROOT
BRANCH   1   3
HETATM    3  C           1       1.721  -0.713   0.193  0.00  0.00     0.174 C 
HETATM    4  O           1       2.281  -1.753   0.472  0.00  0.00    -0.288 OA
BRANCH   3   5
HETATM    5  C           1       2.426   0.420  -0.108  0.00  0.00     0.055 C 
HETATM    6  C           1       3.771   0.491  -0.125  0.00  0.00     0.015 C 
BRANCH   6   7
HETATM    7  C           1       4.539   1.567  -0.410  0.00  0.00    -0.036 A 
HETATM    8  C           1       5.881   1.439  -0.374  0.00  0.00     0.014 A 
HETATM    9  C           1       6.700   2.467  -0.646  0.00  0.00     0.037 A 
HETATM   10  C           1       6.217   3.677  -0.970  0.00  0.00     0.065 A 
HETATM   11  C           1       4.882   3.812  -1.008  0.00  0.00     0.037 A 
HETATM   12  C           1       4.062   2.785  -0.735  0.00  0.00     0.014 A 
BRANCH  10  13
HETATM   13  O           1       7.039   4.725  -1.248  0.00  0.00    -0.361 OA
HETATM   14  H           1       6.499   5.505  -1.456  0.00  0.00     0.217 HD
ENDBRANCH  10  13
ENDBRANCH   6   7
ENDBRANCH   3   5
ENDBRANCH   1   3
BRANCH   2  15
HETATM   15  C           1      -1.849  -1.291   0.341  0.00  0.00     0.037 C 
HETATM   16  C           1      -2.841  -2.172   0.575  0.00  0.00     0.014 C 
BRANCH  16  17
HETATM   17  C           1      -4.173  -1.955   0.514  0.00  0.00    -0.036 A 
HETATM   18  C           1      -5.014  -2.975   0.785  0.00  0.00     0.014 A 
HETATM   19  C           1      -6.347  -2.826   0.743  0.00  0.00     0.037 A 
HETATM   20  C           1      -6.909  -1.648   0.428  0.00  0.00     0.065 A 
HETATM   21  C           1      -6.079  -0.629   0.158  0.00  0.00     0.037 A 
HETATM   22  C           1      -4.745  -0.776   0.199  0.00  0.00     0.014 A 
BRANCH  20  23
HETATM   23  O           1      -8.259  -1.488   0.383  0.00  0.00    -0.361 OA
HETATM   24  H           1      -8.460  -0.570   0.138  0.00  0.00     0.217 HD
ENDBRANCH  20  23
ENDBRANCH  16  17
ENDBRANCH   2  15
BRANCH   2  25
HETATM   25  O           1      -0.165  -2.869   0.765  0.00  0.00    -0.361 OA
HETATM   26  H           1       0.790  -3.004   0.802  0.00  0.00     0.217 HD
ENDBRANCH   2  25
TORSDOF 8
