REMARK  6 active torsions:
REMARK  status: ('A' for Active; 'I' for Inactive)
REMARK    1  A    between atoms: C_4  and  C_7 
REMARK    2  A    between atoms: C_8  and  C_9 
REMARK    3  A    between atoms: C_9  and  C_10 
REMARK    4  A    between atoms: C_11  and  C_12 
REMARK    5  A    between atoms: C_11  and  O_21 
REMARK    6  A    between atoms: C_13  and  C_14 
ROOT
HETATM    1  C           1       0.299  -0.463   0.128  0.00  0.00     0.091 C 
HETATM    2  C           1      -0.592  -1.447   0.390  0.00  0.00     0.069 C 
ENDROOT
BRANCH   1   3
HETATM    3  C           1       1.662  -0.559   0.157  0.00  0.00     0.174 C 
HETATM    4  O           1       2.223  -1.598   0.436  0.00  0.00    -0.288 OA
BRANCH   3   5
HETATM    5  C           1       2.365   0.574  -0.146  0.00  0.00     0.055 C 
HETATM    6  C           1       3.711   0.648  -0.163  0.00  0.00     0.015 C 
BRANCH   6   7
HETATM    7  C           1       4.477   1.724  -0.451  0.00  0.00    -0.036 A 
HETATM    8  C           1       5.820   1.593  -0.413  0.00  0.00     0.011 A 
HETATM    9  C           1       6.643   2.618  -0.686  0.00  0.00     0.001 A 
HETATM   10  C           1       6.138   3.816  -1.009  0.00  0.00     0.000 A 
HETATM   11  C           1       4.808   3.972  -1.054  0.00  0.00     0.001 A 
HETATM   12  C           1       3.994   2.940  -0.778  0.00  0.00     0.011 A 
ENDBRANCH   6   7
ENDBRANCH   3   5
ENDBRANCH   1   3
BRANCH   2  13
HETATM   13  C           1      -1.907  -1.140   0.305  0.00  0.00     0.037 C 
HETATM   14  C           1      -2.900  -2.020   0.539  0.00  0.00     0.014 C 
BRANCH  14  15
HETATM   15  C           1      -4.233  -1.803   0.477  0.00  0.00    -0.036 A 
HETATM   16  C           1      -5.070  -2.826   0.750  0.00  0.00     0.011 A 
HETATM   17  C           1      -6.404  -2.684   0.708  0.00  0.00     0.001 A 
HETATM   18  C           1      -6.943  -1.500   0.388  0.00  0.00     0.000 A 
HETATM   19  C           1      -6.133  -0.469   0.112  0.00  0.00     0.001 A 
HETATM   20  C           1      -4.800  -0.622   0.158  0.00  0.00     0.011 A 
ENDBRANCH  14  15
ENDBRANCH   2  13
BRANCH   2  21
HETATM   21  O           1      -0.222  -2.716   0.731  0.00  0.00    -0.361 OA
HETATM   22  H           1       0.733  -2.849   0.768  0.00  0.00     0.217 HD
ENDBRANCH   2  21
TORSDOF 6
