REMARK  9 active torsions:
REMARK  status: ('A' for Active; 'I' for Inactive)
REMARK    1  A    between atoms: C_1  and  O_22 
REMARK    2  A    between atoms: C_2  and  O_20 
REMARK    3  A    between atoms: C_4  and  C_7 
REMARK    4  A    between atoms: C_8  and  C_9 
REMARK    5  A    between atoms: C_9  and  C_10 
REMARK    6  A    between atoms: C_11  and  C_12 
REMARK    7  A    between atoms: C_13  and  C_14 
REMARK    8  A    between atoms: C_16  and  O_24 
REMARK    9  A    between atoms: C_17  and  O_23 
ROOT
HETATM    1  C           1       1.545  -0.309   0.085  0.00  0.00     0.172 C 
HETATM    2  O           1       2.004  -1.397   0.376  0.00  0.00    -0.289 OA
ENDROOT
BRANCH   1   3
HETATM    3  C           1       2.344   0.763  -0.199  0.00  0.00     0.055 C 
HETATM    4  C           1       3.691   0.726  -0.187  0.00  0.00     0.015 C 
BRANCH   4   5
HETATM    5  C           1       4.549   1.736  -0.455  0.00  0.00    -0.033 A 
HETATM    6  C           1       5.878   1.508  -0.392  0.00  0.00     0.051 A 
HETATM    7  C           1       6.822   2.442  -0.639  0.00  0.00     0.102 A 
HETATM    8  C           1       6.398   3.680  -0.970  0.00  0.00     0.099 A 
HETATM    9  C           1       5.082   3.931  -1.039  0.00  0.00     0.040 A 
HETATM   10  C           1       4.170   2.982  -0.788  0.00  0.00     0.014 A 
BRANCH   7  11
HETATM   11  O           1       8.180   2.226  -0.580  0.00  0.00    -0.353 OA
HETATM   12  C           1       8.662   0.947  -0.238  0.00  0.00     0.210 C 
ENDBRANCH   7  11
BRANCH   8  13
HETATM   13  O           1       7.289   4.676  -1.234  0.00  0.00    -0.358 OA
HETATM   14  H           1       6.801   5.487  -1.451  0.00  0.00     0.217 HD
ENDBRANCH   8  13
ENDBRANCH   4   5
ENDBRANCH   1   3
BRANCH   1  15
HETATM   15  C           1       0.197  -0.094   0.026  0.00  0.00     0.055 C 
HETATM   16  C           1      -0.729  -1.039   0.276  0.00  0.00     0.004 C 
BRANCH  16  17
HETATM   17  C           1      -2.053  -0.799   0.210  0.00  0.00     0.001 C 
HETATM   18  C           1      -2.980  -1.743   0.460  0.00  0.00     0.011 C 
BRANCH  18  19
HETATM   19  C           1      -4.323  -1.611   0.422  0.00  0.00    -0.033 A 
HETATM   20  C           1      -5.104  -2.672   0.704  0.00  0.00     0.051 A 
HETATM   21  C           1      -6.454  -2.671   0.701  0.00  0.00     0.102 A 
HETATM   22  C           1      -7.066  -1.505   0.390  0.00  0.00     0.099 A 
HETATM   23  C           1      -6.306  -0.433   0.105  0.00  0.00     0.040 A 
HETATM   24  C           1      -4.967  -0.472   0.118  0.00  0.00     0.014 A 
BRANCH  21  25
HETATM   25  O           1      -7.067  -3.863   1.018  0.00  0.00    -0.353 OA
HETATM   26  C           1      -8.469  -3.976   1.046  0.00  0.00     0.210 C 
ENDBRANCH  21  25
BRANCH  22  27
HETATM   27  O           1      -8.417  -1.347   0.346  0.00  0.00    -0.358 OA
HETATM   28  H           1      -8.632  -0.433   0.101  0.00  0.00     0.217 HD
ENDBRANCH  22  27
ENDBRANCH  18  19
ENDBRANCH  16  17
ENDBRANCH   1  15
TORSDOF 9
