REMARK  9 active torsions:
REMARK  status: ('A' for Active; 'I' for Inactive)
REMARK    1  A    between atoms: C_1  and  O_22 
REMARK    2  A    between atoms: C_2  and  O_20 
REMARK    3  A    between atoms: C_4  and  C_7 
REMARK    4  A    between atoms: C_8  and  C_9 
REMARK    5  A    between atoms: C_9  and  C_10 
REMARK    6  A    between atoms: C_11  and  C_12 
REMARK    7  A    between atoms: C_13  and  C_14 
REMARK    8  A    between atoms: C_16  and  O_24 
REMARK    9  A    between atoms: C_17  and  O_23 
ROOT
HETATM    1  C           1       0.397  -0.626   0.172  0.00  0.00     0.017 C 
HETATM    2  C           1      -0.569  -1.573   0.278  0.00  0.00    -0.061 C 
HETATM    3  C           1      -0.260  -3.057   0.335  0.00  0.00     0.048 C 
ENDROOT
BRANCH   1   4
HETATM    4  C           1       1.750  -0.656   0.277  0.00  0.00    -0.045 C 
HETATM    5  C           1       2.406  -1.701   0.819  0.00  0.00     0.023 C 
BRANCH   4   6
HETATM    6  C           1       2.427   0.455  -0.114  0.00  0.00     0.011 C 
HETATM    7  C           1       3.753   0.699  -0.085  0.00  0.00     0.012 C 
BRANCH   7   8
HETATM    8  C           1       4.403   1.817  -0.484  0.00  0.00    -0.033 A 
HETATM    9  C           1       5.749   1.870  -0.381  0.00  0.00     0.051 A 
HETATM   10  C           1       6.501   2.930  -0.746  0.00  0.00     0.102 A 
HETATM   11  C           1       5.858   4.004  -1.248  0.00  0.00     0.099 A 
HETATM   12  C           1       4.521   3.978  -1.361  0.00  0.00     0.040 A 
HETATM   13  C           1       3.803   2.910  -0.989  0.00  0.00     0.014 A 
BRANCH  10  14
HETATM   14  O           1       7.873   2.995  -0.649  0.00  0.00    -0.353 OA
HETATM   15  C           1       8.584   1.886  -0.152  0.00  0.00     0.210 C 
ENDBRANCH  10  14
BRANCH  11  16
HETATM   16  O           1       6.546   5.112  -1.641  0.00  0.00    -0.358 OA
HETATM   17  H           1       5.917   5.775  -1.969  0.00  0.00     0.217 HD
ENDBRANCH  11  16
ENDBRANCH   7   8
ENDBRANCH   4   6
ENDBRANCH   1   4
BRANCH   2  18
HETATM   18  C           1      -1.860  -1.156   0.266  0.00  0.00     0.007 C 
HETATM   19  C           1      -2.964  -1.918   0.398  0.00  0.00     0.012 C 
BRANCH  19  20
HETATM   20  C           1      -4.255  -1.517   0.387  0.00  0.00    -0.033 A 
HETATM   21  C           1      -5.234  -2.430   0.549  0.00  0.00     0.051 A 
HETATM   22  C           1      -6.558  -2.167   0.557  0.00  0.00     0.102 A 
HETATM   23  C           1      -6.928  -0.877   0.388  0.00  0.00     0.099 A 
HETATM   24  C           1      -5.970   0.051   0.224  0.00  0.00     0.040 A 
HETATM   25  C           1      -4.665  -0.248   0.221  0.00  0.00     0.014 A 
BRANCH  22  26
HETATM   26  O           1      -7.394  -3.247   0.738  0.00  0.00    -0.353 OA
HETATM   27  C           1      -8.792  -3.090   0.758  0.00  0.00     0.210 C 
ENDBRANCH  22  26
BRANCH  23  28
HETATM   28  O           1      -8.222  -0.457   0.372  0.00  0.00    -0.358 OA
HETATM   29  H           1      -8.252   0.504   0.238  0.00  0.00     0.217 HD
ENDBRANCH  23  28
ENDBRANCH  19  20
ENDBRANCH   2  18
TORSDOF 9
