REMARK  4 active torsions:
REMARK  status: ('A' for Active; 'I' for Inactive)
REMARK    1  A    between atoms: C_1  and  O_12 
REMARK    2  A    between atoms: C_2  and  O_10 
REMARK    3  A    between atoms: C_4  and  C_7 
REMARK    4  A    between atoms: C_8  and  C_9 
ROOT
HETATM    1  C           1       1.661   2.351  -0.566  0.00  0.00     0.099 A 
HETATM    2  C           1       2.172   1.181  -0.119  0.00  0.00     0.102 A 
HETATM    3  C           1       1.294   0.192   0.151  0.00  0.00     0.051 A 
HETATM    4  C           1      -0.043   0.275   0.002  0.00  0.00    -0.033 A 
HETATM    5  C           1      -0.512   1.450  -0.451  0.00  0.00     0.014 A 
HETATM    6  C           1       0.331   2.455  -0.724  0.00  0.00     0.040 A 
ENDROOT
BRANCH   4   7
HETATM    7  C           1      -0.816  -0.790   0.306  0.00  0.00     0.015 C 
HETATM    8  C           1      -2.156  -0.880   0.217  0.00  0.00     0.050 C 
BRANCH   8   9
HETATM    9  C           1      -2.868  -1.995   0.543  0.00  0.00     0.145 C 
HETATM   10  C           1      -4.378  -1.883   0.369  0.00  0.00     0.096 C 
HETATM   11  O           1      -2.388  -3.031   0.950  0.00  0.00    -0.294 OA
ENDBRANCH   8   9
ENDBRANCH   4   7
BRANCH   2  12
HETATM   12  O           1       3.501   0.896   0.108  0.00  0.00    -0.353 OA
HETATM   13  C           1       4.491   1.886  -0.031  0.00  0.00     0.210 C 
ENDBRANCH   2  12
BRANCH   1  14
HETATM   14  O           1       2.419   3.437  -0.876  0.00  0.00    -0.358 OA
HETATM   15  H           1       1.848   4.157  -1.188  0.00  0.00     0.217 HD
ENDBRANCH   1  14
TORSDOF 4
