REMARK  4 active torsions:
REMARK  status: ('A' for Active; 'I' for Inactive)
REMARK    1  A    between atoms: C_1  and  O_12 
REMARK    2  A    between atoms: C_2  and  O_10 
REMARK    3  A    between atoms: C_4  and  C_7 
REMARK    4  A    between atoms: C_8  and  C_9 
ROOT
HETATM    1  C           1       1.612   2.186  -0.507  0.00  0.00     0.099 A 
HETATM    2  C           1       2.069   0.965  -0.145  0.00  0.00     0.102 A 
HETATM    3  C           1       1.145   0.013   0.101  0.00  0.00     0.051 A 
HETATM    4  C           1      -0.189   0.178  -0.002  0.00  0.00    -0.033 A 
HETATM    5  C           1      -0.604   1.400  -0.375  0.00  0.00     0.014 A 
HETATM    6  C           1       0.285   2.372  -0.618  0.00  0.00     0.040 A 
ENDROOT
BRANCH   4   7
HETATM    7  C           1      -1.011  -0.859   0.268  0.00  0.00     0.011 C 
HETATM    8  C           1      -2.356  -0.875   0.220  0.00  0.00     0.000 C 
BRANCH   8   9
HETATM    9  C           1      -3.079  -1.971   0.512  0.00  0.00    -0.010 C 
HETATM   10  C           1      -4.421  -1.996   0.466  0.00  0.00     0.011 C 
ENDBRANCH   8   9
ENDBRANCH   4   7
BRANCH   2  11
HETATM   11  O           1       3.386   0.599   0.028  0.00  0.00    -0.353 OA
HETATM   12  C           1       4.415   1.557  -0.006  0.00  0.00     0.210 C 
ENDBRANCH   2  11
BRANCH   1  13
HETATM   13  O           1       2.421   3.245  -0.781  0.00  0.00    -0.358 OA
HETATM   14  H           1       1.883   4.009  -1.041  0.00  0.00     0.217 HD
ENDBRANCH   1  13
TORSDOF 4
