REMARK  5 active torsions:
REMARK  status: ('A' for Active; 'I' for Inactive)
REMARK    1  A    between atoms: C_1  and  O_12 
REMARK    2  A    between atoms: C_2  and  O_10 
REMARK    3  A    between atoms: C_4  and  C_7 
REMARK    4  A    between atoms: C_8  and  C_9 
REMARK    5  A    between atoms: C_9  and  O_13 
ROOT
HETATM    1  C           1       1.541   2.436  -0.581  0.00  0.00     0.099 A 
HETATM    2  C           1       2.003   1.278  -0.056  0.00  0.00     0.102 A 
HETATM    3  C           1       1.105   0.287   0.128  0.00  0.00     0.051 A 
HETATM    4  C           1      -0.207   0.364  -0.170  0.00  0.00    -0.034 A 
HETATM    5  C           1      -0.629   1.528  -0.690  0.00  0.00     0.014 A 
HETATM    6  C           1       0.236   2.532  -0.885  0.00  0.00     0.040 A 
ENDROOT
BRANCH   4   7
HETATM    7  C           1      -1.006  -0.699   0.061  0.00  0.00     0.009 C 
HETATM    8  C           1      -2.325  -0.801  -0.174  0.00  0.00    -0.000 C 
BRANCH   8   9
HETATM    9  C           1      -3.130  -2.041   0.125  0.00  0.00     0.191 C 
BRANCH   9  10
HETATM   10  O           1      -4.167  -1.749   1.053  0.00  0.00    -0.397 OA
HETATM   11  H           1      -4.663  -2.551   1.234  0.00  0.00     0.209 HD
ENDBRANCH   9  10
ENDBRANCH   8   9
ENDBRANCH   4   7
BRANCH   2  12
HETATM   12  O           1       3.301   1.000   0.314  0.00  0.00    -0.353 OA
HETATM   13  C           1       4.321   1.958   0.165  0.00  0.00     0.210 C 
ENDBRANCH   2  12
BRANCH   1  14
HETATM   14  O           1       2.325   3.522  -0.823  0.00  0.00    -0.358 OA
HETATM   15  H           1       1.785   4.238  -1.196  0.00  0.00     0.217 HD
ENDBRANCH   1  14
TORSDOF 5
