REMARK  12 active torsions:
REMARK  status: ('A' for Active; 'I' for Inactive)
REMARK    1  A    between atoms: C_1  and  O_26 
REMARK    2  A    between atoms: C_3  and  O_25 
REMARK    3  A    between atoms: C_8  and  O_12 
REMARK    4  A    between atoms: C_9  and  C_11 
REMARK    5  A    between atoms: O_12  and  C_13 
REMARK    6  A    between atoms: C_13  and  C_14 
REMARK    7  A    between atoms: C_16  and  O_31 
REMARK    8  A    between atoms: C_17  and  O_32 
REMARK    9  A    between atoms: C_18  and  O_33 
REMARK   10  A    between atoms: C_21  and  O_28 
REMARK   11  A    between atoms: C_22  and  O_29 
REMARK   12  A    between atoms: C_23  and  O_30 
ROOT
HETATM    1  C           1      -4.429  -1.619   2.104  0.00  0.00     0.068 A 
HETATM    2  C           1      -4.605  -0.317   2.376  0.00  0.00     0.073 A 
HETATM    3  C           1      -3.729   0.625   1.990  0.00  0.00     0.075 A 
HETATM    4  C           1      -2.629   0.253   1.304  0.00  0.00    -0.016 A 
HETATM    5  C           1      -2.423  -1.049   1.020  0.00  0.00    -0.046 A 
HETATM    6  C           1      -3.325  -1.960   1.424  0.00  0.00     0.044 A 
HETATM    7  C           1      -1.637   1.314   0.872  0.00  0.00     0.075 C 
HETATM    8  C           1      -0.703   0.849  -0.252  0.00  0.00     0.145 C 
HETATM    9  C           1      -0.070  -0.488   0.155  0.00  0.00     0.053 C 
HETATM   10  C           1      -1.196  -1.529   0.274  0.00  0.00     0.051 C 
ENDROOT
BRANCH   8  11
HETATM   11  O           1       0.246   1.847  -0.451  0.00  0.00    -0.311 OA
BRANCH  11  12
HETATM   12  C           1       1.145   2.001  -1.488  0.00  0.00     0.293 C 
HETATM   13  O           1       1.903   2.941  -1.303  0.00  0.00    -0.259 OA
BRANCH  12  14
HETATM   14  C           1       1.309   1.292  -2.658  0.00  0.00     0.045 A 
HETATM   15  C           1       0.541   0.263  -3.061  0.00  0.00     0.057 A 
HETATM   16  C           1       0.735  -0.410  -4.208  0.00  0.00     0.102 A 
HETATM   17  C           1       1.743  -0.052  -5.018  0.00  0.00     0.132 A 
HETATM   18  C           1       2.536   0.972  -4.669  0.00  0.00     0.102 A 
HETATM   19  C           1       2.306   1.615  -3.512  0.00  0.00     0.057 A 
BRANCH  16  20
HETATM   20  O           1      -0.069  -1.446  -4.571  0.00  0.00    -0.358 OA
HETATM   21  H           1       0.237  -1.788  -5.428  0.00  0.00     0.217 HD
ENDBRANCH  16  20
BRANCH  17  22
HETATM   22  O           1       1.963  -0.713  -6.184  0.00  0.00    -0.356 OA
HETATM   23  H           1       2.727  -0.314  -6.631  0.00  0.00     0.218 HD
ENDBRANCH  17  22
BRANCH  18  24
HETATM   24  O           1       3.558   1.339  -5.487  0.00  0.00    -0.358 OA
HETATM   25  H           1       4.043   2.084  -5.098  0.00  0.00     0.217 HD
ENDBRANCH  18  24
ENDBRANCH  12  14
ENDBRANCH  11  12
ENDBRANCH   8  11
BRANCH   9  26
HETATM   26  C           1       0.839  -0.381   1.375  0.00  0.00    -0.046 A 
HETATM   27  C           1       2.133  -0.047   1.221  0.00  0.00     0.047 A 
HETATM   28  C           1       2.977   0.062   2.259  0.00  0.00     0.102 A 
HETATM   29  C           1       2.517  -0.167   3.500  0.00  0.00     0.132 A 
HETATM   30  C           1       1.231  -0.507   3.691  0.00  0.00     0.102 A 
HETATM   31  C           1       0.415  -0.611   2.630  0.00  0.00     0.047 A 
BRANCH  28  32
HETATM   32  O           1       4.282   0.402   2.082  0.00  0.00    -0.358 OA
HETATM   33  H           1       4.704   0.453   2.956  0.00  0.00     0.217 HD
ENDBRANCH  28  32
BRANCH  29  34
HETATM   34  O           1       3.348  -0.059   4.570  0.00  0.00    -0.356 OA
HETATM   35  H           1       2.844  -0.248   5.378  0.00  0.00     0.218 HD
ENDBRANCH  29  34
BRANCH  30  36
HETATM   36  O           1       0.771  -0.738   4.949  0.00  0.00    -0.358 OA
HETATM   37  H           1      -0.178  -0.937   4.920  0.00  0.00     0.217 HD
ENDBRANCH  30  36
ENDBRANCH   9  26
BRANCH   3  38
HETATM   38  O           1      -3.966   1.927   2.306  0.00  0.00    -0.360 OA
HETATM   39  H           1      -4.792   1.990   2.812  0.00  0.00     0.217 HD
ENDBRANCH   3  38
BRANCH   1  40
HETATM   40  O           1      -5.328  -2.558   2.503  0.00  0.00    -0.361 OA
HETATM   41  H           1      -5.029  -3.432   2.204  0.00  0.00     0.217 HD
ENDBRANCH   1  40
TORSDOF 12
