REMARK  11 active torsions:
REMARK  status: ('A' for Active; 'I' for Inactive)
REMARK    1  A    between atoms: C_1  and  O_26 
REMARK    2  A    between atoms: C_3  and  O_25 
REMARK    3  A    between atoms: C_8  and  O_12 
REMARK    4  A    between atoms: O_12  and  C_13 
REMARK    5  A    between atoms: C_13  and  C_14 
REMARK    6  A    between atoms: C_16  and  O_31 
REMARK    7  A    between atoms: C_17  and  O_32 
REMARK    8  A    between atoms: C_18  and  O_33 
REMARK    9  A    between atoms: C_21  and  O_28 
REMARK   10  A    between atoms: C_22  and  O_29 
REMARK   11  A    between atoms: C_23  and  O_30 
ROOT
HETATM    1  C           1      -3.762  -0.825  -0.687  0.00  0.00     0.069 A 
HETATM    2  C           1      -3.495  -2.139  -0.734  0.00  0.00     0.074 A 
HETATM    3  C           1      -2.269  -2.641  -0.501  0.00  0.00     0.079 A 
HETATM    4  C           1      -1.272  -1.777  -0.216  0.00  0.00     0.010 A 
HETATM    5  C           1      -1.504  -0.456  -0.167  0.00  0.00    -0.019 A 
HETATM    6  C           1      -2.746   0.004  -0.400  0.00  0.00     0.049 A 
HETATM    7  C           1      -0.015  -2.178   0.026  0.00  0.00     0.053 A 
HETATM    8  C           1       1.011  -1.351   0.315  0.00  0.00     0.091 A 
HETATM    9  C           1       0.779  -0.013   0.389  0.00  0.00     0.009 A 
HETATM   10  C           1      -0.490   0.377   0.128  0.00  0.00     0.027 A 
HETATM   11  C           1       1.714   0.928   0.707  0.00  0.00    -0.018 A 
HETATM   12  C           1       1.605   2.218   0.321  0.00  0.00     0.052 A 
HETATM   13  C           1       2.504   3.175   0.610  0.00  0.00     0.102 A 
HETATM   14  C           1       3.592   2.855   1.326  0.00  0.00     0.132 A 
HETATM   15  C           1       3.750   1.592   1.747  0.00  0.00     0.102 A 
HETATM   16  C           1       2.818   0.674   1.440  0.00  0.00     0.052 A 
ENDROOT
BRANCH   8  17
HETATM   17  O           1       2.232  -1.963   0.470  0.00  0.00    -0.274 OA
BRANCH  17  18
HETATM   18  C           1       3.243  -1.651  -0.415  0.00  0.00     0.298 C 
HETATM   19  O           1       2.968  -1.024  -1.421  0.00  0.00    -0.259 OA
BRANCH  18  20
HETATM   20  C           1       4.527  -2.057  -0.169  0.00  0.00     0.045 A 
HETATM   21  C           1       5.538  -1.780  -1.011  0.00  0.00     0.057 A 
HETATM   22  C           1       6.793  -2.195  -0.768  0.00  0.00     0.102 A 
HETATM   23  C           1       7.046  -2.904   0.346  0.00  0.00     0.132 A 
HETATM   24  C           1       6.056  -3.187   1.208  0.00  0.00     0.102 A 
HETATM   25  C           1       4.810  -2.763   0.941  0.00  0.00     0.057 A 
BRANCH  22  26
HETATM   26  O           1       7.812  -1.921  -1.627  0.00  0.00    -0.358 OA
HETATM   27  H           1       8.626  -2.320  -1.276  0.00  0.00     0.217 HD
ENDBRANCH  22  26
BRANCH  23  28
HETATM   28  O           1       8.307  -3.340   0.606  0.00  0.00    -0.356 OA
HETATM   29  H           1       8.302  -3.841   1.438  0.00  0.00     0.218 HD
ENDBRANCH  23  28
BRANCH  24  30
HETATM   30  O           1       6.324  -3.908   2.329  0.00  0.00    -0.358 OA
HETATM   31  H           1       5.505  -4.072   2.823  0.00  0.00     0.217 HD
ENDBRANCH  24  30
ENDBRANCH  18  20
ENDBRANCH  17  18
ENDBRANCH   8  17
BRANCH   3  32
HETATM   32  O           1      -2.074  -3.987  -0.570  0.00  0.00    -0.360 OA
HETATM   33  H           1      -1.135  -4.193  -0.446  0.00  0.00     0.217 HD
ENDBRANCH   3  32
BRANCH  13  34
HETATM   34  O           1       2.347   4.456   0.179  0.00  0.00    -0.358 OA
HETATM   35  H           1       3.118   4.972   0.469  0.00  0.00     0.217 HD
ENDBRANCH  13  34
BRANCH  15  36
HETATM   36  O           1       4.840   1.262   2.489  0.00  0.00    -0.358 OA
HETATM   37  H           1       4.823   0.313   2.691  0.00  0.00     0.217 HD
ENDBRANCH  15  36
BRANCH   1  38
HETATM   38  O           1      -5.013  -0.345  -0.926  0.00  0.00    -0.361 OA
HETATM   39  H           1      -4.997   0.624  -0.865  0.00  0.00     0.217 HD
ENDBRANCH   1  38
BRANCH  14  40
HETATM   40  O           1       4.524   3.796   1.630  0.00  0.00    -0.356 OA
HETATM   41  H           1       5.233   3.378   2.145  0.00  0.00     0.218 HD
ENDBRANCH  14  40
TORSDOF 11
