REMARK  8 active torsions:
REMARK  status: ('A' for Active; 'I' for Inactive)
REMARK    1  A    between atoms: C_1  and  O_26 
REMARK    2  A    between atoms: C_3  and  O_25 
REMARK    3  A    between atoms: C_8  and  O_12 
REMARK    4  A    between atoms: O_12  and  C_13 
REMARK    5  A    between atoms: C_13  and  C_14 
REMARK    6  A    between atoms: C_16  and  O_28 
REMARK    7  A    between atoms: C_17  and  O_29 
REMARK    8  A    between atoms: C_18  and  O_30 
ROOT
HETATM    1  C           1      -2.940  -3.610   1.860  0.00  0.00     0.071 A 
HETATM    2  C           1      -1.765  -4.168   1.539  0.00  0.00     0.073 A 
HETATM    3  C           1      -0.694  -3.434   1.196  0.00  0.00     0.077 A 
HETATM    4  C           1      -0.803  -2.090   1.179  0.00  0.00     0.011 A 
HETATM    5  C           1      -1.966  -1.485   1.505  0.00  0.00     0.081 A 
HETATM    6  C           1      -3.011  -2.271   1.825  0.00  0.00     0.074 A 
HETATM    7  C           1       0.394  -1.248   0.796  0.00  0.00     0.080 C 
HETATM    8  C           1       0.201   0.205   1.221  0.00  0.00     0.170 C 
HETATM    9  C           1      -1.196   0.656   0.810  0.00  0.00     0.192 C 
HETATM   10  O           1      -2.161  -0.128   1.470  0.00  0.00    -0.338 OA
HETATM   11  C           1      -1.390   0.741  -0.700  0.00  0.00    -0.021 A 
HETATM   12  C           1      -0.953   1.824  -1.367  0.00  0.00     0.049 A 
HETATM   13  C           1      -1.081   1.952  -2.697  0.00  0.00     0.102 A 
HETATM   14  C           1      -1.675   0.967  -3.392  0.00  0.00     0.132 A 
HETATM   15  C           1      -2.132  -0.125  -2.757  0.00  0.00     0.102 A 
HETATM   16  C           1      -1.985  -0.221  -1.426  0.00  0.00     0.049 A 
ENDROOT
BRANCH   8  17
HETATM   17  O           1       1.153   1.042   0.628  0.00  0.00    -0.309 OA
BRANCH  17  18
HETATM   18  C           1       2.460   1.035   1.054  0.00  0.00     0.293 C 
HETATM   19  O           1       2.773   0.327   1.992  0.00  0.00    -0.259 OA
BRANCH  18  20
HETATM   20  C           1       3.398   1.805   0.422  0.00  0.00     0.039 A 
HETATM   21  C           1       3.043   2.577  -0.625  0.00  0.00     0.017 A 
HETATM   22  C           1       3.945   3.341  -1.261  0.00  0.00     0.001 A 
HETATM   23  C           1       5.224   3.347  -0.861  0.00  0.00     0.000 A 
HETATM   24  C           1       5.593   2.585   0.178  0.00  0.00     0.001 A 
HETATM   25  C           1       4.688   1.821   0.813  0.00  0.00     0.017 A 
ENDBRANCH  18  20
ENDBRANCH  17  18
ENDBRANCH   8  17
BRANCH  13  26
HETATM   26  O           1      -0.625   3.052  -3.354  0.00  0.00    -0.358 OA
HETATM   27  H           1      -0.825   2.947  -4.299  0.00  0.00     0.217 HD
ENDBRANCH  13  26
BRANCH  15  28
HETATM   28  O           1      -2.737  -1.116  -3.464  0.00  0.00    -0.358 OA
HETATM   29  H           1      -3.034  -1.816  -2.862  0.00  0.00     0.217 HD
ENDBRANCH  15  28
BRANCH   3  30
HETATM   30  O           1       0.470  -4.060   0.867  0.00  0.00    -0.360 OA
HETATM   31  H           1       1.154  -3.407   0.653  0.00  0.00     0.217 HD
ENDBRANCH   3  30
BRANCH  14  32
HETATM   32  O           1      -1.821   1.070  -4.739  0.00  0.00    -0.356 OA
HETATM   33  H           1      -2.280   0.280  -5.066  0.00  0.00     0.218 HD
ENDBRANCH  14  32
BRANCH   1  34
HETATM   34  O           1      -4.013  -4.376   2.193  0.00  0.00    -0.361 OA
HETATM   35  H           1      -3.755  -5.312   2.164  0.00  0.00     0.217 HD
ENDBRANCH   1  34
TORSDOF 8
