REMARK  8 active torsions:
REMARK  status: ('A' for Active; 'I' for Inactive)
REMARK    1  A    between atoms: C_1  and  O_26 
REMARK    2  A    between atoms: C_3  and  O_25 
REMARK    3  A    between atoms: C_8  and  O_12 
REMARK    4  A    between atoms: O_12  and  C_13 
REMARK    5  A    between atoms: C_13  and  C_14 
REMARK    6  A    between atoms: C_21  and  O_28 
REMARK    7  A    between atoms: C_22  and  O_29 
REMARK    8  A    between atoms: C_23  and  O_30 
ROOT
HETATM    1  C           1      -3.206  -3.371   2.070  0.00  0.00     0.071 A 
HETATM    2  C           1      -2.434  -4.285   1.465  0.00  0.00     0.073 A 
HETATM    3  C           1      -1.377  -3.942   0.711  0.00  0.00     0.077 A 
HETATM    4  C           1      -1.088  -2.635   0.553  0.00  0.00     0.011 A 
HETATM    5  C           1      -1.835  -1.681   1.148  0.00  0.00     0.081 A 
HETATM    6  C           1      -2.888  -2.082   1.885  0.00  0.00     0.074 A 
HETATM    7  C           1       0.096  -2.225  -0.295  0.00  0.00     0.080 C 
HETATM    8  C           1       0.521  -0.790   0.030  0.00  0.00     0.170 C 
HETATM    9  C           1      -0.734   0.078  -0.017  0.00  0.00     0.192 C 
HETATM   10  O           1      -1.617  -0.334   0.999  0.00  0.00    -0.338 OA
HETATM   11  C           1      -1.376   0.191  -1.398  0.00  0.00    -0.026 A 
HETATM   12  C           1      -0.898   1.089  -2.281  0.00  0.00     0.010 A 
HETATM   13  C           1      -1.426   1.225  -3.507  0.00  0.00     0.001 A 
HETATM   14  C           1      -2.460   0.457  -3.879  0.00  0.00     0.000 A 
HETATM   15  C           1      -2.957  -0.438  -3.013  0.00  0.00     0.001 A 
HETATM   16  C           1      -2.420  -0.563  -1.789  0.00  0.00     0.010 A 
ENDROOT
BRANCH   8  17
HETATM   17  O           1       1.477  -0.410  -0.907  0.00  0.00    -0.309 OA
BRANCH  17  18
HETATM   18  C           1       2.321   0.683  -0.901  0.00  0.00     0.294 C 
HETATM   19  O           1       2.973   0.762  -1.932  0.00  0.00    -0.259 OA
BRANCH  18  20
HETATM   20  C           1       2.537   1.658   0.048  0.00  0.00     0.045 A 
HETATM   21  C           1       1.948   1.713   1.257  0.00  0.00     0.057 A 
HETATM   22  C           1       2.183   2.684   2.157  0.00  0.00     0.102 A 
HETATM   23  C           1       3.049   3.663   1.859  0.00  0.00     0.132 A 
HETATM   24  C           1       3.669   3.654   0.669  0.00  0.00     0.102 A 
HETATM   25  C           1       3.406   2.664  -0.200  0.00  0.00     0.057 A 
BRANCH  22  26
HETATM   26  O           1       1.562   2.697   3.368  0.00  0.00    -0.358 OA
HETATM   27  H           1       1.867   3.475   3.863  0.00  0.00     0.217 HD
ENDBRANCH  22  26
BRANCH  23  28
HETATM   28  O           1       3.305   4.657   2.749  0.00  0.00    -0.356 OA
HETATM   29  H           1       3.954   5.266   2.360  0.00  0.00     0.218 HD
ENDBRANCH  23  28
BRANCH  24  30
HETATM   30  O           1       4.549   4.644   0.362  0.00  0.00    -0.358 OA
HETATM   31  H           1       4.912   4.501  -0.526  0.00  0.00     0.217 HD
ENDBRANCH  24  30
ENDBRANCH  18  20
ENDBRANCH  17  18
ENDBRANCH   8  17
BRANCH   3  32
HETATM   32  O           1      -0.640  -4.913   0.104  0.00  0.00    -0.360 OA
HETATM   33  H           1       0.010  -4.512  -0.493  0.00  0.00     0.217 HD
ENDBRANCH   3  32
BRANCH   1  34
HETATM   34  O           1      -4.276  -3.745   2.822  0.00  0.00    -0.361 OA
HETATM   35  H           1      -4.347  -4.713   2.812  0.00  0.00     0.217 HD
ENDBRANCH   1  34
TORSDOF 8
