REMARK  3 active torsions:
REMARK  status: ('A' for Active; 'I' for Inactive)
REMARK    1  A    between atoms: C_8  and  O_12 
REMARK    2  A    between atoms: O_12  and  C_13 
REMARK    3  A    between atoms: C_13  and  C_14 
ROOT
HETATM    1  C           1      -3.047  -3.033   2.356  0.00  0.00    -0.043 A 
HETATM    2  C           1      -2.317  -4.021   1.821  0.00  0.00     0.017 A 
HETATM    3  C           1      -1.256  -3.719   1.056  0.00  0.00    -0.036 A 
HETATM    4  C           1      -0.909  -2.437   0.821  0.00  0.00    -0.015 A 
HETATM    5  C           1      -1.638  -1.433   1.360  0.00  0.00     0.077 A 
HETATM    6  C           1      -2.706  -1.760   2.113  0.00  0.00     0.045 A 
HETATM    7  C           1       0.288  -2.092  -0.042  0.00  0.00     0.077 C 
HETATM    8  C           1       0.744  -0.651   0.209  0.00  0.00     0.170 C 
HETATM    9  C           1      -0.489   0.241   0.114  0.00  0.00     0.192 C 
HETATM   10  O           1      -1.387  -0.101   1.142  0.00  0.00    -0.338 OA
HETATM   11  C           1      -1.121   0.306  -1.275  0.00  0.00    -0.025 A 
HETATM   12  C           1      -0.632   1.163  -2.190  0.00  0.00     0.018 A 
HETATM   13  C           1      -1.147   1.259  -3.427  0.00  0.00    -0.038 A 
HETATM   14  C           1      -2.190   0.483  -3.786  0.00  0.00    -0.032 A 
HETATM   15  C           1      -2.697  -0.378  -2.879  0.00  0.00    -0.038 A 
HETATM   16  C           1      -2.166  -0.454  -1.647  0.00  0.00     0.018 A 
HETATM   17  Cl          1      -0.363  -5.037   0.375  0.00  0.00     0.030 C 
HETATM   18  Cl          1      -4.423  -3.397   3.334  0.00  0.00     0.029 C 
HETATM   19  Cl          1      -0.417   2.406  -4.505  0.00  0.00     0.030 C 
HETATM   20  Cl          1      -2.870   0.594  -5.381  0.00  0.00     0.030 C 
HETATM   21  Cl          1      -4.039  -1.421  -3.229  0.00  0.00     0.030 C 
ENDROOT
BRANCH   8  22
HETATM   22  O           1       1.703  -0.334  -0.748  0.00  0.00    -0.309 OA
BRANCH  22  23
HETATM   23  C           1       2.629   0.693  -0.761  0.00  0.00     0.293 C 
HETATM   24  O           1       3.290   0.688  -1.789  0.00  0.00    -0.259 OA
BRANCH  23  25
HETATM   25  C           1       2.909   1.682   0.158  0.00  0.00     0.040 A 
HETATM   26  C           1       2.291   1.837   1.344  0.00  0.00     0.026 A 
HETATM   27  C           1       2.591   2.818   2.215  0.00  0.00    -0.037 A 
HETATM   28  Cl          1       1.691   2.874   3.700  0.00  0.00     0.030 C 
HETATM   29  C           1       3.555   3.713   1.927  0.00  0.00    -0.032 A 
HETATM   30  Cl          1       3.954   4.986   3.040  0.00  0.00     0.030 C 
HETATM   31  C           1       4.199   3.589   0.750  0.00  0.00    -0.037 A 
HETATM   32  Cl          1       5.460   4.685   0.273  0.00  0.00     0.030 C 
HETATM   33  C           1       3.873   2.597  -0.097  0.00  0.00     0.026 A 
ENDBRANCH  23  25
ENDBRANCH  22  23
ENDBRANCH   8  22
TORSDOF 3
