REMARK  3 active torsions:
REMARK  status: ('A' for Active; 'I' for Inactive)
REMARK    1  A    between atoms: C_8  and  O_12 
REMARK    2  A    between atoms: O_12  and  C_13 
REMARK    3  A    between atoms: C_13  and  C_14 
ROOT
HETATM    1  C           1      -3.042  -2.999   2.382  0.00  0.00     0.122 A 
HETATM    2  C           1      -2.281  -3.975   1.869  0.00  0.00     0.085 A 
HETATM    3  C           1      -1.230  -3.670   1.093  0.00  0.00     0.128 A 
HETATM    4  C           1      -0.931  -2.385   0.826  0.00  0.00     0.017 A 
HETATM    5  C           1      -1.677  -1.384   1.342  0.00  0.00     0.082 A 
HETATM    6  C           1      -2.733  -1.724   2.106  0.00  0.00     0.079 A 
HETATM    7  C           1       0.259  -2.061  -0.048  0.00  0.00     0.080 C 
HETATM    8  C           1       0.705  -0.615   0.186  0.00  0.00     0.170 C 
HETATM    9  C           1      -0.533   0.271   0.067  0.00  0.00     0.192 C 
HETATM   10  O           1      -1.445  -0.055   1.090  0.00  0.00    -0.338 OA
HETATM   11  C           1      -1.154   0.313  -1.328  0.00  0.00    -0.020 A 
HETATM   12  C           1      -0.660   1.156  -2.253  0.00  0.00     0.055 A 
HETATM   13  C           1      -1.170   1.235  -3.492  0.00  0.00     0.158 A 
HETATM   14  C           1      -2.211   0.453  -3.835  0.00  0.00     0.193 A 
HETATM   15  C           1      -2.725  -0.395  -2.925  0.00  0.00     0.158 A 
HETATM   16  C           1      -2.198  -0.454  -1.692  0.00  0.00     0.055 A 
HETATM   17  F           1      -0.496  -4.647   0.586  0.00  0.00    -0.205 F 
HETATM   18  F           1      -4.086  -3.289   3.142  0.00  0.00    -0.206 F 
HETATM   19  F           1      -0.646   2.084  -4.365  0.00  0.00    -0.203 F 
HETATM   20  F           1      -2.726   0.520  -5.055  0.00  0.00    -0.200 F 
HETATM   21  F           1      -3.752  -1.174  -3.235  0.00  0.00    -0.203 F 
ENDROOT
BRANCH   8  22
HETATM   22  O           1       1.671  -0.304  -0.766  0.00  0.00    -0.309 OA
BRANCH  22  23
HETATM   23  C           1       2.633   0.687  -0.746  0.00  0.00     0.294 C 
HETATM   24  O           1       3.324   0.668  -1.754  0.00  0.00    -0.259 OA
BRANCH  23  25
HETATM   25  C           1       2.923   1.658   0.189  0.00  0.00     0.045 A 
HETATM   26  C           1       2.265   1.843   1.351  0.00  0.00     0.063 A 
HETATM   27  C           1       2.581   2.805   2.234  0.00  0.00     0.159 A 
HETATM   28  F           1       1.881   2.920   3.355  0.00  0.00    -0.203 F 
HETATM   29  C           1       3.598   3.645   1.982  0.00  0.00     0.193 A 
HETATM   30  F           1       3.919   4.598   2.847  0.00  0.00    -0.200 F 
HETATM   31  C           1       4.282   3.498   0.835  0.00  0.00     0.159 A 
HETATM   32  F           1       5.292   4.310   0.553  0.00  0.00    -0.203 F 
HETATM   33  C           1       3.940   2.526  -0.027  0.00  0.00     0.063 A 
ENDBRANCH  23  25
ENDBRANCH  22  23
ENDBRANCH   8  22
TORSDOF 3
