REMARK  11 active torsions:
REMARK  status: ('A' for Active; 'I' for Inactive)
REMARK    1  A    between atoms: C_1  and  O_26 
REMARK    2  A    between atoms: C_3  and  O_25 
REMARK    3  A    between atoms: C_8  and  C_12 
REMARK    4  A    between atoms: C_12  and  C_13 
REMARK    5  A    between atoms: C_13  and  C_14 
REMARK    6  A    between atoms: C_16  and  O_31 
REMARK    7  A    between atoms: C_17  and  O_32 
REMARK    8  A    between atoms: C_18  and  O_33 
REMARK    9  A    between atoms: C_21  and  O_28 
REMARK   10  A    between atoms: C_22  and  O_29 
REMARK   11  A    between atoms: C_23  and  O_30 
ROOT
HETATM    1  C           1      -3.627  -2.522   2.336  0.00  0.00     0.071 A 
HETATM    2  C           1      -2.643  -3.427   2.234  0.00  0.00     0.073 A 
HETATM    3  C           1      -1.477  -3.151   1.628  0.00  0.00     0.077 A 
HETATM    4  C           1      -1.289  -1.922   1.106  0.00  0.00     0.009 A 
HETATM    5  C           1      -2.250  -0.976   1.192  0.00  0.00     0.081 A 
HETATM    6  C           1      -3.403  -1.314   1.799  0.00  0.00     0.074 A 
HETATM    7  C           1       0.018  -1.600   0.415  0.00  0.00     0.052 C 
HETATM    8  C           1       0.192  -0.087   0.242  0.00  0.00     0.031 C 
HETATM    9  C           1      -1.114   0.518  -0.278  0.00  0.00     0.167 C 
HETATM   10  O           1      -2.146   0.281   0.651  0.00  0.00    -0.340 OA
HETATM   11  C           1      -1.510   0.141  -1.704  0.00  0.00    -0.023 A 
HETATM   12  C           1      -1.261   0.981  -2.725  0.00  0.00     0.049 A 
HETATM   13  C           1      -1.594   0.696  -3.995  0.00  0.00     0.102 A 
HETATM   14  C           1      -2.208  -0.469  -4.262  0.00  0.00     0.132 A 
HETATM   15  C           1      -2.483  -1.328  -3.266  0.00  0.00     0.102 A 
HETATM   16  C           1      -2.136  -1.008  -2.010  0.00  0.00     0.049 A 
ENDROOT
BRANCH   8  17
HETATM   17  C           1       1.438   0.239  -0.605  0.00  0.00     0.091 C 
BRANCH  17  18
HETATM   18  C           1       1.900   1.694  -0.479  0.00  0.00     0.160 C 
HETATM   19  O           1       1.601   2.431  -1.397  0.00  0.00    -0.292 OA
BRANCH  18  20
HETATM   20  C           1       2.615   2.123   0.605  0.00  0.00     0.015 A 
HETATM   21  C           1       2.954   1.309   1.622  0.00  0.00     0.054 A 
HETATM   22  C           1       3.654   1.743   2.683  0.00  0.00     0.102 A 
HETATM   23  C           1       4.032   3.031   2.740  0.00  0.00     0.132 A 
HETATM   24  C           1       3.711   3.870   1.742  0.00  0.00     0.102 A 
HETATM   25  C           1       3.010   3.408   0.694  0.00  0.00     0.054 A 
BRANCH  22  26
HETATM   26  O           1       3.987   0.908   3.704  0.00  0.00    -0.358 OA
HETATM   27  H           1       4.484   1.414   4.367  0.00  0.00     0.217 HD
ENDBRANCH  22  26
BRANCH  23  28
HETATM   28  O           1       4.741   3.492   3.804  0.00  0.00    -0.356 OA
HETATM   29  H           1       4.923   4.437   3.676  0.00  0.00     0.218 HD
ENDBRANCH  23  28
BRANCH  24  30
HETATM   30  O           1       4.097   5.172   1.806  0.00  0.00    -0.358 OA
HETATM   31  H           1       3.790   5.649   1.019  0.00  0.00     0.217 HD
ENDBRANCH  24  30
ENDBRANCH  18  20
ENDBRANCH  17  18
ENDBRANCH   8  17
BRANCH   3  32
HETATM   32  O           1      -0.521  -4.117   1.539  0.00  0.00    -0.360 OA
HETATM   33  H           1       0.239  -3.788   1.036  0.00  0.00     0.217 HD
ENDBRANCH   3  32
BRANCH  13  34
HETATM   34  O           1      -1.332   1.559  -5.013  0.00  0.00    -0.358 OA
HETATM   35  H           1      -1.664   1.165  -5.837  0.00  0.00     0.217 HD
ENDBRANCH  13  34
BRANCH  15  36
HETATM   36  O           1      -3.116  -2.500  -3.538  0.00  0.00    -0.358 OA
HETATM   37  H           1      -3.289  -2.979  -2.712  0.00  0.00     0.217 HD
ENDBRANCH  15  36
BRANCH   1  38
HETATM   38  O           1      -4.803  -2.830   2.946  0.00  0.00    -0.361 OA
HETATM   39  H           1      -4.766  -3.747   3.261  0.00  0.00     0.217 HD
ENDBRANCH   1  38
BRANCH  14  40
HETATM   40  O           1      -2.562  -0.783  -5.536  0.00  0.00    -0.356 OA
HETATM   41  H           1      -3.009  -1.645  -5.533  0.00  0.00     0.218 HD
ENDBRANCH  14  40
TORSDOF 11
