REMARK  11 active torsions:
REMARK  status: ('A' for Active; 'I' for Inactive)
REMARK    1  A    between atoms: C_1  and  O_26 
REMARK    2  A    between atoms: C_3  and  O_25 
REMARK    3  A    between atoms: C_8  and  C_12 
REMARK    4  A    between atoms: C_12  and  C_13 
REMARK    5  A    between atoms: C_13  and  C_14 
REMARK    6  A    between atoms: C_16  and  O_30 
REMARK    7  A    between atoms: C_17  and  O_31 
REMARK    8  A    between atoms: C_18  and  O_32 
REMARK    9  A    between atoms: C_21  and  O_27 
REMARK   10  A    between atoms: C_22  and  O_28 
REMARK   11  A    between atoms: C_23  and  O_29 
ROOT
HETATM    1  C           1      -3.634  -1.633   4.195  0.00  0.00     0.071 A 
HETATM    2  C           1      -3.121  -2.782   3.734  0.00  0.00     0.073 A 
HETATM    3  C           1      -2.120  -2.812   2.840  0.00  0.00     0.077 A 
HETATM    4  C           1      -1.613  -1.646   2.392  0.00  0.00     0.009 A 
HETATM    5  C           1      -2.093  -0.464   2.834  0.00  0.00     0.081 A 
HETATM    6  C           1      -3.106  -0.495   3.720  0.00  0.00     0.074 A 
HETATM    7  C           1      -0.487  -1.661   1.382  0.00  0.00     0.051 C 
HETATM    8  C           1       0.217  -0.299   1.312  0.00  0.00     0.024 C 
HETATM    9  C           1      -0.852   0.795   1.234  0.00  0.00     0.166 C 
HETATM   10  O           1      -1.653   0.758   2.392  0.00  0.00    -0.340 OA
HETATM   11  C           1      -1.660   0.818  -0.060  0.00  0.00    -0.023 A 
HETATM   12  C           1      -1.237   1.543  -1.112  0.00  0.00     0.049 A 
HETATM   13  C           1      -1.907   1.590  -2.274  0.00  0.00     0.102 A 
HETATM   14  C           1      -3.052   0.897  -2.396  0.00  0.00     0.132 A 
HETATM   15  C           1      -3.511   0.170  -1.364  0.00  0.00     0.102 A 
HETATM   16  C           1      -2.813   0.144  -0.217  0.00  0.00     0.049 A 
ENDROOT
BRANCH   8  17
HETATM   17  C           1       1.261  -0.282   0.175  0.00  0.00     0.012 C 
BRANCH  17  18
HETATM   18  C           1       2.225   0.914   0.238  0.00  0.00     0.039 C 
BRANCH  18  19
HETATM   19  C           1       3.296   0.997  -0.834  0.00  0.00    -0.053 A 
HETATM   20  C           1       4.224   1.967  -0.753  0.00  0.00     0.046 A 
HETATM   21  C           1       5.198   2.106  -1.666  0.00  0.00     0.102 A 
HETATM   22  C           1       5.250   1.248  -2.699  0.00  0.00     0.132 A 
HETATM   23  C           1       4.337   0.267  -2.809  0.00  0.00     0.102 A 
HETATM   24  C           1       3.375   0.156  -1.879  0.00  0.00     0.046 A 
BRANCH  21  25
HETATM   25  O           1       6.129   3.094  -1.571  0.00  0.00    -0.358 OA
HETATM   26  H           1       6.729   3.019  -2.332  0.00  0.00     0.217 HD
ENDBRANCH  21  25
BRANCH  22  27
HETATM   27  O           1       6.223   1.367  -3.640  0.00  0.00    -0.356 OA
HETATM   28  H           1       6.099   0.674  -4.309  0.00  0.00     0.218 HD
ENDBRANCH  22  27
BRANCH  23  29
HETATM   29  O           1       4.396  -0.594  -3.860  0.00  0.00    -0.358 OA
HETATM   30  H           1       3.657  -1.221  -3.813  0.00  0.00     0.217 HD
ENDBRANCH  23  29
ENDBRANCH  18  19
ENDBRANCH  17  18
ENDBRANCH   8  17
BRANCH   3  31
HETATM   31  O           1      -1.652  -4.011   2.395  0.00  0.00    -0.360 OA
HETATM   32  H           1      -0.976  -3.872   1.713  0.00  0.00     0.217 HD
ENDBRANCH   3  31
BRANCH  13  33
HETATM   33  O           1      -1.457   2.326  -3.326  0.00  0.00    -0.358 OA
HETATM   34  H           1      -2.096   2.240  -4.053  0.00  0.00     0.217 HD
ENDBRANCH  13  33
BRANCH  15  35
HETATM   35  O           1      -4.673  -0.524  -1.488  0.00  0.00    -0.358 OA
HETATM   36  H           1      -4.888  -0.958  -0.648  0.00  0.00     0.217 HD
ENDBRANCH  15  35
BRANCH   1  37
HETATM   37  O           1      -4.655  -1.629   5.092  0.00  0.00    -0.361 OA
HETATM   38  H           1      -4.892  -2.547   5.305  0.00  0.00     0.217 HD
ENDBRANCH   1  37
BRANCH  14  39
HETATM   39  O           1      -3.754   0.931  -3.559  0.00  0.00    -0.356 OA
HETATM   40  H           1      -4.556   0.392  -3.456  0.00  0.00     0.218 HD
ENDBRANCH  14  39
TORSDOF 11
