REMARK  13 active torsions:
REMARK  status: ('A' for Active; 'I' for Inactive)
REMARK    1  A    between atoms: C_1  and  O_21 
REMARK    2  A    between atoms: C_3  and  O_20 
REMARK    3  A    between atoms: C_8  and  O_12 
REMARK    4  A    between atoms: C_9  and  C_11 
REMARK    5  A    between atoms: C_11  and  C_26 
REMARK    6  A    between atoms: O_12  and  C_13 
REMARK    7  A    between atoms: C_13  and  C_14 
REMARK    8  A    between atoms: C_16  and  O_23 
REMARK    9  A    between atoms: C_17  and  O_24 
REMARK   10  A    between atoms: C_18  and  O_25 
REMARK   11  A    between atoms: C_28  and  O_34 
REMARK   12  A    between atoms: C_29  and  O_33 
REMARK   13  A    between atoms: C_30  and  O_32 
ROOT
HETATM    1  C           1      -3.607  -4.222   2.004  0.00  0.00     0.071 A 
HETATM    2  C           1      -2.843  -5.084   1.316  0.00  0.00     0.073 A 
HETATM    3  C           1      -1.712  -4.704   0.701  0.00  0.00     0.077 A 
HETATM    4  C           1      -1.333  -3.413   0.779  0.00  0.00     0.011 A 
HETATM    5  C           1      -2.063  -2.515   1.471  0.00  0.00     0.081 A 
HETATM    6  C           1      -3.196  -2.946   2.056  0.00  0.00     0.074 A 
HETATM    7  C           1      -0.063  -2.965   0.091  0.00  0.00     0.079 C 
HETATM    8  C           1       0.356  -1.543   0.492  0.00  0.00     0.166 C 
HETATM    9  C           1      -0.902  -0.674   0.558  0.00  0.00     0.163 C 
HETATM   10  O           1      -1.740  -1.186   1.556  0.00  0.00    -0.342 OA
ENDROOT
BRANCH   8  11
HETATM   11  O           1       1.308  -1.140  -0.443  0.00  0.00    -0.309 OA
BRANCH  11  12
HETATM   12  C           1       1.959   0.068  -0.581  0.00  0.00     0.294 C 
HETATM   13  O           1       2.494   0.189  -1.675  0.00  0.00    -0.259 OA
BRANCH  12  14
HETATM   14  C           1       2.096   1.113   0.302  0.00  0.00     0.045 A 
HETATM   15  C           1       1.703   1.077   1.587  0.00  0.00     0.057 A 
HETATM   16  C           1       1.840   2.114   2.430  0.00  0.00     0.102 A 
HETATM   17  C           1       2.402   3.250   1.987  0.00  0.00     0.132 A 
HETATM   18  C           1       2.823   3.330   0.716  0.00  0.00     0.102 A 
HETATM   19  C           1       2.667   2.270  -0.095  0.00  0.00     0.057 A 
BRANCH  16  20
HETATM   20  O           1       1.431   2.038   3.725  0.00  0.00    -0.358 OA
HETATM   21  H           1       1.616   2.888   4.159  0.00  0.00     0.217 HD
ENDBRANCH  16  20
BRANCH  17  22
HETATM   22  O           1       2.554   4.314   2.818  0.00  0.00    -0.356 OA
HETATM   23  H           1       2.969   5.041   2.325  0.00  0.00     0.218 HD
ENDBRANCH  17  22
BRANCH  18  24
HETATM   24  O           1       3.388   4.481   0.263  0.00  0.00    -0.358 OA
HETATM   25  H           1       3.580   4.404  -0.684  0.00  0.00     0.217 HD
ENDBRANCH  18  24
ENDBRANCH  12  14
ENDBRANCH  11  12
ENDBRANCH   8  11
BRANCH   9  26
HETATM   26  C           1      -1.702  -0.456  -0.741  0.00  0.00     0.073 C 
BRANCH  26  27
HETATM   27  C           1      -1.103   0.678  -1.549  0.00  0.00    -0.050 A 
HETATM   28  C           1      -1.384   1.959  -1.257  0.00  0.00     0.046 A 
HETATM   29  C           1      -0.793   2.979  -1.902  0.00  0.00     0.102 A 
HETATM   30  C           1       0.121   2.708  -2.849  0.00  0.00     0.132 A 
HETATM   31  C           1       0.405   1.434  -3.172  0.00  0.00     0.102 A 
HETATM   32  C           1      -0.224   0.437  -2.532  0.00  0.00     0.046 A 
BRANCH  29  33
HETATM   33  O           1      -1.060   4.274  -1.584  0.00  0.00    -0.358 OA
HETATM   34  H           1      -0.505   4.845  -2.140  0.00  0.00     0.217 HD
ENDBRANCH  29  33
BRANCH  30  35
HETATM   35  O           1       0.781   3.717  -3.473  0.00  0.00    -0.356 OA
HETATM   36  H           1       1.409   3.333  -4.106  0.00  0.00     0.218 HD
ENDBRANCH  30  35
BRANCH  31  37
HETATM   37  O           1       1.386   1.157  -4.070  0.00  0.00    -0.358 OA
HETATM   38  H           1       1.876   0.393  -3.717  0.00  0.00     0.217 HD
ENDBRANCH  31  37
ENDBRANCH  26  27
ENDBRANCH   9  26
BRANCH   3  39
HETATM   39  O           1      -0.982  -5.618   0.003  0.00  0.00    -0.360 OA
HETATM   40  H           1      -0.231  -5.182  -0.430  0.00  0.00     0.217 HD
ENDBRANCH   3  39
BRANCH   1  41
HETATM   41  O           1      -4.754  -4.631   2.610  0.00  0.00    -0.361 OA
HETATM   42  H           1      -4.878  -5.580   2.447  0.00  0.00     0.217 HD
ENDBRANCH   1  41
TORSDOF 13
