REMARK  12 active torsions:
REMARK  status: ('A' for Active; 'I' for Inactive)
REMARK    1  A    between atoms: C_1  and  O_21 
REMARK    2  A    between atoms: C_3  and  O_20 
REMARK    3  A    between atoms: C_8  and  O_12 
REMARK    4  A    between atoms: O_12  and  C_13 
REMARK    5  A    between atoms: C_13  and  C_14 
REMARK    6  A    between atoms: C_14  and  C_25 
REMARK    7  A    between atoms: C_16  and  O_22 
REMARK    8  A    between atoms: C_17  and  O_23 
REMARK    9  A    between atoms: C_18  and  O_24 
REMARK   10  A    between atoms: C_27  and  O_31 
REMARK   11  A    between atoms: C_28  and  O_32 
REMARK   12  A    between atoms: C_29  and  O_33 
ROOT
HETATM    1  C           1      -3.201  -1.395   4.178  0.00  0.00     0.071 A 
HETATM    2  C           1      -2.456  -2.438   3.789  0.00  0.00     0.073 A 
HETATM    3  C           1      -1.364  -2.291   3.023  0.00  0.00     0.077 A 
HETATM    4  C           1      -1.006  -1.050   2.632  0.00  0.00     0.011 A 
HETATM    5  C           1      -1.726   0.030   3.000  0.00  0.00     0.081 A 
HETATM    6  C           1      -2.819  -0.178   3.758  0.00  0.00     0.074 A 
HETATM    7  C           1       0.225  -0.866   1.771  0.00  0.00     0.080 C 
HETATM    8  C           1       0.682   0.591   1.778  0.00  0.00     0.170 C 
HETATM    9  C           1      -0.527   1.492   1.550  0.00  0.00     0.192 C 
HETATM   10  O           1      -1.448   1.314   2.601  0.00  0.00    -0.338 OA
HETATM   11  C           1      -1.145   1.358   0.162  0.00  0.00    -0.021 A 
HETATM   12  C           1      -0.664   2.088  -0.860  0.00  0.00     0.049 A 
HETATM   13  C           1      -1.143   1.985  -2.109  0.00  0.00     0.102 A 
HETATM   14  C           1      -2.154   1.135  -2.351  0.00  0.00     0.132 A 
HETATM   15  C           1      -2.687   0.418  -1.348  0.00  0.00     0.102 A 
HETATM   16  C           1      -2.176   0.539  -0.112  0.00  0.00     0.049 A 
ENDROOT
BRANCH   8  17
HETATM   17  O           1       1.670   0.739   0.798  0.00  0.00    -0.312 OA
BRANCH  17  18
HETATM   18  C           1       2.523   1.800   0.863  0.00  0.00     0.263 C 
HETATM   19  O           1       2.470   2.685   1.687  0.00  0.00    -0.265 OA
BRANCH  18  20
HETATM   20  C           1       3.573   1.732  -0.241  0.00  0.00     0.149 C 
BRANCH  20  21
HETATM   21  C           1       3.279   0.687  -1.296  0.00  0.00    -0.043 A 
HETATM   22  C           1       3.978  -0.456  -1.380  0.00  0.00     0.047 A 
HETATM   23  C           1       3.686  -1.391  -2.299  0.00  0.00     0.102 A 
HETATM   24  C           1       2.660  -1.185  -3.145  0.00  0.00     0.132 A 
HETATM   25  C           1       1.944  -0.048  -3.084  0.00  0.00     0.102 A 
HETATM   26  C           1       2.275   0.873  -2.167  0.00  0.00     0.047 A 
BRANCH  23  27
HETATM   27  O           1       4.395  -2.549  -2.379  0.00  0.00    -0.358 OA
HETATM   28  H           1       4.026  -3.085  -3.101  0.00  0.00     0.217 HD
ENDBRANCH  23  27
BRANCH  24  29
HETATM   29  O           1       2.337  -2.128  -4.068  0.00  0.00    -0.356 OA
HETATM   30  H           1       1.589  -1.805  -4.596  0.00  0.00     0.218 HD
ENDBRANCH  24  29
BRANCH  25  31
HETATM   31  O           1       0.884   0.143  -3.915  0.00  0.00    -0.358 OA
HETATM   32  H           1       0.352   0.898  -3.613  0.00  0.00     0.217 HD
ENDBRANCH  25  31
ENDBRANCH  20  21
ENDBRANCH  18  20
ENDBRANCH  17  18
ENDBRANCH   8  17
BRANCH   3  33
HETATM   33  O           1      -0.654  -3.389   2.643  0.00  0.00    -0.360 OA
HETATM   34  H           1       0.064  -3.133   2.044  0.00  0.00     0.217 HD
ENDBRANCH   3  33
BRANCH  13  35
HETATM   35  O           1      -0.633   2.715  -3.137  0.00  0.00    -0.358 OA
HETATM   36  H           1      -1.165   2.542  -3.931  0.00  0.00     0.217 HD
ENDBRANCH  13  35
BRANCH  15  37
HETATM   37  O           1      -3.729  -0.419  -1.592  0.00  0.00    -0.358 OA
HETATM   38  H           1      -4.023  -0.829  -0.763  0.00  0.00     0.217 HD
ENDBRANCH  15  37
BRANCH   1  39
HETATM   39  O           1      -4.307  -1.571   4.949  0.00  0.00    -0.361 OA
HETATM   40  H           1      -4.414  -2.517   5.140  0.00  0.00     0.217 HD
ENDBRANCH   1  39
BRANCH  14  41
HETATM   41  O           1      -2.651   1.008  -3.608  0.00  0.00    -0.356 OA
HETATM   42  H           1      -3.389   0.378  -3.593  0.00  0.00     0.218 HD
ENDBRANCH  14  41
TORSDOF 12
