REMARK  8 active torsions:
REMARK  status: ('A' for Active; 'I' for Inactive)
REMARK    1  A    between atoms: C_1  and  O_20 
REMARK    2  A    between atoms: C_3  and  O_19 
REMARK    3  A    between atoms: C_8  and  O_11 
REMARK    4  A    between atoms: O_11  and  C_12 
REMARK    5  A    between atoms: C_12  and  C_13 
REMARK    6  A    between atoms: C_15  and  O_22 
REMARK    7  A    between atoms: C_16  and  O_23 
REMARK    8  A    between atoms: C_17  and  O_24 
ROOT
HETATM    1  O           1       0.472   0.202   0.953  0.00  0.00    -0.309 OA
ENDROOT
BRANCH   1   2
HETATM    2  C           1      -0.662  -0.617   0.932  0.00  0.00     0.161 C 
HETATM    3  C           1      -0.536  -1.793  -0.033  0.00  0.00     0.079 C 
HETATM    4  C           1      -1.857  -2.530  -0.156  0.00  0.00     0.011 A 
HETATM    5  C           1      -1.883  -3.734  -0.763  0.00  0.00     0.077 A 
HETATM    6  C           1      -2.985  -1.986   0.353  0.00  0.00     0.080 A 
HETATM    7  C           1      -3.054  -4.382  -0.870  0.00  0.00     0.073 A 
HETATM    8  C           1      -4.198  -3.874  -0.389  0.00  0.00     0.071 A 
HETATM    9  C           1      -4.132  -2.674   0.206  0.00  0.00     0.074 A 
HETATM   10  O           1      -3.032  -0.752   0.954  0.00  0.00    -0.348 OA
HETATM   11  C           1      -1.966   0.113   0.666  0.00  0.00     0.208 C 
BRANCH   5  12
HETATM   12  O           1      -0.755  -4.290  -1.285  0.00  0.00    -0.360 OA
HETATM   13  H           1      -0.018  -3.663  -1.220  0.00  0.00     0.217 HD
ENDBRANCH   5  12
BRANCH   8  14
HETATM   14  O           1      -5.372  -4.548  -0.518  0.00  0.00    -0.361 OA
HETATM   15  H           1      -5.209  -5.379  -0.994  0.00  0.00     0.217 HD
ENDBRANCH   8  14
ENDBRANCH   1   2
BRANCH   1  16
HETATM   16  C           1       0.800   1.061  -0.067  0.00  0.00     0.293 C 
HETATM   17  O           1       0.197   1.004  -1.120  0.00  0.00    -0.259 OA
BRANCH  16  18
HETATM   18  C           1       1.785   1.997   0.104  0.00  0.00     0.045 A 
HETATM   19  C           1       2.452   2.075   1.269  0.00  0.00     0.057 A 
HETATM   20  C           1       3.423   2.981   1.471  0.00  0.00     0.102 A 
HETATM   21  C           1       3.740   3.834   0.482  0.00  0.00     0.132 A 
HETATM   22  C           1       3.092   3.779  -0.693  0.00  0.00     0.102 A 
HETATM   23  C           1       2.124   2.864  -0.869  0.00  0.00     0.057 A 
BRANCH  20  24
HETATM   24  O           1       4.094   3.054   2.652  0.00  0.00    -0.358 OA
HETATM   25  H           1       4.748   3.769   2.591  0.00  0.00     0.217 HD
ENDBRANCH  20  24
BRANCH  21  26
HETATM   26  O           1       4.720   4.759   0.664  0.00  0.00    -0.356 OA
HETATM   27  H           1       4.812   5.285  -0.147  0.00  0.00     0.218 HD
ENDBRANCH  21  26
BRANCH  22  28
HETATM   28  O           1       3.421   4.647  -1.686  0.00  0.00    -0.358 OA
HETATM   29  H           1       2.867   4.485  -2.466  0.00  0.00     0.217 HD
ENDBRANCH  22  28
ENDBRANCH  16  18
ENDBRANCH   1  16
TORSDOF 8
