REMARK  6 active torsions:
REMARK  status: ('A' for Active; 'I' for Inactive)
REMARK    1  A    between atoms: C_1  and  O_19 
REMARK    2  A    between atoms: C_3  and  O_18 
REMARK    3  A    between atoms: C_8  and  O_12 
REMARK    4  A    between atoms: C_14  and  O_20 
REMARK    5  A    between atoms: C_15  and  O_21 
REMARK    6  A    between atoms: C_16  and  O_22 
ROOT
HETATM    1  C           1      -1.744  -1.132   3.356  0.00  0.00     0.071 A 
HETATM    2  C           1      -1.291  -2.307   2.898  0.00  0.00     0.073 A 
HETATM    3  C           1      -0.281  -2.390   2.017  0.00  0.00     0.077 A 
HETATM    4  C           1       0.296  -1.252   1.580  0.00  0.00     0.011 A 
HETATM    5  C           1      -0.122  -0.046   2.020  0.00  0.00     0.081 A 
HETATM    6  C           1      -1.146  -0.024   2.894  0.00  0.00     0.074 A 
HETATM    7  C           1       1.428  -1.332   0.582  0.00  0.00     0.079 C 
HETATM    8  C           1       2.193  -0.018   0.519  0.00  0.00     0.156 C 
HETATM    9  C           1       1.235   1.157   0.469  0.00  0.00     0.191 C 
HETATM   10  O           1       0.394   1.153   1.596  0.00  0.00    -0.338 OA
HETATM   11  C           1       0.504   1.261  -0.862  0.00  0.00    -0.021 A 
HETATM   12  C           1       1.063   1.931  -1.885  0.00  0.00     0.049 A 
HETATM   13  C           1       0.463   2.042  -3.081  0.00  0.00     0.102 A 
HETATM   14  C           1      -0.738   1.468  -3.265  0.00  0.00     0.132 A 
HETATM   15  C           1      -1.326   0.796  -2.261  0.00  0.00     0.102 A 
HETATM   16  C           1      -0.699   0.704  -1.078  0.00  0.00     0.049 A 
ENDROOT
BRANCH   8  17
HETATM   17  O           1       3.015  -0.016  -0.625  0.00  0.00    -0.392 OA
HETATM   18  H           1       3.069   0.873  -0.983  0.00  0.00     0.210 HD
ENDBRANCH   8  17
BRANCH  13  19
HETATM   19  O           1       1.043   2.720  -4.108  0.00  0.00    -0.358 OA
HETATM   20  H           1       0.448   2.679  -4.875  0.00  0.00     0.217 HD
ENDBRANCH  13  19
BRANCH  15  21
HETATM   21  O           1      -2.543   0.222  -2.452  0.00  0.00    -0.358 OA
HETATM   22  H           1      -2.838  -0.206  -1.632  0.00  0.00     0.217 HD
ENDBRANCH  15  21
BRANCH   3  23
HETATM   23  O           1       0.124  -3.611   1.571  0.00  0.00    -0.360 OA
HETATM   24  H           1       0.816  -3.508   0.899  0.00  0.00     0.217 HD
ENDBRANCH   3  23
BRANCH  14  25
HETATM   25  O           1      -1.368   1.567  -4.465  0.00  0.00    -0.356 OA
HETATM   26  H           1      -2.218   1.101  -4.413  0.00  0.00     0.218 HD
ENDBRANCH  14  25
BRANCH   1  27
HETATM   27  O           1      -2.774  -1.074   4.242  0.00  0.00    -0.361 OA
HETATM   28  H           1      -3.066  -1.977   4.447  0.00  0.00     0.217 HD
ENDBRANCH   1  27
TORSDOF 6
