REMARK  11 active torsions:
REMARK  status: ('A' for Active; 'I' for Inactive)
REMARK    1  A    between atoms: C_1  and  O_26 
REMARK    2  A    between atoms: C_3  and  O_25 
REMARK    3  A    between atoms: C_8  and  O_12 
REMARK    4  A    between atoms: O_12  and  C_13 
REMARK    5  A    between atoms: C_13  and  C_14 
REMARK    6  A    between atoms: C_16  and  O_31 
REMARK    7  A    between atoms: C_17  and  O_32 
REMARK    8  A    between atoms: C_18  and  O_33 
REMARK    9  A    between atoms: C_21  and  O_28 
REMARK   10  A    between atoms: C_22  and  O_29 
REMARK   11  A    between atoms: C_23  and  O_30 
ROOT
HETATM    1  C           1      -5.151  -2.730  -1.037  0.00  0.00     0.071 A 
HETATM    2  C           1      -4.546  -3.915  -0.862  0.00  0.00     0.073 A 
HETATM    3  C           1      -3.212  -4.031  -0.761  0.00  0.00     0.077 A 
HETATM    4  C           1      -2.452  -2.916  -0.836  0.00  0.00     0.011 A 
HETATM    5  C           1      -3.020  -1.703  -1.020  0.00  0.00     0.081 A 
HETATM    6  C           1      -4.360  -1.650  -1.117  0.00  0.00     0.074 A 
HETATM    7  C           1      -0.946  -3.006  -0.652  0.00  0.00     0.080 C 
HETATM    8  C           1      -0.454  -1.657  -0.139  0.00  0.00     0.170 C 
HETATM    9  C           1      -0.918  -0.581  -1.126  0.00  0.00     0.192 C 
HETATM   10  O           1      -2.324  -0.520  -1.098  0.00  0.00    -0.338 OA
HETATM   11  C           1      -0.358   0.822  -0.900  0.00  0.00    -0.021 A 
HETATM   12  C           1       0.107   1.545  -1.935  0.00  0.00     0.049 A 
HETATM   13  C           1       0.746   2.714  -1.764  0.00  0.00     0.102 A 
HETATM   14  C           1       0.918   3.179  -0.515  0.00  0.00     0.132 A 
HETATM   15  C           1       0.417   2.510   0.536  0.00  0.00     0.102 A 
HETATM   16  C           1      -0.220   1.345   0.331  0.00  0.00     0.049 A 
ENDROOT
BRANCH   8  17
HETATM   17  O           1       0.896  -1.704   0.253  0.00  0.00    -0.309 OA
BRANCH  17  18
HETATM   18  C           1       1.801  -0.827  -0.290  0.00  0.00     0.294 C 
HETATM   19  O           1       1.943  -0.836  -1.498  0.00  0.00    -0.259 OA
BRANCH  18  20
HETATM   20  C           1       2.430   0.098   0.502  0.00  0.00     0.045 A 
HETATM   21  C           1       3.197   1.079  -0.014  0.00  0.00     0.057 A 
HETATM   22  C           1       3.663   2.081   0.749  0.00  0.00     0.102 A 
HETATM   23  C           1       3.388   2.098   2.064  0.00  0.00     0.132 A 
HETATM   24  C           1       2.682   1.101   2.617  0.00  0.00     0.102 A 
HETATM   25  C           1       2.211   0.121   1.831  0.00  0.00     0.057 A 
BRANCH  22  26
HETATM   26  O           1       4.338   3.129   0.210  0.00  0.00    -0.358 OA
HETATM   27  H           1       4.477   3.796   0.903  0.00  0.00     0.217 HD
ENDBRANCH  22  26
BRANCH  23  28
HETATM   28  O           1       3.789   3.142   2.832  0.00  0.00    -0.356 OA
HETATM   29  H           1       3.402   3.046   3.718  0.00  0.00     0.218 HD
ENDBRANCH  23  28
BRANCH  24  30
HETATM   30  O           1       2.376   1.143   3.939  0.00  0.00    -0.358 OA
HETATM   31  H           1       1.848   0.369   4.189  0.00  0.00     0.217 HD
ENDBRANCH  24  30
ENDBRANCH  18  20
ENDBRANCH  17  18
ENDBRANCH   8  17
BRANCH   3  32
HETATM   32  O           1      -2.652  -5.259  -0.582  0.00  0.00    -0.360 OA
HETATM   33  H           1      -1.687  -5.196  -0.653  0.00  0.00     0.217 HD
ENDBRANCH   3  32
BRANCH  13  34
HETATM   34  O           1       1.293   3.390  -2.809  0.00  0.00    -0.358 OA
HETATM   35  H           1       1.832   4.115  -2.451  0.00  0.00     0.217 HD
ENDBRANCH  13  34
BRANCH  15  36
HETATM   36  O           1       0.665   2.971   1.791  0.00  0.00    -0.358 OA
HETATM   37  H           1       0.737   2.217   2.401  0.00  0.00     0.217 HD
ENDBRANCH  15  36
BRANCH   1  38
HETATM   38  O           1      -6.505  -2.624  -1.117  0.00  0.00    -0.361 OA
HETATM   39  H           1      -6.909  -3.500  -1.013  0.00  0.00     0.217 HD
ENDBRANCH   1  38
BRANCH  14  40
HETATM   40  O           1       1.673   4.288  -0.288  0.00  0.00    -0.356 OA
HETATM   41  H           1       2.142   4.130   0.554  0.00  0.00     0.218 HD
ENDBRANCH  14  40
TORSDOF 11
