REMARK  16 active torsions:
REMARK  status: ('A' for Active; 'I' for Inactive)
REMARK    1  A    between atoms: C_1  and  C_11 
REMARK    2  A    between atoms: C_5  and  O_10 
REMARK    3  A    between atoms: C_6  and  C_7 
REMARK    4  A    between atoms: C_11  and  C_12 
REMARK    5  A    between atoms: C_12  and  C_13 
REMARK    6  A    between atoms: C_13  and  C_14 
REMARK    7  A    between atoms: C_14  and  C_15 
REMARK    8  A    between atoms: C_15  and  C_16 
REMARK    9  A    between atoms: C_16  and  C_17 
REMARK   10  A    between atoms: C_17  and  C_18 
REMARK   11  A    between atoms: C_18  and  C_19 
REMARK   12  A    between atoms: C_19  and  C_20 
REMARK   13  A    between atoms: C_20  and  C_21 
REMARK   14  A    between atoms: C_21  and  C_22 
REMARK   15  A    between atoms: C_22  and  C_23 
REMARK   16  A    between atoms: C_23  and  C_24 
ROOT
HETATM    1  C           1      -4.673  -1.869   0.493  0.00  0.00     0.005 C 
ENDROOT
BRANCH   1   2
HETATM    2  C           1      -6.158  -1.472   0.390  0.00  0.00     0.040 C 
BRANCH   2   3
HETATM    3  C           1      -7.228  -2.526   0.669  0.00  0.00    -0.038 A 
HETATM    4  C           1      -6.825  -3.769   0.997  0.00  0.00     0.008 A 
HETATM    5  C           1      -7.694  -4.752   1.255  0.00  0.00     0.003 A 
HETATM    6  C           1      -9.001  -4.489   1.185  0.00  0.00     0.037 A 
HETATM    7  C           1      -9.458  -3.264   0.871  0.00  0.00     0.083 A 
HETATM    8  C           1      -8.565  -2.278   0.606  0.00  0.00     0.080 A 
BRANCH   7   9
HETATM    9  O           1     -10.816  -3.122   0.811  0.00  0.00    -0.360 OA
HETATM   10  H           1     -11.167  -2.349   0.353  0.00  0.00     0.217 HD
ENDBRANCH   7   9
BRANCH   8  11
HETATM   11  C           1      -9.055  -1.045   0.288  0.00  0.00     0.212 C 
HETATM   12  O           1      -8.336  -0.057   0.021  0.00  0.00    -0.644 OA
HETATM   13  O           1     -10.291  -0.863   0.261  0.00  0.00    -0.644 OA
ENDBRANCH   8  11
ENDBRANCH   2   3
ENDBRANCH   1   2
BRANCH   1  14
HETATM   14  C           1      -3.740  -0.684   0.181  0.00  0.00     0.000 C 
BRANCH  14  15
HETATM   15  C           1      -2.257  -1.080   0.284  0.00  0.00     0.000 C 
BRANCH  15  16
HETATM   16  C           1      -1.321   0.098  -0.027  0.00  0.00     0.000 C 
BRANCH  16  17
HETATM   17  C           1       0.159  -0.304   0.079  0.00  0.00     0.000 C 
BRANCH  17  18
HETATM   18  C           1       1.102   0.870  -0.231  0.00  0.00     0.000 C 
BRANCH  18  19
HETATM   19  C           1       2.580   0.461  -0.122  0.00  0.00     0.000 C 
BRANCH  19  20
HETATM   20  C           1       3.528   1.631  -0.430  0.00  0.00     0.000 C 
BRANCH  20  21
HETATM   21  C           1       5.004   1.216  -0.319  0.00  0.00     0.000 C 
BRANCH  21  22
HETATM   22  C           1       5.957   2.382  -0.627  0.00  0.00     0.000 C 
BRANCH  22  23
HETATM   23  C           1       7.432   1.963  -0.514  0.00  0.00     0.000 C 
BRANCH  23  24
HETATM   24  C           1       8.387   3.128  -0.821  0.00  0.00    -0.000 C 
BRANCH  24  25
HETATM   25  C           1       9.861   2.708  -0.707  0.00  0.00    -0.005 C 
HETATM   26  C           1      10.813   3.872  -1.014  0.00  0.00     0.005 C 
ENDBRANCH  24  25
ENDBRANCH  23  24
ENDBRANCH  22  23
ENDBRANCH  21  22
ENDBRANCH  20  21
ENDBRANCH  19  20
ENDBRANCH  18  19
ENDBRANCH  17  18
ENDBRANCH  16  17
ENDBRANCH  15  16
ENDBRANCH  14  15
ENDBRANCH   1  14
TORSDOF 16
