REMARK  13 active torsions:
REMARK  status: ('A' for Active; 'I' for Inactive)
REMARK    1  A    between atoms: C_1  and  C_11 
REMARK    2  A    between atoms: C_5  and  O_10 
REMARK    3  A    between atoms: C_6  and  C_7 
REMARK    4  A    between atoms: C_11  and  C_12 
REMARK    5  A    between atoms: C_12  and  C_13 
REMARK    6  A    between atoms: C_13  and  C_14 
REMARK    7  A    between atoms: C_14  and  C_15 
REMARK    8  A    between atoms: C_15  and  C_16 
REMARK    9  A    between atoms: C_16  and  C_17 
REMARK   10  A    between atoms: C_18  and  C_19 
REMARK   11  A    between atoms: C_19  and  C_20 
REMARK   12  A    between atoms: C_21  and  C_22 
REMARK   13  A    between atoms: C_22  and  C_23 
ROOT
HETATM    1  C           1      -2.500  -0.214  -0.209  0.00  0.00     0.005 C 
ENDROOT
BRANCH   1   2
HETATM    2  C           1      -3.944   0.290  -0.017  0.00  0.00     0.040 C 
BRANCH   2   3
HETATM    3  C           1      -5.056  -0.727   0.232  0.00  0.00    -0.038 A 
HETATM    4  C           1      -4.726  -2.032   0.286  0.00  0.00     0.008 A 
HETATM    5  C           1      -5.639  -2.986   0.497  0.00  0.00     0.003 A 
HETATM    6  C           1      -6.916  -2.628   0.660  0.00  0.00     0.037 A 
HETATM    7  C           1      -7.300  -1.340   0.620  0.00  0.00     0.083 A 
HETATM    8  C           1      -6.362  -0.385   0.401  0.00  0.00     0.080 A 
BRANCH   7   9
HETATM    9  O           1      -8.633  -1.100   0.796  0.00  0.00    -0.360 OA
HETATM   10  H           1      -8.979  -0.210   0.670  0.00  0.00     0.217 HD
ENDBRANCH   7   9
BRANCH   8  11
HETATM   11  C           1      -6.779   0.913   0.363  0.00  0.00     0.212 C 
HETATM   12  O           1      -6.017   1.886   0.181  0.00  0.00    -0.644 OA
HETATM   13  O           1      -7.992   1.169   0.520  0.00  0.00    -0.644 OA
ENDBRANCH   8  11
ENDBRANCH   2   3
ENDBRANCH   1   2
BRANCH   1  14
HETATM   14  C           1      -1.517   0.947  -0.453  0.00  0.00     0.000 C 
BRANCH  14  15
HETATM   15  C           1      -0.078   0.447  -0.660  0.00  0.00     0.000 C 
BRANCH  15  16
HETATM   16  C           1       0.906   1.606  -0.894  0.00  0.00     0.004 C 
BRANCH  16  17
HETATM   17  C           1       2.340   1.102  -1.121  0.00  0.00     0.027 C 
BRANCH  17  18
HETATM   18  C           1       3.287   2.254  -1.353  0.00  0.00    -0.030 C 
HETATM   19  C           1       4.355   2.600  -0.615  0.00  0.00    -0.027 C 
BRANCH  19  20
HETATM   20  C           1       4.873   1.920   0.627  0.00  0.00     0.053 C 
BRANCH  20  21
HETATM   21  C           1       6.305   1.497   0.417  0.00  0.00    -0.027 C 
HETATM   22  C           1       6.725   0.279   0.039  0.00  0.00    -0.027 C 
BRANCH  22  23
HETATM   23  C           1       5.852  -0.917  -0.241  0.00  0.00     0.053 C 
BRANCH  23  24
HETATM   24  C           1       5.884  -1.860   0.933  0.00  0.00    -0.033 C 
HETATM   25  C           1       6.363  -3.110   0.876  0.00  0.00     0.007 C 
ENDBRANCH  23  24
ENDBRANCH  22  23
ENDBRANCH  20  21
ENDBRANCH  19  20
ENDBRANCH  17  18
ENDBRANCH  16  17
ENDBRANCH  15  16
ENDBRANCH  14  15
ENDBRANCH   1  14
TORSDOF 13
