REMARK  19 active torsions:
REMARK  status: ('A' for Active; 'I' for Inactive)
REMARK    1  A    between atoms: C_5  and  C_8 
REMARK    2  A    between atoms: C_12  and  N_13 
REMARK       I    between atoms: N_13  and  C_15 
REMARK    3  A    between atoms: C_15  and  C_19 
REMARK    4  A    between atoms: C_17  and  O_18 
REMARK    5  A    between atoms: O_18  and  C_20 
REMARK    6  A    between atoms: C_24  and  C_25 
REMARK    7  A    between atoms: C_25  and  C_26 
REMARK    8  A    between atoms: C_26  and  C_27 
REMARK    9  A    between atoms: C_27  and  C_28 
REMARK   10  A    between atoms: C_28  and  C_29 
REMARK   11  A    between atoms: C_29  and  C_30 
REMARK   12  A    between atoms: C_30  and  C_31 
REMARK   13  A    between atoms: C_31  and  C_32 
REMARK   14  A    between atoms: C_32  and  C_33 
REMARK   15  A    between atoms: C_33  and  C_34 
REMARK   16  A    between atoms: C_34  and  C_35 
REMARK   17  A    between atoms: C_35  and  C_36 
REMARK   18  A    between atoms: C_36  and  C_37 
REMARK   19  A    between atoms: C_37  and  C_38 
ROOT
HETATM    1  C           1      -5.796  -2.714   0.545  0.00  0.00     0.071 A 
HETATM    2  C           1      -6.629  -3.786   0.631  0.00  0.00     0.085 A 
HETATM    3  C           1      -6.171  -4.903   1.227  0.00  0.00     0.038 A 
HETATM    4  C           1      -4.968  -4.955   1.805  0.00  0.00     0.003 A 
HETATM    5  C           1      -4.178  -3.879   1.741  0.00  0.00     0.008 A 
HETATM    6  C           1      -4.555  -2.755   1.102  0.00  0.00    -0.040 A 
ENDROOT
BRANCH   1   7
HETATM    7  C           1      -6.242  -1.582  -0.082  0.00  0.00     0.259 C 
HETATM    8  N           1      -5.889  -0.444   0.584  0.00  0.00    -0.323 N 
HETATM    9  H           1      -5.398  -0.571   1.456  0.00  0.00     0.169 HD
HETATM   10  O           1      -7.043  -1.540  -0.984  0.00  0.00    -0.267 OA
BRANCH   8  11
HETATM   11  C           1      -6.086   0.871   0.353  0.00  0.00     0.035 A 
HETATM   12  C           1      -6.655   1.433  -0.729  0.00  0.00     0.046 A 
HETATM   13  C           1      -6.807   2.765  -0.873  0.00  0.00     0.057 A 
HETATM   14  C           1      -6.354   3.555   0.124  0.00  0.00    -0.031 A 
HETATM   15  Cl          1      -6.488   5.279   0.059  0.00  0.00     0.030 C 
HETATM   16  C           1      -5.772   3.020   1.209  0.00  0.00     0.011 A 
HETATM   17  C           1      -5.638   1.691   1.319  0.00  0.00     0.030 A 
BRANCH  13  18
HETATM   18  C           1      -7.462   3.330  -2.127  0.00  0.00     0.418 C 
HETATM   19  F           1      -8.544   4.026  -1.811  0.00  0.00    -0.166 F 
HETATM   20  F           1      -7.833   2.410  -3.003  0.00  0.00    -0.166 F 
HETATM   21  F           1      -6.631   4.149  -2.754  0.00  0.00    -0.166 F 
ENDBRANCH  13  18
ENDBRANCH   8  11
ENDBRANCH   1   7
BRANCH   6  22
HETATM   22  C           1      -3.514  -1.640   0.976  0.00  0.00     0.040 C 
BRANCH  22  23
HETATM   23  C           1      -2.034  -2.066   0.897  0.00  0.00     0.005 C 
BRANCH  23  24
HETATM   24  C           1      -1.113  -0.883   0.545  0.00  0.00     0.000 C 
BRANCH  24  25
HETATM   25  C           1       0.367  -1.300   0.508  0.00  0.00     0.000 C 
BRANCH  25  26
HETATM   26  C           1       1.292  -0.120   0.168  0.00  0.00     0.000 C 
BRANCH  26  27
HETATM   27  C           1       2.771  -0.541   0.150  0.00  0.00     0.000 C 
BRANCH  27  28
HETATM   28  C           1       3.704   0.638  -0.173  0.00  0.00     0.000 C 
BRANCH  28  29
HETATM   29  C           1       5.182   0.213  -0.173  0.00  0.00     0.000 C 
BRANCH  29  30
HETATM   30  C           1       6.122   1.390  -0.481  0.00  0.00     0.000 C 
BRANCH  30  31
HETATM   31  C           1       7.599   0.962  -0.466  0.00  0.00     0.000 C 
BRANCH  31  32
HETATM   32  C           1       8.544   2.139  -0.763  0.00  0.00     0.000 C 
BRANCH  32  33
HETATM   33  C           1      10.020   1.709  -0.738  0.00  0.00     0.000 C 
BRANCH  33  34
HETATM   34  C           1      10.967   2.885  -1.028  0.00  0.00    -0.000 C 
BRANCH  34  35
HETATM   35  C           1      12.442   2.456  -1.000  0.00  0.00    -0.005 C 
HETATM   36  C           1      13.385   3.632  -1.287  0.00  0.00     0.005 C 
ENDBRANCH  34  35
ENDBRANCH  33  34
ENDBRANCH  32  33
ENDBRANCH  31  32
ENDBRANCH  30  31
ENDBRANCH  29  30
ENDBRANCH  28  29
ENDBRANCH  27  28
ENDBRANCH  26  27
ENDBRANCH  25  26
ENDBRANCH  24  25
ENDBRANCH  23  24
ENDBRANCH  22  23
ENDBRANCH   6  22
BRANCH   2  37
HETATM   37  O           1      -7.882  -3.850   0.066  0.00  0.00    -0.350 OA
BRANCH  37  38
HETATM   38  C           1      -8.907  -3.347   0.884  0.00  0.00     0.171 C 
HETATM   39  C           1     -10.223  -3.401   0.116  0.00  0.00     0.034 C 
ENDBRANCH  37  38
ENDBRANCH   2  37
TORSDOF 19
