REMARK  4 active torsions:
REMARK  status: ('A' for Active; 'I' for Inactive)
REMARK    1  A    between atoms: C_2  and  C_12 
REMARK    2  A    between atoms: C_9  and  C_17 
REMARK    3  A    between atoms: C_17  and  C_18 
REMARK    4  A    between atoms: C_24  and  N_31 
ROOT
HETATM    1  C           1       2.366  -0.544  -1.122  0.00  0.00     0.097 C 
ENDROOT
BRANCH   1   2
HETATM    2  C           1       2.470   0.750  -0.809  0.00  0.00     0.035 A 
HETATM    3  C           1       1.601   1.412  -0.028  0.00  0.00     0.211 A 
HETATM    4  N           1       1.849   2.666  -0.228  0.00  0.00    -0.208 N 
HETATM    5  O           1       0.587   0.647   0.556  0.00  0.00    -0.169 OA
HETATM    6  C           1       1.347   3.795   0.118  0.00  0.00     0.061 A 
HETATM    7  N           1       2.842   2.746  -0.989  0.00  0.00    -0.170 NA
HETATM    8  C           1       1.809   4.954  -0.421  0.00  0.00     0.033 A 
HETATM    9  C           1       0.316   3.967   0.973  0.00  0.00     0.033 A 
HETATM   10  C           1       1.307   6.168  -0.163  0.00  0.00     0.021 A 
HETATM   11  C           1       0.290   6.311   0.698  0.00  0.00     0.041 A 
HETATM   12  C           1      -0.185   5.185   1.267  0.00  0.00     0.021 A 
HETATM   13  C           1       3.269   1.638  -1.383  0.00  0.00     0.063 A 
HETATM   14  C           1       4.366   1.485  -2.384  0.00  0.00     0.073 C 
BRANCH  11  15
HETATM   15  C           1      -0.215   7.548   0.956  0.00  0.00     0.209 C 
HETATM   16  O           1       0.263   8.556   0.384  0.00  0.00    -0.644 OA
HETATM   17  O           1      -1.160   7.682   1.765  0.00  0.00    -0.644 OA
ENDBRANCH  11  15
ENDBRANCH   1   2
BRANCH   1  18
HETATM   18  C           1       1.090  -0.871  -0.884  0.00  0.00     0.063 C 
HETATM   19  O           1       0.565  -0.772   0.250  0.00  0.00    -0.313 OA
HETATM   20  C           1      -0.408  -1.543  -0.003  0.00  0.00     0.088 C 
HETATM   21  C           1      -0.988  -2.597   0.628  0.00  0.00     0.031 A 
HETATM   22  C           1      -0.940  -1.168  -1.183  0.00  0.00     0.040 C 
HETATM   23  C           1      -0.301  -3.744   0.878  0.00  0.00     0.116 A 
HETATM   24  C           1      -2.338  -2.650   0.658  0.00  0.00     0.024 A 
HETATM   25  C           1      -1.026  -4.866   1.081  0.00  0.00     0.044 A 
HETATM   26  C           1      -2.367  -4.932   1.038  0.00  0.00    -0.054 A 
HETATM   27  C           1      -3.056  -6.288   1.114  0.00  0.00     0.049 C 
HETATM   28  C           1      -3.041  -3.783   0.843  0.00  0.00    -0.055 A 
HETATM   29  C           1      -4.553  -3.743   0.721  0.00  0.00     0.049 C 
HETATM   30  C           1       0.145  -0.753  -1.833  0.00  0.00     0.036 C 
BRANCH  23  31
HETATM   31  N           1       0.944  -3.920   0.824  0.00  0.00    -0.115 N 
HETATM   32  O           1       1.521  -5.095   0.958  0.00  0.00    -0.532 OA
HETATM   33  O           1       1.870  -3.051   0.554  0.00  0.00    -0.532 OA
ENDBRANCH  23  31
ENDBRANCH   1  18
TORSDOF 4
