REMARK  4 active torsions:
REMARK  status: ('A' for Active; 'I' for Inactive)
REMARK    1  A    between atoms: C_2  and  C_12 
REMARK    2  A    between atoms: C_9  and  C_17 
REMARK    3  A    between atoms: C_17  and  C_18 
REMARK    4  A    between atoms: C_28  and  N_30 
ROOT
HETATM    1  C           1       2.622   0.084  -0.380  0.00  0.00     0.055 C 
ENDROOT
BRANCH   1   2
HETATM    2  C           1       2.534   1.393  -0.635  0.00  0.00     0.048 A 
HETATM    3  C           1       1.746   2.322   0.001  0.00  0.00     0.214 A 
HETATM    4  N           1       2.002   3.515  -0.610  0.00  0.00    -0.208 N 
HETATM    5  O           1       0.889   2.099   1.026  0.00  0.00    -0.169 OA
HETATM    6  C           1       1.444   4.602  -0.277  0.00  0.00     0.061 A 
HETATM    7  N           1       2.904   3.423  -1.601  0.00  0.00    -0.169 NA
HETATM    8  C           1       1.758   5.782  -0.950  0.00  0.00     0.033 A 
HETATM    9  C           1       0.516   4.618   0.764  0.00  0.00     0.033 A 
HETATM   10  C           1       1.144   6.979  -0.582  0.00  0.00     0.021 A 
HETATM   11  C           1       0.215   6.996   0.459  0.00  0.00     0.041 A 
HETATM   12  C           1      -0.099   5.815   1.132  0.00  0.00     0.021 A 
HETATM   13  C           1       3.227   2.127  -1.615  0.00  0.00     0.066 A 
HETATM   14  C           1       4.215   1.524  -2.564  0.00  0.00     0.073 C 
BRANCH  11  15
HETATM   15  C           1      -0.380   8.155   0.816  0.00  0.00     0.209 C 
HETATM   16  O           1      -0.098   9.213   0.213  0.00  0.00    -0.644 OA
HETATM   17  O           1      -1.212   8.169   1.749  0.00  0.00    -0.644 OA
ENDBRANCH  11  15
ENDBRANCH   1   2
BRANCH   1  18
HETATM   18  C           1       1.514  -0.661  -0.315  0.00  0.00     0.077 A 
HETATM   19  O           1       1.396  -2.424   0.012  0.00  0.00    -0.310 OA
HETATM   20  C           1      -0.311  -2.328  -0.016  0.00  0.00     0.088 A 
HETATM   21  C           1      -1.124  -3.354   0.256  0.00  0.00     0.031 A 
HETATM   22  C           1      -0.719  -1.143  -0.333  0.00  0.00     0.041 A 
HETATM   23  C           1      -0.589  -4.598   0.588  0.00  0.00     0.024 A 
HETATM   24  C           1      -2.507  -3.179   0.207  0.00  0.00     0.116 A 
HETATM   25  C           1      -1.437  -5.669   0.872  0.00  0.00    -0.055 A 
HETATM   26  C           1      -0.864  -7.004   1.229  0.00  0.00     0.049 C 
HETATM   27  C           1      -2.820  -5.494   0.824  0.00  0.00    -0.054 A 
HETATM   28  C           1      -3.731  -6.643   1.128  0.00  0.00     0.049 C 
HETATM   29  C           1      -3.355  -4.249   0.491  0.00  0.00     0.044 A 
HETATM   30  C           1       0.153  -0.225  -0.492  0.00  0.00     0.040 A 
BRANCH  24  31
HETATM   31  N           1      -2.985  -2.066  -0.090  0.00  0.00    -0.115 N 
HETATM   32  O           1      -3.234  -1.773  -1.342  0.00  0.00    -0.532 OA
HETATM   33  O           1      -3.238  -1.189   0.850  0.00  0.00    -0.532 OA
ENDBRANCH  24  31
ENDBRANCH   1  18
TORSDOF 4
