REMARK  3 active torsions:
REMARK  status: ('A' for Active; 'I' for Inactive)
REMARK    1  A    between atoms: C_2  and  C_12 
REMARK    2  A    between atoms: C_17  and  C_18 
REMARK    3  A    between atoms: C_24  and  N_31 
ROOT
HETATM    1  C           1       5.071  -1.736   2.183  0.00  0.00     0.021 A 
HETATM    2  C           1       4.181  -2.809   2.242  0.00  0.00     0.041 A 
HETATM    3  C           1       3.005  -2.781   1.492  0.00  0.00     0.021 A 
HETATM    4  C           1       2.719  -1.680   0.684  0.00  0.00     0.033 A 
HETATM    5  C           1       3.609  -0.608   0.626  0.00  0.00     0.062 A 
HETATM    6  C           1       4.785  -0.636   1.375  0.00  0.00     0.033 A 
HETATM    7  N           1       3.350   0.391  -0.107  0.00  0.00    -0.197 N 
HETATM    8  C           1       2.025   0.717  -0.594  0.00  0.00     0.281 C 
HETATM    9  C           1       2.140   2.174  -0.982  0.00  0.00     0.062 C 
HETATM   10  C           1       3.628   2.297  -1.012  0.00  0.00     0.067 C 
HETATM   11  N           1       4.286   1.291  -0.535  0.00  0.00    -0.168 NA
HETATM   12  C           1       4.315   3.509  -1.561  0.00  0.00     0.073 C 
HETATM   13  O           1       1.059  -0.003  -0.671  0.00  0.00    -0.265 OA
HETATM   14  C           1       1.190   3.083  -1.225  0.00  0.00     0.056 C 
ENDROOT
BRANCH  14  15
HETATM   15  C           1      -0.100   2.742  -1.136  0.00  0.00     0.077 A 
HETATM   16  C           1      -1.155   3.595  -1.365  0.00  0.00     0.040 A 
HETATM   17  C           1      -2.330   2.831  -1.163  0.00  0.00     0.041 A 
HETATM   18  C           1      -1.910   1.565  -0.825  0.00  0.00     0.088 A 
HETATM   19  O           1      -0.553   1.504  -0.807  0.00  0.00    -0.310 OA
HETATM   20  C           1      -2.723   0.540  -0.553  0.00  0.00     0.031 A 
HETATM   21  C           1      -2.189  -0.705  -0.221  0.00  0.00     0.116 A 
HETATM   22  C           1      -4.106   0.714  -0.602  0.00  0.00     0.024 A 
HETATM   23  C           1      -3.037  -1.775   0.063  0.00  0.00     0.044 A 
HETATM   24  C           1      -4.420  -1.601   0.014  0.00  0.00    -0.054 A 
HETATM   25  C           1      -5.331  -2.749   0.319  0.00  0.00     0.049 C 
HETATM   26  C           1      -4.955  -0.356  -0.318  0.00  0.00    -0.055 A 
HETATM   27  C           1      -6.439  -0.169  -0.370  0.00  0.00     0.049 C 
BRANCH  21  28
HETATM   28  N           1      -0.951  -0.861  -0.177  0.00  0.00    -0.115 N 
HETATM   29  O           1      -0.300  -1.235  -1.251  0.00  0.00    -0.532 OA
HETATM   30  O           1      -0.304  -0.651   0.942  0.00  0.00    -0.532 OA
ENDBRANCH  21  28
ENDBRANCH  14  15
BRANCH   2  31
HETATM   31  C           1       4.458  -3.874   3.024  0.00  0.00     0.209 C 
HETATM   32  O           1       3.661  -4.835   3.077  0.00  0.00    -0.644 OA
HETATM   33  O           1       5.512  -3.900   3.696  0.00  0.00    -0.644 OA
ENDBRANCH   2  31
TORSDOF 3
