REMARK  3 active torsions:
REMARK  status: ('A' for Active; 'I' for Inactive)
REMARK    1  A    between atoms: C_2  and  C_13 
REMARK    2  A    between atoms: C_12  and  C_18 
REMARK    3  A    between atoms: C_28  and  N_31 
ROOT
HETATM    1  C           1       4.978  -1.668   2.165  0.00  0.00     0.021 A 
HETATM    2  C           1       4.088  -2.740   2.223  0.00  0.00     0.041 A 
HETATM    3  C           1       2.912  -2.712   1.474  0.00  0.00     0.021 A 
HETATM    4  C           1       2.627  -1.611   0.666  0.00  0.00     0.033 A 
HETATM    5  C           1       3.516  -0.539   0.607  0.00  0.00     0.062 A 
HETATM    6  C           1       4.693  -0.567   1.357  0.00  0.00     0.033 A 
HETATM    7  N           1       3.257   0.460  -0.126  0.00  0.00    -0.197 N 
HETATM    8  C           1       1.933   0.786  -0.612  0.00  0.00     0.281 C 
HETATM    9  C           1       2.047   2.243  -1.000  0.00  0.00     0.062 C 
HETATM   10  C           1       3.535   2.366  -1.031  0.00  0.00     0.067 C 
HETATM   11  N           1       4.193   1.360  -0.553  0.00  0.00    -0.168 NA
HETATM   12  C           1       1.097   3.151  -1.244  0.00  0.00     0.056 C 
HETATM   13  C           1       4.222   3.578  -1.579  0.00  0.00     0.073 C 
HETATM   14  O           1       0.966   0.066  -0.689  0.00  0.00    -0.265 OA
ENDROOT
BRANCH  12  15
HETATM   15  C           1      -0.193   2.810  -1.155  0.00  0.00     0.077 A 
HETATM   16  C           1      -1.247   3.663  -1.384  0.00  0.00     0.040 A 
HETATM   17  C           1      -2.423   2.900  -1.182  0.00  0.00     0.041 A 
HETATM   18  C           1      -2.003   1.634  -0.844  0.00  0.00     0.088 A 
HETATM   19  C           1      -2.816   0.608  -0.572  0.00  0.00     0.031 A 
HETATM   20  O           1      -0.646   1.573  -0.826  0.00  0.00    -0.310 OA
HETATM   21  C           1      -2.281  -0.636  -0.239  0.00  0.00     0.024 A 
HETATM   22  C           1      -4.199   0.783  -0.620  0.00  0.00     0.116 A 
HETATM   23  C           1      -3.130  -1.707   0.045  0.00  0.00    -0.055 A 
HETATM   24  C           1      -2.556  -3.042   0.401  0.00  0.00     0.049 C 
HETATM   25  C           1      -4.513  -1.532  -0.004  0.00  0.00    -0.054 A 
HETATM   26  C           1      -5.423  -2.681   0.301  0.00  0.00     0.049 C 
HETATM   27  C           1      -5.048  -0.288  -0.336  0.00  0.00     0.044 A 
BRANCH  22  28
HETATM   28  N           1      -4.678   1.896  -0.918  0.00  0.00    -0.115 N 
HETATM   29  O           1      -4.927   2.189  -2.170  0.00  0.00    -0.532 OA
HETATM   30  O           1      -4.930   2.773   0.022  0.00  0.00    -0.532 OA
ENDBRANCH  22  28
ENDBRANCH  12  15
BRANCH   2  31
HETATM   31  C           1       4.365  -3.806   3.006  0.00  0.00     0.209 C 
HETATM   32  O           1       3.568  -4.767   3.058  0.00  0.00    -0.644 OA
HETATM   33  O           1       5.419  -3.831   3.678  0.00  0.00    -0.644 OA
ENDBRANCH   2  31
TORSDOF 3
