REMARK  4 active torsions:
REMARK  status: ('A' for Active; 'I' for Inactive)
REMARK    1  A    between atoms: C_2  and  C_13 
REMARK    2  A    between atoms: C_9  and  C_12 
REMARK    3  A    between atoms: C_12  and  C_18 
REMARK    4  A    between atoms: C_28  and  N_31 
ROOT
HETATM    1  C           1       0.412   3.346  -0.492  0.00  0.00     0.055 C 
ENDROOT
BRANCH   1   2
HETATM    2  C           1       1.587   2.731  -0.365  0.00  0.00     0.048 A 
HETATM    3  C           1       1.667   1.402  -0.224  0.00  0.00     0.214 A 
HETATM    4  N           1       2.925   1.120  -0.152  0.00  0.00    -0.208 N 
HETATM    5  O           1       0.460   0.718  -0.281  0.00  0.00    -0.169 OA
HETATM    6  C           1       3.633   0.067   0.048  0.00  0.00     0.061 A 
HETATM    7  N           1       3.565   2.190  -0.300  0.00  0.00    -0.169 NA
HETATM    8  C           1       4.990   0.119   0.111  0.00  0.00     0.033 A 
HETATM    9  C           1       3.116  -1.164   0.237  0.00  0.00     0.033 A 
HETATM   10  C           1       5.770  -0.939   0.367  0.00  0.00     0.021 A 
HETATM   11  C           1       5.232  -2.153   0.572  0.00  0.00     0.041 A 
HETATM   12  C           1       3.889  -2.240   0.489  0.00  0.00     0.021 A 
HETATM   13  C           1       2.829   3.198  -0.439  0.00  0.00     0.066 A 
HETATM   14  C           1       3.363   4.573  -0.686  0.00  0.00     0.073 C 
BRANCH  11  15
HETATM   15  C           1       6.028  -3.226   0.851  0.00  0.00     0.209 C 
HETATM   16  O           1       7.272  -3.086   0.927  0.00  0.00    -0.644 OA
HETATM   17  O           1       5.513  -4.352   1.041  0.00  0.00    -0.644 OA
ENDBRANCH  11  15
ENDBRANCH   1   2
BRANCH   1  18
HETATM   18  C           1      -0.700   2.600  -0.464  0.00  0.00     0.077 C 
HETATM   19  O           1      -0.830   1.371  -0.147  0.00  0.00    -0.310 OA
HETATM   20  C           1      -2.003   1.062  -0.536  0.00  0.00     0.088 C 
HETATM   21  C           1      -2.526   2.076  -1.255  0.00  0.00     0.041 C 
HETATM   22  C           1      -2.822   0.038  -0.161  0.00  0.00     0.024 A 
HETATM   23  C           1      -1.779   3.149  -1.035  0.00  0.00     0.040 C 
HETATM   24  C           1      -2.330  -1.173   0.180  0.00  0.00     0.023 A 
HETATM   25  C           1      -4.186   0.146  -0.136  0.00  0.00     0.085 A 
HETATM   26  C           1      -3.098  -2.246   0.476  0.00  0.00    -0.055 A 
HETATM   27  C           1      -2.471  -3.582   0.821  0.00  0.00     0.049 C 
HETATM   28  C           1      -4.435  -2.133   0.442  0.00  0.00    -0.054 A 
HETATM   29  C           1      -5.423  -3.256   0.725  0.00  0.00     0.049 C 
HETATM   30  C           1      -4.944  -0.933   0.148  0.00  0.00     0.036 A 
BRANCH  25  31
HETATM   31  N           1      -4.756   1.248  -0.372  0.00  0.00     0.036 NA
HETATM   32  O           1      -5.715   1.060  -1.277  0.00  0.00    -0.084 OA
HETATM   33  O           1      -5.606   1.509   0.619  0.00  0.00    -0.084 OA
ENDBRANCH  25  31
ENDBRANCH   1  18
TORSDOF 4
