REMARK  4 active torsions:
REMARK  status: ('A' for Active; 'I' for Inactive)
REMARK    1  A    between atoms: C_1  and  C_23 
REMARK    2  A    between atoms: N_7  and  C_8 
REMARK    3  A    between atoms: C_18  and  C_24 
REMARK    4  A    between atoms: C_24  and  C_27 
ROOT
HETATM    1  C           1       2.432  -0.388  -0.736  0.00  0.00     0.037 C 
ENDROOT
BRANCH   1   2
HETATM    2  C           1       1.138  -0.799  -0.691  0.00  0.00     0.143 C 
HETATM    3  C           1       0.112  -0.122  -1.259  0.00  0.00     0.022 C 
HETATM    4  C           1      -0.969  -0.698  -0.723  0.00  0.00     0.037 C 
HETATM    5  C           1      -0.425  -1.559   0.149  0.00  0.00     0.083 C 
HETATM    6  C           1      -1.095  -2.719   0.530  0.00  0.00     0.024 A 
HETATM    7  O           1       0.619  -0.824   0.440  0.00  0.00    -0.327 OA
HETATM    8  C           1      -2.445  -2.858   0.367  0.00  0.00     0.085 A 
HETATM    9  C           1      -0.506  -3.927   0.805  0.00  0.00     0.023 A 
HETATM   10  C           1      -3.060  -4.051   0.525  0.00  0.00     0.036 A 
HETATM   11  C           1      -2.463  -5.205   0.827  0.00  0.00    -0.054 A 
HETATM   12  C           1      -3.383  -6.403   1.047  0.00  0.00     0.049 C 
HETATM   13  C           1      -1.126  -5.137   0.938  0.00  0.00    -0.055 A 
HETATM   14  C           1      -0.461  -6.489   1.202  0.00  0.00     0.049 C 
BRANCH   8  15
HETATM   15  N           1      -3.195  -1.885   0.062  0.00  0.00     0.036 NA
HETATM   16  O           1      -4.087  -1.775   1.035  0.00  0.00    -0.084 OA
HETATM   17  O           1      -3.997  -2.268  -0.943  0.00  0.00    -0.084 OA
ENDBRANCH   8  15
ENDBRANCH   1   2
BRANCH   1  18
HETATM   18  C           1       2.505   0.939  -0.739  0.00  0.00     0.045 A 
HETATM   19  C           1       3.232   1.814  -1.422  0.00  0.00     0.066 A 
HETATM   20  C           1       4.278   1.658  -2.510  0.00  0.00     0.073 C 
HETATM   21  N           1       2.734   2.924  -1.082  0.00  0.00    -0.169 NA
HETATM   22  N           1       1.805   2.836  -0.254  0.00  0.00    -0.208 N 
HETATM   23  C           1       1.647   1.589   0.063  0.00  0.00     0.214 A 
HETATM   24  C           1       1.313   4.016  -0.001  0.00  0.00     0.061 A 
HETATM   25  O           1       0.814   0.683   0.802  0.00  0.00    -0.169 OA
HETATM   26  C           1       0.374   4.277   0.919  0.00  0.00     0.033 A 
HETATM   27  C           1       1.683   5.145  -0.670  0.00  0.00     0.033 A 
HETATM   28  C           1      -0.098   5.524   1.157  0.00  0.00     0.021 A 
HETATM   29  C           1       0.284   6.614   0.465  0.00  0.00     0.041 A 
HETATM   30  C           1       1.205   6.388  -0.476  0.00  0.00     0.021 A 
BRANCH  29  31
HETATM   31  C           1      -0.211   7.872   0.680  0.00  0.00     0.209 C 
HETATM   32  O           1      -1.057   8.064   1.584  0.00  0.00    -0.644 OA
HETATM   33  O           1       0.185   8.856   0.009  0.00  0.00    -0.644 OA
ENDBRANCH  29  31
ENDBRANCH   1  18
TORSDOF 4
