REMARK  4 active torsions:
REMARK  status: ('A' for Active; 'I' for Inactive)
REMARK    1  A    between atoms: C_2  and  C_13 
REMARK    2  A    between atoms: C_9  and  C_12 
REMARK    3  A    between atoms: C_12  and  C_18 
REMARK    4  A    between atoms: C_24  and  N_31 
ROOT
HETATM    1  C           1       2.172  -0.438  -0.847  0.00  0.00     0.055 C 
ENDROOT
BRANCH   1   2
HETATM    2  C           1       2.421   0.876  -0.892  0.00  0.00     0.048 C 
HETATM    3  C           1       1.624   1.513  -0.011  0.00  0.00     0.214 C 
HETATM    4  N           1       1.888   2.743  -0.241  0.00  0.00    -0.208 N 
HETATM    5  O           1       0.848   0.595   0.877  0.00  0.00    -0.169 OA
HETATM    6  C           1       1.396   3.911   0.107  0.00  0.00     0.061 A 
HETATM    7  N           1       2.859   2.867  -1.009  0.00  0.00    -0.169 NA
HETATM    8  C           1       1.815   5.005  -0.602  0.00  0.00     0.033 A 
HETATM    9  C           1       0.403   4.170   0.997  0.00  0.00     0.033 A 
HETATM   10  C           1       1.310   6.244  -0.456  0.00  0.00     0.021 A 
HETATM   11  C           1       0.412   6.484   0.497  0.00  0.00     0.041 A 
HETATM   12  C           1      -0.058   5.441   1.201  0.00  0.00     0.021 A 
HETATM   13  C           1       3.258   1.750  -1.481  0.00  0.00     0.066 C 
HETATM   14  C           1       4.387   1.649  -2.491  0.00  0.00     0.073 C 
BRANCH  11  15
HETATM   15  C           1      -0.031   7.758   0.665  0.00  0.00     0.209 C 
HETATM   16  O           1       0.433   8.680  -0.056  0.00  0.00    -0.644 OA
HETATM   17  O           1      -0.869   8.025   1.561  0.00  0.00    -0.644 OA
ENDBRANCH  11  15
ENDBRANCH   1   2
BRANCH   1  18
HETATM   18  C           1       0.904  -0.785  -0.557  0.00  0.00     0.077 C 
HETATM   19  O           1       0.556  -0.902   0.639  0.00  0.00    -0.310 OA
HETATM   20  C           1      -0.375  -1.724   0.294  0.00  0.00     0.088 C 
HETATM   21  C           1      -0.863  -2.966   0.705  0.00  0.00     0.024 A 
HETATM   22  C           1      -1.069  -0.992  -0.603  0.00  0.00     0.041 C 
HETATM   23  C           1      -0.265  -4.194   0.895  0.00  0.00     0.085 A 
HETATM   24  C           1      -2.203  -3.094   0.647  0.00  0.00     0.023 A 
HETATM   25  C           1      -0.990  -5.362   0.980  0.00  0.00     0.036 A 
HETATM   26  C           1      -2.350  -5.405   0.921  0.00  0.00    -0.054 A 
HETATM   27  C           1      -3.259  -6.641   1.064  0.00  0.00     0.049 C 
HETATM   28  C           1      -2.918  -4.216   0.702  0.00  0.00    -0.055 A 
HETATM   29  C           1      -4.368  -3.864   0.413  0.00  0.00     0.049 C 
HETATM   30  C           1      -0.151  -0.221  -1.162  0.00  0.00     0.040 C 
BRANCH  23  31
HETATM   31  N           1       0.985  -4.222   0.781  0.00  0.00     0.036 NA
HETATM   32  O           1       1.136  -4.333  -0.526  0.00  0.00    -0.084 OA
HETATM   33  O           1       1.666  -3.139   1.102  0.00  0.00    -0.084 OA
ENDBRANCH  23  31
ENDBRANCH   1  18
TORSDOF 4
