MODEL 1
REMARK VINA RESULT:      -5.9      0.000      0.000
REMARK  13 active torsions:
REMARK  status: ('A' for Active; 'I' for Inactive)
REMARK    1  A    between atoms: C_1  and  O_7 
REMARK    2  A    between atoms: C_2  and  O_10 
REMARK    3  A    between atoms: C_3  and  O_11 
REMARK    4  A    between atoms: C_4  and  O_12 
REMARK    5  A    between atoms: C_6  and  C_8 
REMARK    6  A    between atoms: C_8  and  O_9 
REMARK    7  A    between atoms: O_12  and  C_13 
REMARK    8  A    between atoms: C_13  and  C_14 
REMARK    9  A    between atoms: C_15  and  C_16 
REMARK   10  A    between atoms: C_16  and  C_17 
REMARK   11  A    between atoms: C_17  and  C_18 
REMARK   12  A    between atoms: C_18  and  C_19 
REMARK   13  A    between atoms: C_19  and  C_20 
ROOT
HETATM    1  C   LIG     1      43.106   6.381   0.929  1.00  0.00     0.180 C 
HETATM    2  C   LIG     1      44.590   6.016   0.792  1.00  0.00     0.183 C 
HETATM    3  C   LIG     1      45.399   6.398   2.043  1.00  0.00     0.204 C 
HETATM    4  C   LIG     1      45.076   7.851   2.454  1.00  0.00     0.291 C 
HETATM    5  O   LIG     1      43.662   8.054   2.563  1.00  0.00    -0.348 OA
HETATM    6  C   LIG     1      42.996   7.863   1.311  1.00  0.00     0.179 C 
ENDROOT
BRANCH   4   7
HETATM    7  O   LIG     1      45.638   8.168   3.727  1.00  0.00    -0.355 OA
BRANCH   7   8
HETATM    8  C   LIG     1      45.930   9.555   3.846  1.00  0.00     0.198 C 
BRANCH   8   9
HETATM    9  C   LIG     1      47.326   9.711   4.366  1.00  0.00    -0.005 C 
HETATM   10  C   LIG     1      47.589  10.156   5.604  1.00  0.00    -0.029 C 
BRANCH  10  11
HETATM   11  C   LIG     1      48.968  10.323   6.176  1.00  0.00     0.027 C 
BRANCH  11  12
HETATM   12  C   LIG     1      49.317  11.808   6.323  1.00  0.00     0.004 C 
BRANCH  12  13
HETATM   13  C   LIG     1      48.589  12.454   7.502  1.00  0.00     0.000 C 
BRANCH  13  14
HETATM   14  C   LIG     1      49.187  11.986   8.830  1.00  0.00    -0.000 C 
BRANCH  14  15
HETATM   15  C   LIG     1      49.158  13.095   9.880  1.00  0.00    -0.005 C 
HETATM   16  C   LIG     1      50.564  13.533  10.259  1.00  0.00     0.005 C 
ENDBRANCH  14  15
ENDBRANCH  13  14
ENDBRANCH  12  13
ENDBRANCH  11  12
ENDBRANCH  10  11
ENDBRANCH   8   9
ENDBRANCH   7   8
ENDBRANCH   4   7
BRANCH   3  17
HETATM   17  O   LIG     1      46.795   6.243   1.734  1.00  0.00    -0.388 OA
HETATM   18  H   LIG     1      47.267   6.437   2.569  1.00  0.00     0.210 HD
ENDBRANCH   3  17
BRANCH   2  19
HETATM   19  O   LIG     1      44.745   4.609   0.554  1.00  0.00    -0.390 OA
HETATM   20  H   LIG     1      44.329   4.165   1.324  1.00  0.00     0.210 HD
ENDBRANCH   2  19
BRANCH   6  21
HETATM   21  C   LIG     1      41.551   8.342   1.456  1.00  0.00     0.198 C 
BRANCH  21  22
HETATM   22  O   LIG     1      41.510   9.665   1.974  1.00  0.00    -0.398 OA
HETATM   23  H   LIG     1      41.027   9.634   2.820  1.00  0.00     0.209 HD
ENDBRANCH  21  22
ENDBRANCH   6  21
BRANCH   1  24
HETATM   24  O   LIG     1      42.546   5.524   1.941  1.00  0.00    -0.390 OA
HETATM   25  H   LIG     1      41.760   5.976   2.306  1.00  0.00     0.210 HD
ENDBRANCH   1  24
TORSDOF 13
ENDMDL
MODEL 2
REMARK VINA RESULT:      -5.7      7.337     13.055
REMARK  13 active torsions:
REMARK  status: ('A' for Active; 'I' for Inactive)
REMARK    1  A    between atoms: C_1  and  O_7 
REMARK    2  A    between atoms: C_2  and  O_10 
REMARK    3  A    between atoms: C_3  and  O_11 
REMARK    4  A    between atoms: C_4  and  O_12 
REMARK    5  A    between atoms: C_6  and  C_8 
REMARK    6  A    between atoms: C_8  and  O_9 
REMARK    7  A    between atoms: O_12  and  C_13 
REMARK    8  A    between atoms: C_13  and  C_14 
REMARK    9  A    between atoms: C_15  and  C_16 
REMARK   10  A    between atoms: C_16  and  C_17 
REMARK   11  A    between atoms: C_17  and  C_18 
REMARK   12  A    between atoms: C_18  and  C_19 
REMARK   13  A    between atoms: C_19  and  C_20 
ROOT
HETATM    1  C   LIG     1      41.404   5.284   1.302  1.00  0.00     0.180 C 
HETATM    2  C   LIG     1      39.979   4.974   0.828  1.00  0.00     0.183 C 
HETATM    3  C   LIG     1      39.741   3.465   0.654  1.00  0.00     0.204 C 
HETATM    4  C   LIG     1      40.894   2.842  -0.162  1.00  0.00     0.291 C 
HETATM    5  O   LIG     1      42.167   3.192   0.394  1.00  0.00    -0.348 OA
HETATM    6  C   LIG     1      42.399   4.604   0.351  1.00  0.00     0.179 C 
ENDROOT
BRANCH   4   7
HETATM    7  O   LIG     1      40.821   1.416  -0.160  1.00  0.00    -0.355 OA
BRANCH   7   8
HETATM    8  C   LIG     1      41.402   0.859   1.013  1.00  0.00     0.198 C 
BRANCH   8   9
HETATM    9  C   LIG     1      40.468  -0.173   1.570  1.00  0.00    -0.005 C 
HETATM   10  C   LIG     1      39.975  -1.174   0.825  1.00  0.00    -0.029 C 
BRANCH  10  11
HETATM   11  C   LIG     1      39.043  -2.237   1.336  1.00  0.00     0.027 C 
BRANCH  11  12
HETATM   12  C   LIG     1      38.942  -3.394   0.336  1.00  0.00     0.004 C 
BRANCH  12  13
HETATM   13  C   LIG     1      39.695  -3.098  -0.961  1.00  0.00     0.000 C 
BRANCH  13  14
HETATM   14  C   LIG     1      40.738  -4.181  -1.242  1.00  0.00    -0.000 C 
BRANCH  14  15
HETATM   15  C   LIG     1      40.336  -5.052  -2.431  1.00  0.00    -0.005 C 
HETATM   16  C   LIG     1      40.954  -6.438  -2.337  1.00  0.00     0.005 C 
ENDBRANCH  14  15
ENDBRANCH  13  14
ENDBRANCH  12  13
ENDBRANCH  11  12
ENDBRANCH  10  11
ENDBRANCH   8   9
ENDBRANCH   7   8
ENDBRANCH   4   7
BRANCH   3  17
HETATM   17  O   LIG     1      38.478   3.289  -0.013  1.00  0.00    -0.388 OA
HETATM   18  H   LIG     1      37.856   3.887   0.450  1.00  0.00     0.210 HD
ENDBRANCH   3  17
BRANCH   2  19
HETATM   19  O   LIG     1      39.014   5.489   1.758  1.00  0.00    -0.390 OA
HETATM   20  H   LIG     1      38.386   4.754   1.919  1.00  0.00     0.210 HD
ENDBRANCH   2  19
BRANCH   6  21
HETATM   21  C   LIG     1      43.860   4.863   0.721  1.00  0.00     0.198 C 
BRANCH  21  22
HETATM   22  O   LIG     1      44.364   3.817   1.541  1.00  0.00    -0.398 OA
HETATM   23  H   LIG     1      45.016   3.320   1.015  1.00  0.00     0.209 HD
ENDBRANCH  21  22
ENDBRANCH   6  21
BRANCH   1  24
HETATM   24  O   LIG     1      41.526   4.787   2.648  1.00  0.00    -0.390 OA
HETATM   25  H   LIG     1      40.815   5.199   3.178  1.00  0.00     0.210 HD
ENDBRANCH   1  24
TORSDOF 13
ENDMDL
MODEL 3
REMARK VINA RESULT:      -5.6      3.072      4.284
REMARK  13 active torsions:
REMARK  status: ('A' for Active; 'I' for Inactive)
REMARK    1  A    between atoms: C_1  and  O_7 
REMARK    2  A    between atoms: C_2  and  O_10 
REMARK    3  A    between atoms: C_3  and  O_11 
REMARK    4  A    between atoms: C_4  and  O_12 
REMARK    5  A    between atoms: C_6  and  C_8 
REMARK    6  A    between atoms: C_8  and  O_9 
REMARK    7  A    between atoms: O_12  and  C_13 
REMARK    8  A    between atoms: C_13  and  C_14 
REMARK    9  A    between atoms: C_15  and  C_16 
REMARK   10  A    between atoms: C_16  and  C_17 
REMARK   11  A    between atoms: C_17  and  C_18 
REMARK   12  A    between atoms: C_18  and  C_19 
REMARK   13  A    between atoms: C_19  and  C_20 
ROOT
HETATM    1  C   LIG     1      41.686   6.142   0.639  1.00  0.00     0.180 C 
HETATM    2  C   LIG     1      42.688   4.993   0.478  1.00  0.00     0.183 C 
HETATM    3  C   LIG     1      43.780   5.019   1.560  1.00  0.00     0.204 C 
HETATM    4  C   LIG     1      44.368   6.441   1.678  1.00  0.00     0.291 C 
HETATM    5  O   LIG     1      43.332   7.417   1.842  1.00  0.00    -0.348 OA
HETATM    6  C   LIG     1      42.460   7.466   0.708  1.00  0.00     0.179 C 
ENDROOT
BRANCH   4   7
HETATM    7  O   LIG     1      45.227   6.556   2.814  1.00  0.00    -0.355 OA
BRANCH   7   8
HETATM    8  C   LIG     1      46.379   7.341   2.528  1.00  0.00     0.198 C 
BRANCH   8   9
HETATM    9  C   LIG     1      46.288   8.625   3.296  1.00  0.00    -0.005 C 
HETATM   10  C   LIG     1      45.929   8.669   4.588  1.00  0.00    -0.029 C 
BRANCH  10  11
HETATM   11  C   LIG     1      45.830   9.927   5.403  1.00  0.00     0.027 C 
BRANCH  11  12
HETATM   12  C   LIG     1      45.986  11.164   4.511  1.00  0.00     0.004 C 
BRANCH  12  13
HETATM   13  C   LIG     1      44.687  11.962   4.405  1.00  0.00     0.000 C 
BRANCH  13  14
HETATM   14  C   LIG     1      44.441  12.408   2.963  1.00  0.00    -0.000 C 
BRANCH  14  15
HETATM   15  C   LIG     1      43.830  11.286   2.125  1.00  0.00    -0.005 C 
HETATM   16  C   LIG     1      44.724  10.924   0.950  1.00  0.00     0.005 C 
ENDBRANCH  14  15
ENDBRANCH  13  14
ENDBRANCH  12  13
ENDBRANCH  11  12
ENDBRANCH  10  11
ENDBRANCH   8   9
ENDBRANCH   7   8
ENDBRANCH   4   7
BRANCH   3  17
HETATM   17  O   LIG     1      44.794   4.066   1.193  1.00  0.00    -0.388 OA
HETATM   18  H   LIG     1      45.355   4.527   0.536  1.00  0.00     0.210 HD
ENDBRANCH   3  17
BRANCH   2  19
HETATM   19  O   LIG     1      42.017   3.725   0.531  1.00  0.00    -0.390 OA
HETATM   20  H   LIG     1      42.378   3.204  -0.217  1.00  0.00     0.210 HD
ENDBRANCH   2  19
BRANCH   6  21
HETATM   21  C   LIG     1      41.553   8.688   0.851  1.00  0.00     0.198 C 
BRANCH  21  22
HETATM   22  O   LIG     1      40.824   8.632   2.070  1.00  0.00    -0.398 OA
HETATM   23  H   LIG     1      40.303   7.809   2.064  1.00  0.00     0.209 HD
ENDBRANCH  21  22
ENDBRANCH   6  21
BRANCH   1  24
HETATM   24  O   LIG     1      40.941   5.895   1.846  1.00  0.00    -0.390 OA
HETATM   25  H   LIG     1      39.991   5.942   1.619  1.00  0.00     0.210 HD
ENDBRANCH   1  24
TORSDOF 13
ENDMDL
MODEL 4
REMARK VINA RESULT:      -5.5     19.713     22.949
REMARK  13 active torsions:
REMARK  status: ('A' for Active; 'I' for Inactive)
REMARK    1  A    between atoms: C_1  and  O_7 
REMARK    2  A    between atoms: C_2  and  O_10 
REMARK    3  A    between atoms: C_3  and  O_11 
REMARK    4  A    between atoms: C_4  and  O_12 
REMARK    5  A    between atoms: C_6  and  C_8 
REMARK    6  A    between atoms: C_8  and  O_9 
REMARK    7  A    between atoms: O_12  and  C_13 
REMARK    8  A    between atoms: C_13  and  C_14 
REMARK    9  A    between atoms: C_15  and  C_16 
REMARK   10  A    between atoms: C_16  and  C_17 
REMARK   11  A    between atoms: C_17  and  C_18 
REMARK   12  A    between atoms: C_18  and  C_19 
REMARK   13  A    between atoms: C_19  and  C_20 
ROOT
HETATM    1  C   LIG     1      43.321  25.581  20.995  1.00  0.00     0.180 C 
HETATM    2  C   LIG     1      42.537  26.886  20.814  1.00  0.00     0.183 C 
HETATM    3  C   LIG     1      42.625  27.421  19.375  1.00  0.00     0.204 C 
HETATM    4  C   LIG     1      44.096  27.424  18.905  1.00  0.00     0.291 C 
HETATM    5  O   LIG     1      44.707  26.145  19.113  1.00  0.00    -0.348 OA
HETATM    6  C   LIG     1      44.758  25.796  20.499  1.00  0.00     0.179 C 
ENDROOT
BRANCH   4   7
HETATM    7  O   LIG     1      44.195  27.708  17.509  1.00  0.00    -0.355 OA
BRANCH   7   8
HETATM    8  C   LIG     1      43.980  26.546  16.717  1.00  0.00     0.198 C 
BRANCH   8   9
HETATM    9  C   LIG     1      45.232  26.249  15.948  1.00  0.00    -0.005 C 
HETATM   10  C   LIG     1      46.278  27.089  15.924  1.00  0.00    -0.029 C 
BRANCH  10  11
HETATM   11  C   LIG     1      47.557  26.836  15.175  1.00  0.00     0.027 C 
BRANCH  11  12
HETATM   12  C   LIG     1      47.953  25.358  15.266  1.00  0.00     0.004 C 
BRANCH  12  13
HETATM   13  C   LIG     1      49.217  25.154  16.103  1.00  0.00     0.000 C 
BRANCH  13  14
HETATM   14  C   LIG     1      49.805  23.763  15.864  1.00  0.00    -0.000 C 
BRANCH  14  15
HETATM   15  C   LIG     1      49.917  23.449  14.374  1.00  0.00    -0.005 C 
HETATM   16  C   LIG     1      51.331  23.032  14.000  1.00  0.00     0.005 C 
ENDBRANCH  14  15
ENDBRANCH  13  14
ENDBRANCH  12  13
ENDBRANCH  11  12
ENDBRANCH  10  11
ENDBRANCH   8   9
ENDBRANCH   7   8
ENDBRANCH   4   7
BRANCH   3  17
HETATM   17  O   LIG     1      42.071  28.749  19.360  1.00  0.00    -0.388 OA
HETATM   18  H   LIG     1      41.677  28.854  18.470  1.00  0.00     0.210 HD
ENDBRANCH   3  17
BRANCH   2  19
HETATM   19  O   LIG     1      41.154  26.696  21.151  1.00  0.00    -0.390 OA
HETATM   20  H   LIG     1      41.078  26.941  22.097  1.00  0.00     0.210 HD
ENDBRANCH   2  19
BRANCH   6  21
HETATM   21  C   LIG     1      45.639  24.556  20.651  1.00  0.00     0.198 C 
BRANCH  21  22
HETATM   22  O   LIG     1      45.444  23.664  19.562  1.00  0.00    -0.398 OA
HETATM   23  H   LIG     1      46.228  23.725  18.987  1.00  0.00     0.209 HD
ENDBRANCH  21  22
ENDBRANCH   6  21
BRANCH   1  24
HETATM   24  O   LIG     1      42.641  24.563  20.236  1.00  0.00    -0.390 OA
HETATM   25  H   LIG     1      42.229  23.948  20.874  1.00  0.00     0.210 HD
ENDBRANCH   1  24
TORSDOF 13
ENDMDL
MODEL 5
REMARK VINA RESULT:      -5.4      3.786      5.820
REMARK  13 active torsions:
REMARK  status: ('A' for Active; 'I' for Inactive)
REMARK    1  A    between atoms: C_1  and  O_7 
REMARK    2  A    between atoms: C_2  and  O_10 
REMARK    3  A    between atoms: C_3  and  O_11 
REMARK    4  A    between atoms: C_4  and  O_12 
REMARK    5  A    between atoms: C_6  and  C_8 
REMARK    6  A    between atoms: C_8  and  O_9 
REMARK    7  A    between atoms: O_12  and  C_13 
REMARK    8  A    between atoms: C_13  and  C_14 
REMARK    9  A    between atoms: C_15  and  C_16 
REMARK   10  A    between atoms: C_16  and  C_17 
REMARK   11  A    between atoms: C_17  and  C_18 
REMARK   12  A    between atoms: C_18  and  C_19 
REMARK   13  A    between atoms: C_19  and  C_20 
ROOT
HETATM    1  C   LIG     1      38.870   4.258   0.334  1.00  0.00     0.180 C 
HETATM    2  C   LIG     1      39.433   2.994   0.994  1.00  0.00     0.183 C 
HETATM    3  C   LIG     1      40.929   3.128   1.324  1.00  0.00     0.204 C 
HETATM    4  C   LIG     1      41.691   3.666   0.093  1.00  0.00     0.291 C 
HETATM    5  O   LIG     1      41.075   4.856  -0.416  1.00  0.00    -0.348 OA
HETATM    6  C   LIG     1      39.743   4.612  -0.878  1.00  0.00     0.179 C 
ENDROOT
BRANCH   4   7
HETATM    7  O   LIG     1      43.037   4.008   0.424  1.00  0.00    -0.355 OA
BRANCH   7   8
HETATM    8  C   LIG     1      43.197   5.410   0.608  1.00  0.00     0.198 C 
BRANCH   8   9
HETATM    9  C   LIG     1      44.390   5.647   1.483  1.00  0.00    -0.005 C 
HETATM   10  C   LIG     1      44.835   6.878   1.776  1.00  0.00    -0.029 C 
BRANCH  10  11
HETATM   11  C   LIG     1      46.020   7.170   2.653  1.00  0.00     0.027 C 
BRANCH  11  12
HETATM   12  C   LIG     1      45.722   8.343   3.594  1.00  0.00     0.004 C 
BRANCH  12  13
HETATM   13  C   LIG     1      45.607   9.668   2.839  1.00  0.00     0.000 C 
BRANCH  13  14
HETATM   14  C   LIG     1      45.620  10.848   3.812  1.00  0.00    -0.000 C 
BRANCH  14  15
HETATM   15  C   LIG     1      45.645  10.377   5.265  1.00  0.00    -0.005 C 
HETATM   16  C   LIG     1      44.893  11.339   6.171  1.00  0.00     0.005 C 
ENDBRANCH  14  15
ENDBRANCH  13  14
ENDBRANCH  12  13
ENDBRANCH  11  12
ENDBRANCH  10  11
ENDBRANCH   8   9
ENDBRANCH   7   8
ENDBRANCH   4   7
BRANCH   3  17
HETATM   17  O   LIG     1      41.417   1.831   1.711  1.00  0.00    -0.388 OA
HETATM   18  H   LIG     1      42.032   1.998   2.454  1.00  0.00     0.210 HD
ENDBRANCH   3  17
BRANCH   2  19
HETATM   19  O   LIG     1      38.720   2.695   2.204  1.00  0.00    -0.390 OA
HETATM   20  H   LIG     1      39.034   1.809   2.483  1.00  0.00     0.210 HD
ENDBRANCH   2  19
BRANCH   6  21
HETATM   21  C   LIG     1      39.258   5.853  -1.627  1.00  0.00     0.198 C 
BRANCH  21  22
HETATM   22  O   LIG     1      37.879   6.086  -1.375  1.00  0.00    -0.398 OA
HETATM   23  H   LIG     1      37.758   7.046  -1.262  1.00  0.00     0.209 HD
ENDBRANCH  21  22
ENDBRANCH   6  21
BRANCH   1  24
HETATM   24  O   LIG     1      38.883   5.302   1.326  1.00  0.00    -0.390 OA
HETATM   25  H   LIG     1      38.421   6.074   0.945  1.00  0.00     0.210 HD
ENDBRANCH   1  24
TORSDOF 13
ENDMDL
MODEL 6
REMARK VINA RESULT:      -5.3     17.854     21.140
REMARK  13 active torsions:
REMARK  status: ('A' for Active; 'I' for Inactive)
REMARK    1  A    between atoms: C_1  and  O_7 
REMARK    2  A    between atoms: C_2  and  O_10 
REMARK    3  A    between atoms: C_3  and  O_11 
REMARK    4  A    between atoms: C_4  and  O_12 
REMARK    5  A    between atoms: C_6  and  C_8 
REMARK    6  A    between atoms: C_8  and  O_9 
REMARK    7  A    between atoms: O_12  and  C_13 
REMARK    8  A    between atoms: C_13  and  C_14 
REMARK    9  A    between atoms: C_15  and  C_16 
REMARK   10  A    between atoms: C_16  and  C_17 
REMARK   11  A    between atoms: C_17  and  C_18 
REMARK   12  A    between atoms: C_18  and  C_19 
REMARK   13  A    between atoms: C_19  and  C_20 
ROOT
HETATM    1  C   LIG     1      55.003  12.768  24.892  1.00  0.00     0.180 C 
HETATM    2  C   LIG     1      53.537  13.208  24.802  1.00  0.00     0.183 C 
HETATM    3  C   LIG     1      52.886  12.790  23.472  1.00  0.00     0.204 C 
HETATM    4  C   LIG     1      53.803  13.183  22.294  1.00  0.00     0.291 C 
HETATM    5  O   LIG     1      55.136  12.699  22.493  1.00  0.00    -0.348 OA
HETATM    6  C   LIG     1      55.748  13.277  23.650  1.00  0.00     0.179 C 
ENDROOT
BRANCH   4   7
HETATM    7  O   LIG     1      53.339  12.622  21.065  1.00  0.00    -0.355 OA
BRANCH   7   8
HETATM    8  C   LIG     1      53.725  13.410  19.945  1.00  0.00     0.198 C 
BRANCH   8   9
HETATM    9  C   LIG     1      54.128  12.494  18.829  1.00  0.00    -0.005 C 
HETATM   10  C   LIG     1      55.231  12.698  18.093  1.00  0.00    -0.029 C 
BRANCH  10  11
HETATM   11  C   LIG     1      55.683  11.807  16.970  1.00  0.00     0.027 C 
BRANCH  11  12
HETATM   12  C   LIG     1      56.093  10.429  17.503  1.00  0.00     0.004 C 
BRANCH  12  13
HETATM   13  C   LIG     1      57.600  10.331  17.739  1.00  0.00     0.000 C 
BRANCH  13  14
HETATM   14  C   LIG     1      58.085   8.893  17.550  1.00  0.00    -0.000 C 
BRANCH  14  15
HETATM   15  C   LIG     1      57.353   8.201  16.401  1.00  0.00    -0.005 C 
HETATM   16  C   LIG     1      58.104   8.364  15.089  1.00  0.00     0.005 C 
ENDBRANCH  14  15
ENDBRANCH  13  14
ENDBRANCH  12  13
ENDBRANCH  11  12
ENDBRANCH  10  11
ENDBRANCH   8   9
ENDBRANCH   7   8
ENDBRANCH   4   7
BRANCH   3  17
HETATM   17  O   LIG     1      51.608  13.444  23.378  1.00  0.00    -0.388 OA
HETATM   18  H   LIG     1      50.945  12.734  23.497  1.00  0.00     0.210 HD
ENDBRANCH   3  17
BRANCH   2  19
HETATM   19  O   LIG     1      52.774  12.651  25.883  1.00  0.00    -0.390 OA
HETATM   20  H   LIG     1      52.337  13.414  26.317  1.00  0.00     0.210 HD
ENDBRANCH   2  19
BRANCH   6  21
HETATM   21  C   LIG     1      57.232  12.909  23.645  1.00  0.00     0.198 C 
BRANCH  21  22
HETATM   22  O   LIG     1      57.434  11.648  23.021  1.00  0.00    -0.398 OA
HETATM   23  H   LIG     1      56.593  11.158  23.068  1.00  0.00     0.209 HD
ENDBRANCH  21  22
ENDBRANCH   6  21
BRANCH   1  24
HETATM   24  O   LIG     1      55.015  11.331  24.973  1.00  0.00    -0.390 OA
HETATM   25  H   LIG     1      54.413  11.072  25.698  1.00  0.00     0.210 HD
ENDBRANCH   1  24
TORSDOF 13
ENDMDL
MODEL 7
REMARK VINA RESULT:      -5.3      1.522      2.832
REMARK  13 active torsions:
REMARK  status: ('A' for Active; 'I' for Inactive)
REMARK    1  A    between atoms: C_1  and  O_7 
REMARK    2  A    between atoms: C_2  and  O_10 
REMARK    3  A    between atoms: C_3  and  O_11 
REMARK    4  A    between atoms: C_4  and  O_12 
REMARK    5  A    between atoms: C_6  and  C_8 
REMARK    6  A    between atoms: C_8  and  O_9 
REMARK    7  A    between atoms: O_12  and  C_13 
REMARK    8  A    between atoms: C_13  and  C_14 
REMARK    9  A    between atoms: C_15  and  C_16 
REMARK   10  A    between atoms: C_16  and  C_17 
REMARK   11  A    between atoms: C_17  and  C_18 
REMARK   12  A    between atoms: C_18  and  C_19 
REMARK   13  A    between atoms: C_19  and  C_20 
ROOT
HETATM    1  C   LIG     1      43.187   5.439  -0.207  1.00  0.00     0.180 C 
HETATM    2  C   LIG     1      43.297   6.871  -0.746  1.00  0.00     0.183 C 
HETATM    3  C   LIG     1      43.920   7.831   0.282  1.00  0.00     0.204 C 
HETATM    4  C   LIG     1      43.227   7.655   1.651  1.00  0.00     0.291 C 
HETATM    5  O   LIG     1      43.206   6.279   2.046  1.00  0.00    -0.348 OA
HETATM    6  C   LIG     1      42.448   5.474   1.138  1.00  0.00     0.179 C 
ENDROOT
BRANCH   4   7
HETATM    7  O   LIG     1      43.917   8.369   2.677  1.00  0.00    -0.355 OA
BRANCH   7   8
HETATM    8  C   LIG     1      45.284   7.982   2.763  1.00  0.00     0.198 C 
BRANCH   8   9
HETATM    9  C   LIG     1      46.056   9.084   3.422  1.00  0.00    -0.005 C 
HETATM   10  C   LIG     1      45.863   9.433   4.704  1.00  0.00    -0.029 C 
BRANCH  10  11
HETATM   11  C   LIG     1      46.615  10.523   5.413  1.00  0.00     0.027 C 
BRANCH  11  12
HETATM   12  C   LIG     1      48.059  10.092   5.692  1.00  0.00     0.004 C 
BRANCH  12  13
HETATM   13  C   LIG     1      48.964  11.285   6.001  1.00  0.00     0.000 C 
BRANCH  13  14
HETATM   14  C   LIG     1      49.328  11.320   7.486  1.00  0.00    -0.000 C 
BRANCH  14  15
HETATM   15  C   LIG     1      48.885  12.627   8.141  1.00  0.00    -0.005 C 
HETATM   16  C   LIG     1      49.637  12.878   9.438  1.00  0.00     0.005 C 
ENDBRANCH  14  15
ENDBRANCH  13  14
ENDBRANCH  12  13
ENDBRANCH  11  12
ENDBRANCH  10  11
ENDBRANCH   8   9
ENDBRANCH   7   8
ENDBRANCH   4   7
BRANCH   3  17
HETATM   17  O   LIG     1      43.763   9.174  -0.212  1.00  0.00    -0.388 OA
HETATM   18  H   LIG     1      42.815   9.385  -0.086  1.00  0.00     0.210 HD
ENDBRANCH   3  17
BRANCH   2  19
HETATM   19  O   LIG     1      44.088   6.901  -1.943  1.00  0.00    -0.390 OA
HETATM   20  H   LIG     1      44.958   6.524  -1.693  1.00  0.00     0.210 HD
ENDBRANCH   2  19
BRANCH   6  21
HETATM   21  C   LIG     1      42.265   4.089   1.760  1.00  0.00     0.198 C 
BRANCH  21  22
HETATM   22  O   LIG     1      43.525   3.495   2.042  1.00  0.00    -0.398 OA
HETATM   23  H   LIG     1      43.764   3.732   2.956  1.00  0.00     0.209 HD
ENDBRANCH  21  22
ENDBRANCH   6  21
BRANCH   1  24
HETATM   24  O   LIG     1      44.527   4.930  -0.069  1.00  0.00    -0.390 OA
HETATM   25  H   LIG     1      44.614   4.166  -0.672  1.00  0.00     0.210 HD
ENDBRANCH   1  24
TORSDOF 13
ENDMDL
MODEL 8
REMARK VINA RESULT:      -5.3      2.787      5.501
REMARK  13 active torsions:
REMARK  status: ('A' for Active; 'I' for Inactive)
REMARK    1  A    between atoms: C_1  and  O_7 
REMARK    2  A    between atoms: C_2  and  O_10 
REMARK    3  A    between atoms: C_3  and  O_11 
REMARK    4  A    between atoms: C_4  and  O_12 
REMARK    5  A    between atoms: C_6  and  C_8 
REMARK    6  A    between atoms: C_8  and  O_9 
REMARK    7  A    between atoms: O_12  and  C_13 
REMARK    8  A    between atoms: C_13  and  C_14 
REMARK    9  A    between atoms: C_15  and  C_16 
REMARK   10  A    between atoms: C_16  and  C_17 
REMARK   11  A    between atoms: C_17  and  C_18 
REMARK   12  A    between atoms: C_18  and  C_19 
REMARK   13  A    between atoms: C_19  and  C_20 
ROOT
HETATM    1  C   LIG     1      40.486   4.547   1.086  1.00  0.00     0.180 C 
HETATM    2  C   LIG     1      41.183   5.740   1.750  1.00  0.00     0.183 C 
HETATM    3  C   LIG     1      42.649   5.877   1.307  1.00  0.00     0.204 C 
HETATM    4  C   LIG     1      43.359   4.510   1.416  1.00  0.00     0.291 C 
HETATM    5  O   LIG     1      42.617   3.487   0.742  1.00  0.00    -0.348 OA
HETATM    6  C   LIG     1      41.328   3.286   1.330  1.00  0.00     0.179 C 
ENDROOT
BRANCH   4   7
HETATM    7  O   LIG     1      44.653   4.548   0.812  1.00  0.00    -0.355 OA
BRANCH   7   8
HETATM    8  C   LIG     1      44.628   5.203  -0.451  1.00  0.00     0.198 C 
BRANCH   8   9
HETATM    9  C   LIG     1      45.552   6.382  -0.399  1.00  0.00    -0.005 C 
HETATM   10  C   LIG     1      46.386   6.600   0.630  1.00  0.00    -0.029 C 
BRANCH  10  11
HETATM   11  C   LIG     1      47.336   7.760   0.727  1.00  0.00     0.027 C 
BRANCH  11  12
HETATM   12  C   LIG     1      47.501   8.203   2.185  1.00  0.00     0.004 C 
BRANCH  12  13
HETATM   13  C   LIG     1      46.251   8.906   2.715  1.00  0.00     0.000 C 
BRANCH  13  14
HETATM   14  C   LIG     1      46.047   8.601   4.200  1.00  0.00    -0.000 C 
BRANCH  14  15
HETATM   15  C   LIG     1      46.148   9.865   5.051  1.00  0.00    -0.005 C 
HETATM   16  C   LIG     1      47.573  10.100   5.526  1.00  0.00     0.005 C 
ENDBRANCH  14  15
ENDBRANCH  13  14
ENDBRANCH  12  13
ENDBRANCH  11  12
ENDBRANCH  10  11
ENDBRANCH   8   9
ENDBRANCH   7   8
ENDBRANCH   4   7
BRANCH   3  17
HETATM   17  O   LIG     1      43.279   6.859   2.149  1.00  0.00    -0.388 OA
HETATM   18  H   LIG     1      44.162   6.492   2.357  1.00  0.00     0.210 HD
ENDBRANCH   3  17
BRANCH   2  19
HETATM   19  O   LIG     1      40.493   6.962   1.444  1.00  0.00    -0.390 OA
HETATM   20  H   LIG     1      39.714   6.698   0.911  1.00  0.00     0.210 HD
ENDBRANCH   2  19
BRANCH   6  21
HETATM   21  C   LIG     1      40.713   2.025   0.724  1.00  0.00     0.198 C 
BRANCH  21  22
HETATM   22  O   LIG     1      39.911   1.347   1.681  1.00  0.00    -0.398 OA
HETATM   23  H   LIG     1      39.176   1.940   1.922  1.00  0.00     0.209 HD
ENDBRANCH  21  22
ENDBRANCH   6  21
BRANCH   1  24
HETATM   24  O   LIG     1      40.366   4.846  -0.317  1.00  0.00    -0.390 OA
HETATM   25  H   LIG     1      40.313   5.818  -0.406  1.00  0.00     0.210 HD
ENDBRANCH   1  24
TORSDOF 13
ENDMDL
MODEL 9
REMARK VINA RESULT:      -5.2     17.479     20.105
REMARK  13 active torsions:
REMARK  status: ('A' for Active; 'I' for Inactive)
REMARK    1  A    between atoms: C_1  and  O_7 
REMARK    2  A    between atoms: C_2  and  O_10 
REMARK    3  A    between atoms: C_3  and  O_11 
REMARK    4  A    between atoms: C_4  and  O_12 
REMARK    5  A    between atoms: C_6  and  C_8 
REMARK    6  A    between atoms: C_8  and  O_9 
REMARK    7  A    between atoms: O_12  and  C_13 
REMARK    8  A    between atoms: C_13  and  C_14 
REMARK    9  A    between atoms: C_15  and  C_16 
REMARK   10  A    between atoms: C_16  and  C_17 
REMARK   11  A    between atoms: C_17  and  C_18 
REMARK   12  A    between atoms: C_18  and  C_19 
REMARK   13  A    between atoms: C_19  and  C_20 
ROOT
HETATM    1  C   LIG     1      43.591  -7.722  -3.457  1.00  0.00     0.180 C 
HETATM    2  C   LIG     1      42.812  -8.292  -4.648  1.00  0.00     0.183 C 
HETATM    3  C   LIG     1      41.626  -7.397  -5.048  1.00  0.00     0.204 C 
HETATM    4  C   LIG     1      40.804  -7.025  -3.795  1.00  0.00     0.291 C 
HETATM    5  O   LIG     1      41.645  -6.490  -2.766  1.00  0.00    -0.348 OA
HETATM    6  C   LIG     1      42.607  -7.446  -2.311  1.00  0.00     0.179 C 
ENDROOT
BRANCH   4   7
HETATM    7  O   LIG     1      39.828  -6.026  -4.092  1.00  0.00    -0.355 OA
BRANCH   7   8
HETATM    8  C   LIG     1      39.247  -5.487  -2.910  1.00  0.00     0.198 C 
BRANCH   8   9
HETATM    9  C   LIG     1      37.864  -5.007  -3.230  1.00  0.00    -0.005 C 
HETATM   10  C   LIG     1      36.786  -5.398  -2.534  1.00  0.00    -0.029 C 
BRANCH  10  11
HETATM   11  C   LIG     1      35.381  -4.942  -2.808  1.00  0.00     0.027 C 
BRANCH  11  12
HETATM   12  C   LIG     1      34.726  -5.820  -3.880  1.00  0.00     0.004 C 
BRANCH  12  13
HETATM   13  C   LIG     1      34.463  -7.239  -3.376  1.00  0.00     0.000 C 
BRANCH  13  14
HETATM   14  C   LIG     1      35.254  -8.261  -4.194  1.00  0.00    -0.000 C 
BRANCH  14  15
HETATM   15  C   LIG     1      35.917  -7.614  -5.409  1.00  0.00    -0.005 C 
HETATM   16  C   LIG     1      37.248  -8.274  -5.729  1.00  0.00     0.005 C 
ENDBRANCH  14  15
ENDBRANCH  13  14
ENDBRANCH  12  13
ENDBRANCH  11  12
ENDBRANCH  10  11
ENDBRANCH   8   9
ENDBRANCH   7   8
ENDBRANCH   4   7
BRANCH   3  17
HETATM   17  O   LIG     1      40.825  -8.120  -6.000  1.00  0.00    -0.388 OA
HETATM   18  H   LIG     1      39.929  -8.157  -5.607  1.00  0.00     0.210 HD
ENDBRANCH   3  17
BRANCH   2  19
HETATM   19  O   LIG     1      43.673  -8.451  -5.786  1.00  0.00    -0.390 OA
HETATM   20  H   LIG     1      43.208  -8.015  -6.531  1.00  0.00     0.210 HD
ENDBRANCH   2  19
BRANCH   6  21
HETATM   21  C   LIG     1      43.284  -6.889  -1.058  1.00  0.00     0.198 C 
BRANCH  21  22
HETATM   22  O   LIG     1      43.442  -7.907  -0.078  1.00  0.00    -0.398 OA
HETATM   23  H   LIG     1      42.552  -8.189   0.199  1.00  0.00     0.209 HD
ENDBRANCH  21  22
ENDBRANCH   6  21
BRANCH   1  24
HETATM   24  O   LIG     1      44.240  -6.518  -3.906  1.00  0.00    -0.390 OA
HETATM   25  H   LIG     1      45.149  -6.523  -3.547  1.00  0.00     0.210 HD
ENDBRANCH   1  24
TORSDOF 13
ENDMDL
