MODEL 1
REMARK VINA RESULT:      -5.2      0.000      0.000
REMARK  15 active torsions:
REMARK  status: ('A' for Active; 'I' for Inactive)
REMARK    1  A    between atoms: C_1  and  O_7 
REMARK    2  A    between atoms: C_2  and  O_10 
REMARK    3  A    between atoms: C_3  and  O_11 
REMARK    4  A    between atoms: C_4  and  O_12 
REMARK    5  A    between atoms: C_6  and  C_8 
REMARK    6  A    between atoms: C_8  and  O_9 
REMARK    7  A    between atoms: O_12  and  C_13 
REMARK    8  A    between atoms: C_13  and  C_14 
REMARK    9  A    between atoms: C_15  and  C_16 
REMARK   10  A    between atoms: C_16  and  C_17 
REMARK   11  A    between atoms: C_17  and  C_18 
REMARK   12  A    between atoms: C_18  and  C_19 
REMARK   13  A    between atoms: C_19  and  C_20 
REMARK   14  A    between atoms: C_20  and  C_21 
REMARK   15  A    between atoms: C_21  and  C_22 
ROOT
HETATM    1  C   LIG     1      42.345   4.434   1.402  1.00  0.00     0.180 C 
HETATM    2  C   LIG     1      43.641   5.030   0.849  1.00  0.00     0.183 C 
HETATM    3  C   LIG     1      43.940   6.414   1.444  1.00  0.00     0.204 C 
HETATM    4  C   LIG     1      42.689   7.328   1.384  1.00  0.00     0.291 C 
HETATM    5  O   LIG     1      41.541   6.636   1.917  1.00  0.00    -0.348 OA
HETATM    6  C   LIG     1      41.220   5.451   1.182  1.00  0.00     0.179 C 
ENDROOT
BRANCH   4   7
HETATM    7  O   LIG     1      42.817   8.505   2.186  1.00  0.00    -0.355 OA
BRANCH   7   8
HETATM    8  C   LIG     1      42.995   9.727   1.483  1.00  0.00     0.198 C 
BRANCH   8   9
HETATM    9  C   LIG     1      43.787  10.720   2.282  1.00  0.00    -0.005 C 
HETATM   10  C   LIG     1      44.140  11.931   1.819  1.00  0.00    -0.029 C 
BRANCH  10  11
HETATM   11  C   LIG     1      44.974  12.923   2.578  1.00  0.00     0.027 C 
BRANCH  11  12
HETATM   12  C   LIG     1      46.463  12.720   2.281  1.00  0.00     0.004 C 
BRANCH  12  13
HETATM   13  C   LIG     1      47.260  12.417   3.553  1.00  0.00     0.000 C 
BRANCH  13  14
HETATM   14  C   LIG     1      46.469  12.806   4.803  1.00  0.00     0.000 C 
BRANCH  14  15
HETATM   15  C   LIG     1      46.488  11.694   5.853  1.00  0.00     0.000 C 
BRANCH  15  16
HETATM   16  C   LIG     1      45.624  10.508   5.419  1.00  0.00    -0.000 C 
BRANCH  16  17
HETATM   17  C   LIG     1      46.469   9.255   5.187  1.00  0.00    -0.005 C 
HETATM   18  C   LIG     1      45.905   8.404   4.059  1.00  0.00     0.005 C 
ENDBRANCH  16  17
ENDBRANCH  15  16
ENDBRANCH  14  15
ENDBRANCH  13  14
ENDBRANCH  12  13
ENDBRANCH  11  12
ENDBRANCH  10  11
ENDBRANCH   8   9
ENDBRANCH   7   8
ENDBRANCH   4   7
BRANCH   3  19
HETATM   19  O   LIG     1      45.058   6.950   0.714  1.00  0.00    -0.388 OA
HETATM   20  H   LIG     1      45.848   6.702   1.237  1.00  0.00     0.210 HD
ENDBRANCH   3  19
BRANCH   2  21
HETATM   21  O   LIG     1      44.754   4.164   1.134  1.00  0.00    -0.390 OA
HETATM   22  H   LIG     1      45.447   4.407   0.486  1.00  0.00     0.210 HD
ENDBRANCH   2  21
BRANCH   6  23
HETATM   23  C   LIG     1      39.862   4.928   1.651  1.00  0.00     0.198 C 
BRANCH  23  24
HETATM   24  O   LIG     1      39.899   4.714   3.057  1.00  0.00    -0.398 OA
HETATM   25  H   LIG     1      40.316   5.498   3.457  1.00  0.00     0.209 HD
ENDBRANCH  23  24
ENDBRANCH   6  23
BRANCH   1  26
HETATM   26  O   LIG     1      42.555   4.165   2.802  1.00  0.00    -0.390 OA
HETATM   27  H   LIG     1      41.726   4.395   3.268  1.00  0.00     0.210 HD
ENDBRANCH   1  26
TORSDOF 15
ENDMDL
MODEL 2
REMARK VINA RESULT:      -5.2      3.258      4.407
REMARK  15 active torsions:
REMARK  status: ('A' for Active; 'I' for Inactive)
REMARK    1  A    between atoms: C_1  and  O_7 
REMARK    2  A    between atoms: C_2  and  O_10 
REMARK    3  A    between atoms: C_3  and  O_11 
REMARK    4  A    between atoms: C_4  and  O_12 
REMARK    5  A    between atoms: C_6  and  C_8 
REMARK    6  A    between atoms: C_8  and  O_9 
REMARK    7  A    between atoms: O_12  and  C_13 
REMARK    8  A    between atoms: C_13  and  C_14 
REMARK    9  A    between atoms: C_15  and  C_16 
REMARK   10  A    between atoms: C_16  and  C_17 
REMARK   11  A    between atoms: C_17  and  C_18 
REMARK   12  A    between atoms: C_18  and  C_19 
REMARK   13  A    between atoms: C_19  and  C_20 
REMARK   14  A    between atoms: C_20  and  C_21 
REMARK   15  A    between atoms: C_21  and  C_22 
ROOT
HETATM    1  C   LIG     1      42.789   6.834   0.927  1.00  0.00     0.180 C 
HETATM    2  C   LIG     1      44.097   6.155   0.515  1.00  0.00     0.183 C 
HETATM    3  C   LIG     1      45.153   6.210   1.629  1.00  0.00     0.204 C 
HETATM    4  C   LIG     1      45.281   7.645   2.204  1.00  0.00     0.291 C 
HETATM    5  O   LIG     1      43.977   8.168   2.530  1.00  0.00    -0.348 OA
HETATM    6  C   LIG     1      43.116   8.257   1.391  1.00  0.00     0.179 C 
ENDROOT
BRANCH   4   7
HETATM    7  O   LIG     1      46.015   7.693   3.430  1.00  0.00    -0.355 OA
BRANCH   7   8
HETATM    8  C   LIG     1      45.616   8.689   4.362  1.00  0.00     0.198 C 
BRANCH   8   9
HETATM    9  C   LIG     1      46.796   9.362   4.999  1.00  0.00    -0.005 C 
HETATM   10  C   LIG     1      46.781  10.636   5.428  1.00  0.00    -0.029 C 
BRANCH  10  11
HETATM   11  C   LIG     1      47.962  11.348   6.023  1.00  0.00     0.027 C 
BRANCH  11  12
HETATM   12  C   LIG     1      49.020  10.346   6.493  1.00  0.00     0.004 C 
BRANCH  12  13
HETATM   13  C   LIG     1      49.856  10.902   7.648  1.00  0.00     0.000 C 
BRANCH  13  14
HETATM   14  C   LIG     1      51.331  10.528   7.488  1.00  0.00     0.000 C 
BRANCH  14  15
HETATM   15  C   LIG     1      52.007  11.347   6.387  1.00  0.00     0.000 C 
BRANCH  15  16
HETATM   16  C   LIG     1      53.388  10.785   6.047  1.00  0.00    -0.000 C 
BRANCH  16  17
HETATM   17  C   LIG     1      53.289   9.382   5.448  1.00  0.00    -0.005 C 
HETATM   18  C   LIG     1      52.333   9.348   4.264  1.00  0.00     0.005 C 
ENDBRANCH  16  17
ENDBRANCH  15  16
ENDBRANCH  14  15
ENDBRANCH  13  14
ENDBRANCH  12  13
ENDBRANCH  11  12
ENDBRANCH  10  11
ENDBRANCH   8   9
ENDBRANCH   7   8
ENDBRANCH   4   7
BRANCH   3  19
HETATM   19  O   LIG     1      46.383   5.725   1.064  1.00  0.00    -0.388 OA
HETATM   20  H   LIG     1      46.192   4.805   0.787  1.00  0.00     0.210 HD
ENDBRANCH   3  19
BRANCH   2  21
HETATM   21  O   LIG     1      43.863   4.776   0.180  1.00  0.00    -0.390 OA
HETATM   22  H   LIG     1      44.051   4.704  -0.778  1.00  0.00     0.210 HD
ENDBRANCH   2  21
BRANCH   6  23
HETATM   23  C   LIG     1      41.864   9.047   1.773  1.00  0.00     0.198 C 
BRANCH  23  24
HETATM   24  O   LIG     1      40.720   8.211   1.640  1.00  0.00    -0.398 OA
HETATM   25  H   LIG     1      40.303   8.151   2.518  1.00  0.00     0.209 HD
ENDBRANCH  23  24
ENDBRANCH   6  23
BRANCH   1  26
HETATM   26  O   LIG     1      42.209   6.048   1.986  1.00  0.00    -0.390 OA
HETATM   27  H   LIG     1      42.807   6.117   2.758  1.00  0.00     0.210 HD
ENDBRANCH   1  26
TORSDOF 15
ENDMDL
MODEL 3
REMARK VINA RESULT:      -5.1      2.562      3.705
REMARK  15 active torsions:
REMARK  status: ('A' for Active; 'I' for Inactive)
REMARK    1  A    between atoms: C_1  and  O_7 
REMARK    2  A    between atoms: C_2  and  O_10 
REMARK    3  A    between atoms: C_3  and  O_11 
REMARK    4  A    between atoms: C_4  and  O_12 
REMARK    5  A    between atoms: C_6  and  C_8 
REMARK    6  A    between atoms: C_8  and  O_9 
REMARK    7  A    between atoms: O_12  and  C_13 
REMARK    8  A    between atoms: C_13  and  C_14 
REMARK    9  A    between atoms: C_15  and  C_16 
REMARK   10  A    between atoms: C_16  and  C_17 
REMARK   11  A    between atoms: C_17  and  C_18 
REMARK   12  A    between atoms: C_18  and  C_19 
REMARK   13  A    between atoms: C_19  and  C_20 
REMARK   14  A    between atoms: C_20  and  C_21 
REMARK   15  A    between atoms: C_21  and  C_22 
ROOT
HETATM    1  C   LIG     1      42.821   5.509   0.714  1.00  0.00     0.180 C 
HETATM    2  C   LIG     1      44.290   5.083   0.692  1.00  0.00     0.183 C 
HETATM    3  C   LIG     1      45.213   6.163   1.275  1.00  0.00     0.204 C 
HETATM    4  C   LIG     1      44.897   7.554   0.665  1.00  0.00     0.291 C 
HETATM    5  O   LIG     1      43.480   7.816   0.734  1.00  0.00    -0.348 OA
HETATM    6  C   LIG     1      42.705   6.861   0.003  1.00  0.00     0.179 C 
ENDROOT
BRANCH   4   7
HETATM    7  O   LIG     1      45.507   8.631   1.381  1.00  0.00    -0.355 OA
BRANCH   7   8
HETATM    8  C   LIG     1      44.938   8.946   2.645  1.00  0.00     0.198 C 
BRANCH   8   9
HETATM    9  C   LIG     1      45.944   9.563   3.571  1.00  0.00    -0.005 C 
HETATM   10  C   LIG     1      45.610  10.268   4.665  1.00  0.00    -0.029 C 
BRANCH  10  11
HETATM   11  C   LIG     1      46.594  10.938   5.581  1.00  0.00     0.027 C 
BRANCH  11  12
HETATM   12  C   LIG     1      47.877  10.110   5.698  1.00  0.00     0.004 C 
BRANCH  12  13
HETATM   13  C   LIG     1      49.118  10.998   5.815  1.00  0.00     0.000 C 
BRANCH  13  14
HETATM   14  C   LIG     1      50.182  10.342   6.698  1.00  0.00     0.000 C 
BRANCH  14  15
HETATM   15  C   LIG     1      49.980  10.682   8.175  1.00  0.00     0.000 C 
BRANCH  15  16
HETATM   16  C   LIG     1      50.999  11.721   8.648  1.00  0.00    -0.000 C 
BRANCH  16  17
HETATM   17  C   LIG     1      50.317  13.022   9.070  1.00  0.00    -0.005 C 
HETATM   18  C   LIG     1      48.805  12.864   9.133  1.00  0.00     0.005 C 
ENDBRANCH  16  17
ENDBRANCH  15  16
ENDBRANCH  14  15
ENDBRANCH  13  14
ENDBRANCH  12  13
ENDBRANCH  11  12
ENDBRANCH  10  11
ENDBRANCH   8   9
ENDBRANCH   7   8
ENDBRANCH   4   7
BRANCH   3  19
HETATM   19  O   LIG     1      46.564   5.739   1.024  1.00  0.00    -0.388 OA
HETATM   20  H   LIG     1      46.966   6.462   0.499  1.00  0.00     0.210 HD
ENDBRANCH   3  19
BRANCH   2  21
HETATM   21  O   LIG     1      44.474   3.874   1.449  1.00  0.00    -0.390 OA
HETATM   22  H   LIG     1      45.426   3.851   1.678  1.00  0.00     0.210 HD
ENDBRANCH   2  21
BRANCH   6  23
HETATM   23  C   LIG     1      41.260   7.353  -0.081  1.00  0.00     0.198 C 
BRANCH  23  24
HETATM   24  O   LIG     1      40.874   7.900   1.174  1.00  0.00    -0.398 OA
HETATM   25  H   LIG     1      41.655   7.867   1.755  1.00  0.00     0.209 HD
ENDBRANCH  23  24
ENDBRANCH   6  23
BRANCH   1  26
HETATM   26  O   LIG     1      42.416   5.595   2.094  1.00  0.00    -0.390 OA
HETATM   27  H   LIG     1      43.230   5.567   2.636  1.00  0.00     0.210 HD
ENDBRANCH   1  26
TORSDOF 15
ENDMDL
MODEL 4
REMARK VINA RESULT:      -5.1      1.892      3.333
REMARK  15 active torsions:
REMARK  status: ('A' for Active; 'I' for Inactive)
REMARK    1  A    between atoms: C_1  and  O_7 
REMARK    2  A    between atoms: C_2  and  O_10 
REMARK    3  A    between atoms: C_3  and  O_11 
REMARK    4  A    between atoms: C_4  and  O_12 
REMARK    5  A    between atoms: C_6  and  C_8 
REMARK    6  A    between atoms: C_8  and  O_9 
REMARK    7  A    between atoms: O_12  and  C_13 
REMARK    8  A    between atoms: C_13  and  C_14 
REMARK    9  A    between atoms: C_15  and  C_16 
REMARK   10  A    between atoms: C_16  and  C_17 
REMARK   11  A    between atoms: C_17  and  C_18 
REMARK   12  A    between atoms: C_18  and  C_19 
REMARK   13  A    between atoms: C_19  and  C_20 
REMARK   14  A    between atoms: C_20  and  C_21 
REMARK   15  A    between atoms: C_21  and  C_22 
ROOT
HETATM    1  C   LIG     1      39.943   2.819   0.675  1.00  0.00     0.180 C 
HETATM    2  C   LIG     1      41.393   2.514   1.055  1.00  0.00     0.183 C 
HETATM    3  C   LIG     1      42.060   3.692   1.780  1.00  0.00     0.204 C 
HETATM    4  C   LIG     1      41.820   5.022   1.017  1.00  0.00     0.291 C 
HETATM    5  O   LIG     1      40.420   5.171   0.706  1.00  0.00    -0.348 OA
HETATM    6  C   LIG     1      39.925   4.121  -0.132  1.00  0.00     0.179 C 
ENDROOT
BRANCH   4   7
HETATM    7  O   LIG     1      42.152   6.178   1.791  1.00  0.00    -0.355 OA
BRANCH   7   8
HETATM    8  C   LIG     1      41.732   7.428   1.262  1.00  0.00     0.198 C 
BRANCH   8   9
HETATM    9  C   LIG     1      42.687   8.531   1.613  1.00  0.00    -0.005 C 
HETATM   10  C   LIG     1      43.969   8.320   1.956  1.00  0.00    -0.029 C 
BRANCH  10  11
HETATM   11  C   LIG     1      44.932   9.400   2.360  1.00  0.00     0.027 C 
BRANCH  11  12
HETATM   12  C   LIG     1      46.153   8.802   3.065  1.00  0.00     0.004 C 
BRANCH  12  13
HETATM   13  C   LIG     1      45.916   8.631   4.567  1.00  0.00     0.000 C 
BRANCH  13  14
HETATM   14  C   LIG     1      45.917   9.984   5.282  1.00  0.00     0.000 C 
BRANCH  14  15
HETATM   15  C   LIG     1      47.333  10.425   5.656  1.00  0.00     0.000 C 
BRANCH  15  16
HETATM   16  C   LIG     1      47.483  11.944   5.560  1.00  0.00    -0.000 C 
BRANCH  16  17
HETATM   17  C   LIG     1      46.129  12.647   5.649  1.00  0.00    -0.005 C 
HETATM   18  C   LIG     1      45.943  13.328   6.997  1.00  0.00     0.005 C 
ENDBRANCH  16  17
ENDBRANCH  15  16
ENDBRANCH  14  15
ENDBRANCH  13  14
ENDBRANCH  12  13
ENDBRANCH  11  12
ENDBRANCH  10  11
ENDBRANCH   8   9
ENDBRANCH   7   8
ENDBRANCH   4   7
BRANCH   3  19
HETATM   19  O   LIG     1      43.455   3.368   1.909  1.00  0.00    -0.388 OA
HETATM   20  H   LIG     1      43.609   2.641   1.271  1.00  0.00     0.210 HD
ENDBRANCH   3  19
BRANCH   2  21
HETATM   21  O   LIG     1      41.455   1.361   1.914  1.00  0.00    -0.390 OA
HETATM   22  H   LIG     1      40.632   1.386   2.445  1.00  0.00     0.210 HD
ENDBRANCH   2  21
BRANCH   6  23
HETATM   23  C   LIG     1      38.522   4.489  -0.613  1.00  0.00     0.198 C 
BRANCH  23  24
HETATM   24  O   LIG     1      37.895   5.324   0.353  1.00  0.00    -0.398 OA
HETATM   25  H   LIG     1      37.239   5.869  -0.119  1.00  0.00     0.209 HD
ENDBRANCH  23  24
ENDBRANCH   6  23
BRANCH   1  26
HETATM   26  O   LIG     1      39.190   2.938   1.897  1.00  0.00    -0.390 OA
HETATM   27  H   LIG     1      39.050   2.032   2.239  1.00  0.00     0.210 HD
ENDBRANCH   1  26
TORSDOF 15
ENDMDL
MODEL 5
REMARK VINA RESULT:      -5.1     15.076     18.509
REMARK  15 active torsions:
REMARK  status: ('A' for Active; 'I' for Inactive)
REMARK    1  A    between atoms: C_1  and  O_7 
REMARK    2  A    between atoms: C_2  and  O_10 
REMARK    3  A    between atoms: C_3  and  O_11 
REMARK    4  A    between atoms: C_4  and  O_12 
REMARK    5  A    between atoms: C_6  and  C_8 
REMARK    6  A    between atoms: C_8  and  O_9 
REMARK    7  A    between atoms: O_12  and  C_13 
REMARK    8  A    between atoms: C_13  and  C_14 
REMARK    9  A    between atoms: C_15  and  C_16 
REMARK   10  A    between atoms: C_16  and  C_17 
REMARK   11  A    between atoms: C_17  and  C_18 
REMARK   12  A    between atoms: C_18  and  C_19 
REMARK   13  A    between atoms: C_19  and  C_20 
REMARK   14  A    between atoms: C_20  and  C_21 
REMARK   15  A    between atoms: C_21  and  C_22 
ROOT
HETATM    1  C   LIG     1      43.109  -6.361  -3.980  1.00  0.00     0.180 C 
HETATM    2  C   LIG     1      42.534  -5.228  -3.128  1.00  0.00     0.183 C 
HETATM    3  C   LIG     1      41.552  -5.745  -2.067  1.00  0.00     0.204 C 
HETATM    4  C   LIG     1      40.520  -6.720  -2.692  1.00  0.00     0.291 C 
HETATM    5  O   LIG     1      41.195  -7.720  -3.481  1.00  0.00    -0.348 OA
HETATM    6  C   LIG     1      41.939  -7.158  -4.567  1.00  0.00     0.179 C 
ENDROOT
BRANCH   4   7
HETATM    7  O   LIG     1      39.783  -7.458  -1.713  1.00  0.00    -0.355 OA
BRANCH   7   8
HETATM    8  C   LIG     1      38.473  -6.985  -1.427  1.00  0.00     0.198 C 
BRANCH   8   9
HETATM    9  C   LIG     1      37.570  -7.090  -2.620  1.00  0.00    -0.005 C 
HETATM   10  C   LIG     1      37.106  -8.257  -3.099  1.00  0.00    -0.029 C 
BRANCH  10  11
HETATM   11  C   LIG     1      36.242  -8.394  -4.320  1.00  0.00     0.027 C 
BRANCH  11  12
HETATM   12  C   LIG     1      35.788  -7.020  -4.820  1.00  0.00     0.004 C 
BRANCH  12  13
HETATM   13  C   LIG     1      34.355  -6.701  -4.386  1.00  0.00     0.000 C 
BRANCH  13  14
HETATM   14  C   LIG     1      33.604  -7.974  -3.991  1.00  0.00     0.000 C 
BRANCH  14  15
HETATM   15  C   LIG     1      33.018  -7.872  -2.582  1.00  0.00     0.000 C 
BRANCH  15  16
HETATM   16  C   LIG     1      33.951  -7.095  -1.650  1.00  0.00    -0.000 C 
BRANCH  16  17
HETATM   17  C   LIG     1      33.207  -6.574  -0.421  1.00  0.00    -0.005 C 
HETATM   18  C   LIG     1      31.762  -7.052  -0.399  1.00  0.00     0.005 C 
ENDBRANCH  16  17
ENDBRANCH  15  16
ENDBRANCH  14  15
ENDBRANCH  13  14
ENDBRANCH  12  13
ENDBRANCH  11  12
ENDBRANCH  10  11
ENDBRANCH   8   9
ENDBRANCH   7   8
ENDBRANCH   4   7
BRANCH   3  19
HETATM   19  O   LIG     1      40.937  -4.591  -1.468  1.00  0.00    -0.388 OA
HETATM   20  H   LIG     1      41.655  -3.929  -1.393  1.00  0.00     0.210 HD
ENDBRANCH   3  19
BRANCH   2  21
HETATM   21  O   LIG     1      43.590  -4.517  -2.459  1.00  0.00    -0.390 OA
HETATM   22  H   LIG     1      43.142  -3.869  -1.877  1.00  0.00     0.210 HD
ENDBRANCH   2  21
BRANCH   6  23
HETATM   23  C   LIG     1      42.406  -8.286  -5.487  1.00  0.00     0.198 C 
BRANCH  23  24
HETATM   24  O   LIG     1      43.809  -8.171  -5.700  1.00  0.00    -0.398 OA
HETATM   25  H   LIG     1      44.118  -7.409  -5.178  1.00  0.00     0.209 HD
ENDBRANCH  23  24
ENDBRANCH   6  23
BRANCH   1  26
HETATM   26  O   LIG     1      43.932  -7.174  -3.122  1.00  0.00    -0.390 OA
HETATM   27  H   LIG     1      44.671  -7.513  -3.666  1.00  0.00     0.210 HD
ENDBRANCH   1  26
TORSDOF 15
ENDMDL
MODEL 6
REMARK VINA RESULT:      -5.0      5.685      9.108
REMARK  15 active torsions:
REMARK  status: ('A' for Active; 'I' for Inactive)
REMARK    1  A    between atoms: C_1  and  O_7 
REMARK    2  A    between atoms: C_2  and  O_10 
REMARK    3  A    between atoms: C_3  and  O_11 
REMARK    4  A    between atoms: C_4  and  O_12 
REMARK    5  A    between atoms: C_6  and  C_8 
REMARK    6  A    between atoms: C_8  and  O_9 
REMARK    7  A    between atoms: O_12  and  C_13 
REMARK    8  A    between atoms: C_13  and  C_14 
REMARK    9  A    between atoms: C_15  and  C_16 
REMARK   10  A    between atoms: C_16  and  C_17 
REMARK   11  A    between atoms: C_17  and  C_18 
REMARK   12  A    between atoms: C_18  and  C_19 
REMARK   13  A    between atoms: C_19  and  C_20 
REMARK   14  A    between atoms: C_20  and  C_21 
REMARK   15  A    between atoms: C_21  and  C_22 
ROOT
HETATM    1  C   LIG     1      50.896  11.847   8.570  1.00  0.00     0.180 C 
HETATM    2  C   LIG     1      50.176  10.853   7.658  1.00  0.00     0.183 C 
HETATM    3  C   LIG     1      49.076  11.527   6.823  1.00  0.00     0.204 C 
HETATM    4  C   LIG     1      48.169  12.417   7.713  1.00  0.00     0.291 C 
HETATM    5  O   LIG     1      48.977  13.287   8.532  1.00  0.00    -0.348 OA
HETATM    6  C   LIG     1      49.842  12.568   9.417  1.00  0.00     0.179 C 
ENDROOT
BRANCH   4   7
HETATM    7  O   LIG     1      47.331  13.294   6.957  1.00  0.00    -0.355 OA
BRANCH   7   8
HETATM    8  C   LIG     1      45.970  12.906   6.830  1.00  0.00     0.198 C 
BRANCH   8   9
HETATM    9  C   LIG     1      45.528  12.880   5.397  1.00  0.00    -0.005 C 
HETATM   10  C   LIG     1      46.376  12.964   4.358  1.00  0.00    -0.029 C 
BRANCH  10  11
HETATM   11  C   LIG     1      45.958  12.991   2.916  1.00  0.00     0.027 C 
BRANCH  11  12
HETATM   12  C   LIG     1      46.319  11.674   2.222  1.00  0.00     0.004 C 
BRANCH  12  13
HETATM   13  C   LIG     1      47.647  11.109   2.730  1.00  0.00     0.000 C 
BRANCH  13  14
HETATM   14  C   LIG     1      47.603   9.581   2.803  1.00  0.00     0.000 C 
BRANCH  14  15
HETATM   15  C   LIG     1      46.349   9.085   3.524  1.00  0.00     0.000 C 
BRANCH  15  16
HETATM   16  C   LIG     1      45.982   7.666   3.083  1.00  0.00    -0.000 C 
BRANCH  16  17
HETATM   17  C   LIG     1      46.958   7.137   2.032  1.00  0.00    -0.005 C 
HETATM   18  C   LIG     1      46.239   6.755   0.746  1.00  0.00     0.005 C 
ENDBRANCH  16  17
ENDBRANCH  15  16
ENDBRANCH  14  15
ENDBRANCH  13  14
ENDBRANCH  12  13
ENDBRANCH  11  12
ENDBRANCH  10  11
ENDBRANCH   8   9
ENDBRANCH   7   8
ENDBRANCH   4   7
BRANCH   3  19
HETATM   19  O   LIG     1      48.349  10.476   6.162  1.00  0.00    -0.388 OA
HETATM   20  H   LIG     1      49.028   9.817   5.907  1.00  0.00     0.210 HD
ENDBRANCH   3  19
BRANCH   2  21
HETATM   21  O   LIG     1      51.109  10.230   6.757  1.00  0.00    -0.390 OA
HETATM   22  H   LIG     1      50.787  10.444   5.857  1.00  0.00     0.210 HD
ENDBRANCH   2  21
BRANCH   6  23
HETATM   23  C   LIG     1      50.465  13.549  10.410  1.00  0.00     0.198 C 
BRANCH  23  24
HETATM   24  O   LIG     1      51.171  14.558   9.697  1.00  0.00    -0.398 OA
HETATM   25  H   LIG     1      52.077  14.230   9.557  1.00  0.00     0.209 HD
ENDBRANCH  23  24
ENDBRANCH   6  23
BRANCH   1  26
HETATM   26  O   LIG     1      51.621  12.762   7.726  1.00  0.00    -0.390 OA
HETATM   27  H   LIG     1      52.421  12.294   7.413  1.00  0.00     0.210 HD
ENDBRANCH   1  26
TORSDOF 15
ENDMDL
MODEL 7
REMARK VINA RESULT:      -4.9      2.595      4.822
REMARK  15 active torsions:
REMARK  status: ('A' for Active; 'I' for Inactive)
REMARK    1  A    between atoms: C_1  and  O_7 
REMARK    2  A    between atoms: C_2  and  O_10 
REMARK    3  A    between atoms: C_3  and  O_11 
REMARK    4  A    between atoms: C_4  and  O_12 
REMARK    5  A    between atoms: C_6  and  C_8 
REMARK    6  A    between atoms: C_8  and  O_9 
REMARK    7  A    between atoms: O_12  and  C_13 
REMARK    8  A    between atoms: C_13  and  C_14 
REMARK    9  A    between atoms: C_15  and  C_16 
REMARK   10  A    between atoms: C_16  and  C_17 
REMARK   11  A    between atoms: C_17  and  C_18 
REMARK   12  A    between atoms: C_18  and  C_19 
REMARK   13  A    between atoms: C_19  and  C_20 
REMARK   14  A    between atoms: C_20  and  C_21 
REMARK   15  A    between atoms: C_21  and  C_22 
ROOT
HETATM    1  C   LIG     1      39.414   2.738  -0.482  1.00  0.00     0.180 C 
HETATM    2  C   LIG     1      39.206   3.408   0.877  1.00  0.00     0.183 C 
HETATM    3  C   LIG     1      40.528   3.898   1.487  1.00  0.00     0.204 C 
HETATM    4  C   LIG     1      41.611   2.789   1.432  1.00  0.00     0.291 C 
HETATM    5  O   LIG     1      41.686   2.233   0.103  1.00  0.00    -0.348 OA
HETATM    6  C   LIG     1      40.457   1.629  -0.313  1.00  0.00     0.179 C 
ENDROOT
BRANCH   4   7
HETATM    7  O   LIG     1      42.927   3.278   1.702  1.00  0.00    -0.355 OA
BRANCH   7   8
HETATM    8  C   LIG     1      43.245   4.554   1.163  1.00  0.00     0.198 C 
BRANCH   8   9
HETATM    9  C   LIG     1      44.409   5.183   1.869  1.00  0.00    -0.005 C 
HETATM   10  C   LIG     1      44.726   6.485   1.762  1.00  0.00    -0.029 C 
BRANCH  10  11
HETATM   11  C   LIG     1      45.913   7.130   2.417  1.00  0.00     0.027 C 
BRANCH  11  12
HETATM   12  C   LIG     1      45.522   8.467   3.053  1.00  0.00     0.004 C 
BRANCH  12  13
HETATM   13  C   LIG     1      45.975   8.558   4.512  1.00  0.00     0.000 C 
BRANCH  13  14
HETATM   14  C   LIG     1      45.572   9.897   5.132  1.00  0.00     0.000 C 
BRANCH  14  15
HETATM   15  C   LIG     1      46.787  10.786   5.399  1.00  0.00     0.000 C 
BRANCH  15  16
HETATM   16  C   LIG     1      48.031   9.948   5.698  1.00  0.00    -0.000 C 
BRANCH  16  17
HETATM   17  C   LIG     1      49.071  10.748   6.482  1.00  0.00    -0.005 C 
HETATM   18  C   LIG     1      48.563  12.142   6.820  1.00  0.00     0.005 C 
ENDBRANCH  16  17
ENDBRANCH  15  16
ENDBRANCH  14  15
ENDBRANCH  13  14
ENDBRANCH  12  13
ENDBRANCH  11  12
ENDBRANCH  10  11
ENDBRANCH   8   9
ENDBRANCH   7   8
ENDBRANCH   4   7
BRANCH   3  19
HETATM   19  O   LIG     1      40.236   4.325   2.830  1.00  0.00    -0.388 OA
HETATM   20  H   LIG     1      41.051   4.137   3.341  1.00  0.00     0.210 HD
ENDBRANCH   3  19
BRANCH   2  21
HETATM   21  O   LIG     1      38.321   4.535   0.752  1.00  0.00    -0.390 OA
HETATM   22  H   LIG     1      37.711   4.475   1.516  1.00  0.00     0.210 HD
ENDBRANCH   2  21
BRANCH   6  23
HETATM   23  C   LIG     1      40.698   0.853  -1.608  1.00  0.00     0.198 C 
BRANCH  23  24
HETATM   24  O   LIG     1      42.071   0.491  -1.693  1.00  0.00    -0.398 OA
HETATM   25  H   LIG     1      42.236  -0.176  -1.003  1.00  0.00     0.209 HD
ENDBRANCH  23  24
ENDBRANCH   6  23
BRANCH   1  26
HETATM   26  O   LIG     1      39.859   3.754  -1.402  1.00  0.00    -0.390 OA
HETATM   27  H   LIG     1      40.837   3.762  -1.371  1.00  0.00     0.210 HD
ENDBRANCH   1  26
TORSDOF 15
ENDMDL
MODEL 8
REMARK VINA RESULT:      -4.9     14.849     18.108
REMARK  15 active torsions:
REMARK  status: ('A' for Active; 'I' for Inactive)
REMARK    1  A    between atoms: C_1  and  O_7 
REMARK    2  A    between atoms: C_2  and  O_10 
REMARK    3  A    between atoms: C_3  and  O_11 
REMARK    4  A    between atoms: C_4  and  O_12 
REMARK    5  A    between atoms: C_6  and  C_8 
REMARK    6  A    between atoms: C_8  and  O_9 
REMARK    7  A    between atoms: O_12  and  C_13 
REMARK    8  A    between atoms: C_13  and  C_14 
REMARK    9  A    between atoms: C_15  and  C_16 
REMARK   10  A    between atoms: C_16  and  C_17 
REMARK   11  A    between atoms: C_17  and  C_18 
REMARK   12  A    between atoms: C_18  and  C_19 
REMARK   13  A    between atoms: C_19  and  C_20 
REMARK   14  A    between atoms: C_20  and  C_21 
REMARK   15  A    between atoms: C_21  and  C_22 
ROOT
HETATM    1  C   LIG     1      43.339  -6.398  -4.548  1.00  0.00     0.180 C 
HETATM    2  C   LIG     1      43.000  -5.012  -3.998  1.00  0.00     0.183 C 
HETATM    3  C   LIG     1      42.087  -5.087  -2.765  1.00  0.00     0.204 C 
HETATM    4  C   LIG     1      40.883  -6.032  -3.021  1.00  0.00     0.291 C 
HETATM    5  O   LIG     1      41.344  -7.290  -3.554  1.00  0.00    -0.348 OA
HETATM    6  C   LIG     1      42.025  -7.144  -4.805  1.00  0.00     0.179 C 
ENDROOT
BRANCH   4   7
HETATM    7  O   LIG     1      40.177  -6.374  -1.825  1.00  0.00    -0.355 OA
BRANCH   7   8
HETATM    8  C   LIG     1      38.959  -5.678  -1.596  1.00  0.00     0.198 C 
BRANCH   8   9
HETATM    9  C   LIG     1      37.784  -6.405  -2.181  1.00  0.00    -0.005 C 
HETATM   10  C   LIG     1      37.862  -7.638  -2.709  1.00  0.00    -0.029 C 
BRANCH  10  11
HETATM   11  C   LIG     1      36.714  -8.368  -3.345  1.00  0.00     0.027 C 
BRANCH  11  12
HETATM   12  C   LIG     1      36.950  -8.546  -4.848  1.00  0.00     0.004 C 
BRANCH  12  13
HETATM   13  C   LIG     1      35.824  -7.924  -5.678  1.00  0.00     0.000 C 
BRANCH  13  14
HETATM   14  C   LIG     1      34.515  -7.885  -4.887  1.00  0.00     0.000 C 
BRANCH  14  15
HETATM   15  C   LIG     1      33.962  -6.463  -4.776  1.00  0.00     0.000 C 
BRANCH  15  16
HETATM   16  C   LIG     1      34.819  -5.473  -5.567  1.00  0.00    -0.000 C 
BRANCH  16  17
HETATM   17  C   LIG     1      35.610  -4.552  -4.639  1.00  0.00    -0.005 C 
HETATM   18  C   LIG     1      35.123  -4.658  -3.201  1.00  0.00     0.005 C 
ENDBRANCH  16  17
ENDBRANCH  15  16
ENDBRANCH  14  15
ENDBRANCH  13  14
ENDBRANCH  12  13
ENDBRANCH  11  12
ENDBRANCH  10  11
ENDBRANCH   8   9
ENDBRANCH   7   8
ENDBRANCH   4   7
BRANCH   3  19
HETATM   19  O   LIG     1      41.683  -3.740  -2.461  1.00  0.00    -0.388 OA
HETATM   20  H   LIG     1      40.885  -3.833  -1.899  1.00  0.00     0.210 HD
ENDBRANCH   3  19
BRANCH   2  21
HETATM   21  O   LIG     1      44.200  -4.310  -3.629  1.00  0.00    -0.390 OA
HETATM   22  H   LIG     1      44.939  -4.891  -3.907  1.00  0.00     0.210 HD
ENDBRANCH   2  21
BRANCH   6  23
HETATM   23  C   LIG     1      42.250  -8.528  -5.413  1.00  0.00     0.198 C 
BRANCH  23  24
HETATM   24  O   LIG     1      41.056  -8.961  -6.056  1.00  0.00    -0.398 OA
HETATM   25  H   LIG     1      41.224  -9.856  -6.401  1.00  0.00     0.209 HD
ENDBRANCH  23  24
ENDBRANCH   6  23
BRANCH   1  26
HETATM   26  O   LIG     1      44.149  -7.069  -3.563  1.00  0.00    -0.390 OA
HETATM   27  H   LIG     1      43.548  -7.375  -2.855  1.00  0.00     0.210 HD
ENDBRANCH   1  26
TORSDOF 15
ENDMDL
MODEL 9
REMARK VINA RESULT:      -4.9      2.148      4.272
REMARK  15 active torsions:
REMARK  status: ('A' for Active; 'I' for Inactive)
REMARK    1  A    between atoms: C_1  and  O_7 
REMARK    2  A    between atoms: C_2  and  O_10 
REMARK    3  A    between atoms: C_3  and  O_11 
REMARK    4  A    between atoms: C_4  and  O_12 
REMARK    5  A    between atoms: C_6  and  C_8 
REMARK    6  A    between atoms: C_8  and  O_9 
REMARK    7  A    between atoms: O_12  and  C_13 
REMARK    8  A    between atoms: C_13  and  C_14 
REMARK    9  A    between atoms: C_15  and  C_16 
REMARK   10  A    between atoms: C_16  and  C_17 
REMARK   11  A    between atoms: C_17  and  C_18 
REMARK   12  A    between atoms: C_18  and  C_19 
REMARK   13  A    between atoms: C_19  and  C_20 
REMARK   14  A    between atoms: C_20  and  C_21 
REMARK   15  A    between atoms: C_21  and  C_22 
ROOT
HETATM    1  C   LIG     1      39.618   2.734   0.096  1.00  0.00     0.180 C 
HETATM    2  C   LIG     1      39.087   3.895   0.939  1.00  0.00     0.183 C 
HETATM    3  C   LIG     1      40.201   4.872   1.343  1.00  0.00     0.204 C 
HETATM    4  C   LIG     1      41.425   4.113   1.921  1.00  0.00     0.291 C 
HETATM    5  O   LIG     1      41.805   3.038   1.038  1.00  0.00    -0.348 OA
HETATM    6  C   LIG     1      40.765   2.070   0.866  1.00  0.00     0.179 C 
ENDROOT
BRANCH   4   7
HETATM    7  O   LIG     1      42.591   4.933   2.028  1.00  0.00    -0.355 OA
BRANCH   7   8
HETATM    8  C   LIG     1      43.234   5.272   0.806  1.00  0.00     0.198 C 
BRANCH   8   9
HETATM    9  C   LIG     1      43.835   6.646   0.854  1.00  0.00    -0.005 C 
HETATM   10  C   LIG     1      43.636   7.507   1.867  1.00  0.00    -0.029 C 
BRANCH  10  11
HETATM   11  C   LIG     1      44.183   8.905   1.917  1.00  0.00     0.027 C 
BRANCH  11  12
HETATM   12  C   LIG     1      45.651   8.897   2.355  1.00  0.00     0.004 C 
BRANCH  12  13
HETATM   13  C   LIG     1      45.858   8.084   3.636  1.00  0.00     0.000 C 
BRANCH  13  14
HETATM   14  C   LIG     1      45.757   8.976   4.875  1.00  0.00     0.000 C 
BRANCH  14  15
HETATM   15  C   LIG     1      46.146  10.422   4.566  1.00  0.00     0.000 C 
BRANCH  15  16
HETATM   16  C   LIG     1      45.022  11.390   4.940  1.00  0.00    -0.000 C 
BRANCH  16  17
HETATM   17  C   LIG     1      45.313  12.102   6.261  1.00  0.00    -0.005 C 
HETATM   18  C   LIG     1      46.762  12.558   6.340  1.00  0.00     0.005 C 
ENDBRANCH  16  17
ENDBRANCH  15  16
ENDBRANCH  14  15
ENDBRANCH  13  14
ENDBRANCH  12  13
ENDBRANCH  11  12
ENDBRANCH  10  11
ENDBRANCH   8   9
ENDBRANCH   7   8
ENDBRANCH   4   7
BRANCH   3  19
HETATM   19  O   LIG     1      39.626   5.798   2.282  1.00  0.00    -0.388 OA
HETATM   20  H   LIG     1      38.914   6.255   1.787  1.00  0.00     0.210 HD
ENDBRANCH   3  19
BRANCH   2  21
HETATM   21  O   LIG     1      38.085   4.626   0.212  1.00  0.00    -0.390 OA
HETATM   22  H   LIG     1      38.562   5.366  -0.218  1.00  0.00     0.210 HD
ENDBRANCH   2  21
BRANCH   6  23
HETATM   23  C   LIG     1      41.332   0.855   0.133  1.00  0.00     0.198 C 
BRANCH  23  24
HETATM   24  O   LIG     1      42.361   0.266   0.920  1.00  0.00    -0.398 OA
HETATM   25  H   LIG     1      42.444   0.800   1.730  1.00  0.00     0.209 HD
ENDBRANCH  23  24
ENDBRANCH   6  23
BRANCH   1  26
HETATM   26  O   LIG     1      40.065   3.280  -1.160  1.00  0.00    -0.390 OA
HETATM   27  H   LIG     1      40.442   4.163  -0.973  1.00  0.00     0.210 HD
ENDBRANCH   1  26
TORSDOF 15
ENDMDL
