MODEL 1
REMARK VINA RESULT:      -6.0      0.000      0.000
REMARK  13 active torsions:
REMARK  status: ('A' for Active; 'I' for Inactive)
REMARK    1  A    between atoms: C_1  and  O_7 
REMARK    2  A    between atoms: C_2  and  O_10 
REMARK    3  A    between atoms: C_3  and  O_11 
REMARK    4  A    between atoms: C_4  and  O_12 
REMARK    5  A    between atoms: C_6  and  C_8 
REMARK    6  A    between atoms: C_8  and  O_9 
REMARK    7  A    between atoms: O_12  and  C_13 
REMARK    8  A    between atoms: C_13  and  C_14 
REMARK    9  A    between atoms: C_15  and  C_16 
REMARK   10  A    between atoms: C_16  and  C_17 
REMARK   11  A    between atoms: C_17  and  C_18 
REMARK   12  A    between atoms: C_18  and  C_19 
REMARK   13  A    between atoms: C_19  and  C_20 
ROOT
HETATM    1  C   LIG     1      42.705   6.789   1.130  1.00  0.00     0.180 C 
HETATM    2  C   LIG     1      42.219   8.095   1.778  1.00  0.00     0.183 C 
HETATM    3  C   LIG     1      43.188   9.225   1.412  1.00  0.00     0.204 C 
HETATM    4  C   LIG     1      44.596   8.830   1.923  1.00  0.00     0.291 C 
HETATM    5  O   LIG     1      45.007   7.611   1.270  1.00  0.00    -0.348 OA
HETATM    6  C   LIG     1      44.149   6.497   1.583  1.00  0.00     0.179 C 
ENDROOT
BRANCH   4   7
HETATM    7  O   LIG     1      44.659   8.644   3.344  1.00  0.00    -0.355 OA
BRANCH   7   8
HETATM    8  C   LIG     1      45.979   8.835   3.827  1.00  0.00     0.198 C 
BRANCH   8   9
HETATM    9  C   LIG     1      46.087  10.144   4.523  1.00  0.00    -0.005 C 
HETATM   10  C   LIG     1      45.057  10.992   4.412  1.00  0.00    -0.029 C 
BRANCH  10  11
HETATM   11  C   LIG     1      45.002  12.283   5.169  1.00  0.00     0.027 C 
BRANCH  11  12
HETATM   12  C   LIG     1      45.595  12.093   6.548  1.00  0.00     0.004 C 
BRANCH  12  13
HETATM   13  C   LIG     1      45.868  13.455   7.153  1.00  0.00     0.000 C 
BRANCH  13  14
HETATM   14  C   LIG     1      45.594  13.441   8.642  1.00  0.00    -0.000 C 
BRANCH  14  15
HETATM   15  C   LIG     1      44.182  12.946   8.912  1.00  0.00    -0.005 C 
HETATM   16  C   LIG     1      43.517  13.798   9.974  1.00  0.00     0.005 C 
ENDBRANCH  14  15
ENDBRANCH  13  14
ENDBRANCH  12  13
ENDBRANCH  11  12
ENDBRANCH  10  11
ENDBRANCH   8   9
ENDBRANCH   7   8
ENDBRANCH   4   7
BRANCH   3  17
HETATM   17  O   LIG     1      42.724  10.496   1.884  1.00  0.00    -0.388 OA
HETATM   18  H   LIG     1      43.507  10.972   2.230  1.00  0.00     0.210 HD
ENDBRANCH   3  17
BRANCH   2  19
HETATM   19  O   LIG     1      40.905   8.433   1.330  1.00  0.00    -0.390 OA
HETATM   20  H   LIG     1      40.352   7.644   1.501  1.00  0.00     0.210 HD
ENDBRANCH   2  19
BRANCH   6  21
HETATM   21  C   LIG     1      44.720   5.236   0.921  1.00  0.00     0.198 C 
BRANCH  21  22
HETATM   22  O   LIG     1      44.225   4.049   1.534  1.00  0.00    -0.398 OA
HETATM   23  H   LIG     1      43.668   3.585   0.885  1.00  0.00     0.209 HD
ENDBRANCH  21  22
ENDBRANCH   6  21
BRANCH   1  24
HETATM   24  O   LIG     1      42.619   6.964  -0.300  1.00  0.00    -0.390 OA
HETATM   25  H   LIG     1      41.681   7.104  -0.530  1.00  0.00     0.210 HD
ENDBRANCH   1  24
TORSDOF 13
ENDMDL
MODEL 2
REMARK VINA RESULT:      -5.8      5.511      8.513
REMARK  13 active torsions:
REMARK  status: ('A' for Active; 'I' for Inactive)
REMARK    1  A    between atoms: C_1  and  O_7 
REMARK    2  A    between atoms: C_2  and  O_10 
REMARK    3  A    between atoms: C_3  and  O_11 
REMARK    4  A    between atoms: C_4  and  O_12 
REMARK    5  A    between atoms: C_6  and  C_8 
REMARK    6  A    between atoms: C_8  and  O_9 
REMARK    7  A    between atoms: O_12  and  C_13 
REMARK    8  A    between atoms: C_13  and  C_14 
REMARK    9  A    between atoms: C_15  and  C_16 
REMARK   10  A    between atoms: C_16  and  C_17 
REMARK   11  A    between atoms: C_17  and  C_18 
REMARK   12  A    between atoms: C_18  and  C_19 
REMARK   13  A    between atoms: C_19  and  C_20 
ROOT
HETATM    1  C   LIG     1      50.988  12.905   8.336  1.00  0.00     0.180 C 
HETATM    2  C   LIG     1      51.708  12.256   7.144  1.00  0.00     0.183 C 
HETATM    3  C   LIG     1      50.944  12.590   5.857  1.00  0.00     0.204 C 
HETATM    4  C   LIG     1      49.500  12.051   6.007  1.00  0.00     0.291 C 
HETATM    5  O   LIG     1      48.869  12.706   7.127  1.00  0.00    -0.348 OA
HETATM    6  C   LIG     1      49.525  12.422   8.378  1.00  0.00     0.179 C 
ENDROOT
BRANCH   4   7
HETATM    7  O   LIG     1      49.435  10.631   6.197  1.00  0.00    -0.355 OA
BRANCH   7   8
HETATM    8  C   LIG     1      48.759  10.001   5.121  1.00  0.00     0.198 C 
BRANCH   8   9
HETATM    9  C   LIG     1      47.290  10.160   5.274  1.00  0.00    -0.005 C 
HETATM   10  C   LIG     1      46.695  11.137   4.579  1.00  0.00    -0.029 C 
BRANCH  10  11
HETATM   11  C   LIG     1      45.208  11.311   4.558  1.00  0.00     0.027 C 
BRANCH  11  12
HETATM   12  C   LIG     1      44.825  12.538   5.357  1.00  0.00     0.004 C 
BRANCH  12  13
HETATM   13  C   LIG     1      45.000  12.235   6.830  1.00  0.00     0.000 C 
BRANCH  13  14
HETATM   14  C   LIG     1      45.514  13.454   7.567  1.00  0.00    -0.000 C 
BRANCH  14  15
HETATM   15  C   LIG     1      45.019  13.445   9.005  1.00  0.00    -0.005 C 
HETATM   16  C   LIG     1      43.611  12.889   9.075  1.00  0.00     0.005 C 
ENDBRANCH  14  15
ENDBRANCH  13  14
ENDBRANCH  12  13
ENDBRANCH  11  12
ENDBRANCH  10  11
ENDBRANCH   8   9
ENDBRANCH   7   8
ENDBRANCH   4   7
BRANCH   3  17
HETATM   17  O   LIG     1      51.633  12.117   4.693  1.00  0.00    -0.388 OA
HETATM   18  H   LIG     1      51.223  11.262   4.450  1.00  0.00     0.210 HD
ENDBRANCH   3  17
BRANCH   2  19
HETATM   19  O   LIG     1      53.052  12.731   7.034  1.00  0.00    -0.390 OA
HETATM   20  H   LIG     1      53.396  12.369   6.192  1.00  0.00     0.210 HD
ENDBRANCH   2  19
BRANCH   6  21
HETATM   21  C   LIG     1      48.729  13.083   9.511  1.00  0.00     0.198 C 
BRANCH  21  22
HETATM   22  O   LIG     1      49.564  13.882  10.344  1.00  0.00    -0.398 OA
HETATM   23  H   LIG     1      50.479  13.564  10.245  1.00  0.00     0.209 HD
ENDBRANCH  21  22
ENDBRANCH   6  21
BRANCH   1  24
HETATM   24  O   LIG     1      51.074  14.334   8.161  1.00  0.00    -0.390 OA
HETATM   25  H   LIG     1      51.262  14.734   9.031  1.00  0.00     0.210 HD
ENDBRANCH   1  24
TORSDOF 13
ENDMDL
MODEL 3
REMARK VINA RESULT:      -5.7      2.453      3.951
REMARK  13 active torsions:
REMARK  status: ('A' for Active; 'I' for Inactive)
REMARK    1  A    between atoms: C_1  and  O_7 
REMARK    2  A    between atoms: C_2  and  O_10 
REMARK    3  A    between atoms: C_3  and  O_11 
REMARK    4  A    between atoms: C_4  and  O_12 
REMARK    5  A    between atoms: C_6  and  C_8 
REMARK    6  A    between atoms: C_8  and  O_9 
REMARK    7  A    between atoms: O_12  and  C_13 
REMARK    8  A    between atoms: C_13  and  C_14 
REMARK    9  A    between atoms: C_15  and  C_16 
REMARK   10  A    between atoms: C_16  and  C_17 
REMARK   11  A    between atoms: C_17  and  C_18 
REMARK   12  A    between atoms: C_18  and  C_19 
REMARK   13  A    between atoms: C_19  and  C_20 
ROOT
HETATM    1  C   LIG     1      43.686   6.437   0.905  1.00  0.00     0.180 C 
HETATM    2  C   LIG     1      45.208   6.643   0.910  1.00  0.00     0.183 C 
HETATM    3  C   LIG     1      45.641   7.141   2.295  1.00  0.00     0.204 C 
HETATM    4  C   LIG     1      44.890   8.465   2.581  1.00  0.00     0.291 C 
HETATM    5  O   LIG     1      43.470   8.208   2.581  1.00  0.00    -0.348 OA
HETATM    6  C   LIG     1      42.988   7.752   1.302  1.00  0.00     0.179 C 
ENDROOT
BRANCH   4   7
HETATM    7  O   LIG     1      45.178   9.503   1.634  1.00  0.00    -0.355 OA
BRANCH   7   8
HETATM    8  C   LIG     1      45.377  10.748   2.285  1.00  0.00     0.198 C 
BRANCH   8   9
HETATM    9  C   LIG     1      46.324  10.590   3.419  1.00  0.00    -0.005 C 
HETATM   10  C   LIG     1      46.217  11.447   4.441  1.00  0.00    -0.029 C 
BRANCH  10  11
HETATM   11  C   LIG     1      47.032  11.306   5.690  1.00  0.00     0.027 C 
BRANCH  11  12
HETATM   12  C   LIG     1      47.889  10.062   5.604  1.00  0.00     0.004 C 
BRANCH  12  13
HETATM   13  C   LIG     1      49.086  10.231   6.517  1.00  0.00     0.000 C 
BRANCH  13  14
HETATM   14  C   LIG     1      49.082  11.606   7.151  1.00  0.00    -0.000 C 
BRANCH  14  15
HETATM   15  C   LIG     1      49.884  11.590   8.443  1.00  0.00    -0.005 C 
HETATM   16  C   LIG     1      51.252  10.981   8.207  1.00  0.00     0.005 C 
ENDBRANCH  14  15
ENDBRANCH  13  14
ENDBRANCH  12  13
ENDBRANCH  11  12
ENDBRANCH  10  11
ENDBRANCH   8   9
ENDBRANCH   7   8
ENDBRANCH   4   7
BRANCH   3  17
HETATM   17  O   LIG     1      47.066   7.235   2.403  1.00  0.00    -0.388 OA
HETATM   18  H   LIG     1      47.336   6.628   3.123  1.00  0.00     0.210 HD
ENDBRANCH   3  17
BRANCH   2  19
HETATM   19  O   LIG     1      45.894   5.425   0.609  1.00  0.00    -0.390 OA
HETATM   20  H   LIG     1      46.766   5.494   1.047  1.00  0.00     0.210 HD
ENDBRANCH   2  19
BRANCH   6  21
HETATM   21  C   LIG     1      41.463   7.599   1.378  1.00  0.00     0.198 C 
BRANCH  21  22
HETATM   22  O   LIG     1      40.839   8.781   1.870  1.00  0.00    -0.398 OA
HETATM   23  H   LIG     1      41.204   8.968   2.752  1.00  0.00     0.209 HD
ENDBRANCH  21  22
ENDBRANCH   6  21
BRANCH   1  24
HETATM   24  O   LIG     1      43.395   5.375   1.837  1.00  0.00    -0.390 OA
HETATM   25  H   LIG     1      43.357   5.762   2.732  1.00  0.00     0.210 HD
ENDBRANCH   1  24
TORSDOF 13
ENDMDL
MODEL 4
REMARK VINA RESULT:      -5.6      6.106      9.201
REMARK  13 active torsions:
REMARK  status: ('A' for Active; 'I' for Inactive)
REMARK    1  A    between atoms: C_1  and  O_7 
REMARK    2  A    between atoms: C_2  and  O_10 
REMARK    3  A    between atoms: C_3  and  O_11 
REMARK    4  A    between atoms: C_4  and  O_12 
REMARK    5  A    between atoms: C_6  and  C_8 
REMARK    6  A    between atoms: C_8  and  O_9 
REMARK    7  A    between atoms: O_12  and  C_13 
REMARK    8  A    between atoms: C_13  and  C_14 
REMARK    9  A    between atoms: C_15  and  C_16 
REMARK   10  A    between atoms: C_16  and  C_17 
REMARK   11  A    between atoms: C_17  and  C_18 
REMARK   12  A    between atoms: C_18  and  C_19 
REMARK   13  A    between atoms: C_19  and  C_20 
ROOT
HETATM    1  C   LIG     1      42.653   6.307   0.795  1.00  0.00     0.180 C 
HETATM    2  C   LIG     1      41.232   5.860   1.174  1.00  0.00     0.183 C 
HETATM    3  C   LIG     1      41.323   4.712   2.186  1.00  0.00     0.204 C 
HETATM    4  C   LIG     1      42.122   3.559   1.529  1.00  0.00     0.291 C 
HETATM    5  O   LIG     1      43.448   4.029   1.212  1.00  0.00    -0.348 OA
HETATM    6  C   LIG     1      43.443   5.101   0.249  1.00  0.00     0.179 C 
ENDROOT
BRANCH   4   7
HETATM    7  O   LIG     1      41.510   3.044   0.339  1.00  0.00    -0.355 OA
BRANCH   7   8
HETATM    8  C   LIG     1      40.658   1.949   0.633  1.00  0.00     0.198 C 
BRANCH   8   9
HETATM    9  C   LIG     1      39.383   2.074  -0.119  1.00  0.00    -0.005 C 
HETATM   10  C   LIG     1      39.028   3.294  -0.540  1.00  0.00    -0.029 C 
BRANCH  10  11
HETATM   11  C   LIG     1      37.832   3.520  -1.413  1.00  0.00     0.027 C 
BRANCH  11  12
HETATM   12  C   LIG     1      37.587   5.005  -1.571  1.00  0.00     0.004 C 
BRANCH  12  13
HETATM   13  C   LIG     1      38.772   5.620  -2.289  1.00  0.00     0.000 C 
BRANCH  13  14
HETATM   14  C   LIG     1      38.501   7.074  -2.614  1.00  0.00    -0.000 C 
BRANCH  14  15
HETATM   15  C   LIG     1      37.013   7.293  -2.840  1.00  0.00    -0.005 C 
HETATM   16  C   LIG     1      36.772   8.635  -3.503  1.00  0.00     0.005 C 
ENDBRANCH  14  15
ENDBRANCH  13  14
ENDBRANCH  12  13
ENDBRANCH  11  12
ENDBRANCH  10  11
ENDBRANCH   8   9
ENDBRANCH   7   8
ENDBRANCH   4   7
BRANCH   3  17
HETATM   17  O   LIG     1      40.030   4.331   2.674  1.00  0.00    -0.388 OA
HETATM   18  H   LIG     1      39.372   4.705   2.053  1.00  0.00     0.210 HD
ENDBRANCH   3  17
BRANCH   2  19
HETATM   19  O   LIG     1      40.489   6.938   1.746  1.00  0.00    -0.390 OA
HETATM   20  H   LIG     1      41.152   7.538   2.144  1.00  0.00     0.210 HD
ENDBRANCH   2  19
BRANCH   6  21
HETATM   21  C   LIG     1      44.894   5.465  -0.090  1.00  0.00     0.198 C 
BRANCH  21  22
HETATM   22  O   LIG     1      45.729   5.426   1.063  1.00  0.00    -0.398 OA
HETATM   23  H   LIG     1      46.621   5.708   0.797  1.00  0.00     0.209 HD
ENDBRANCH  21  22
ENDBRANCH   6  21
BRANCH   1  24
HETATM   24  O   LIG     1      43.261   6.849   1.985  1.00  0.00    -0.390 OA
HETATM   25  H   LIG     1      44.079   7.312   1.722  1.00  0.00     0.210 HD
ENDBRANCH   1  24
TORSDOF 13
ENDMDL
MODEL 5
REMARK VINA RESULT:      -5.5     16.262     19.822
REMARK  13 active torsions:
REMARK  status: ('A' for Active; 'I' for Inactive)
REMARK    1  A    between atoms: C_1  and  O_7 
REMARK    2  A    between atoms: C_2  and  O_10 
REMARK    3  A    between atoms: C_3  and  O_11 
REMARK    4  A    between atoms: C_4  and  O_12 
REMARK    5  A    between atoms: C_6  and  C_8 
REMARK    6  A    between atoms: C_8  and  O_9 
REMARK    7  A    between atoms: O_12  and  C_13 
REMARK    8  A    between atoms: C_13  and  C_14 
REMARK    9  A    between atoms: C_15  and  C_16 
REMARK   10  A    between atoms: C_16  and  C_17 
REMARK   11  A    between atoms: C_17  and  C_18 
REMARK   12  A    between atoms: C_18  and  C_19 
REMARK   13  A    between atoms: C_19  and  C_20 
ROOT
HETATM    1  C   LIG     1      42.250  -5.520  -3.340  1.00  0.00     0.180 C 
HETATM    2  C   LIG     1      40.971  -4.759  -2.960  1.00  0.00     0.183 C 
HETATM    3  C   LIG     1      40.363  -5.398  -1.705  1.00  0.00     0.204 C 
HETATM    4  C   LIG     1      40.062  -6.883  -2.026  1.00  0.00     0.291 C 
HETATM    5  O   LIG     1      41.297  -7.551  -2.359  1.00  0.00    -0.348 OA
HETATM    6  C   LIG     1      41.919  -7.012  -3.541  1.00  0.00     0.179 C 
ENDROOT
BRANCH   4   7
HETATM    7  O   LIG     1      39.130  -7.060  -3.101  1.00  0.00    -0.355 OA
BRANCH   7   8
HETATM    8  C   LIG     1      37.860  -7.466  -2.617  1.00  0.00     0.198 C 
BRANCH   8   9
HETATM    9  C   LIG     1      37.093  -8.146  -3.693  1.00  0.00    -0.005 C 
HETATM   10  C   LIG     1      35.930  -7.599  -4.067  1.00  0.00    -0.029 C 
BRANCH  10  11
HETATM   11  C   LIG     1      35.136  -8.125  -5.222  1.00  0.00     0.027 C 
BRANCH  11  12
HETATM   12  C   LIG     1      34.929  -7.027  -6.243  1.00  0.00     0.004 C 
BRANCH  12  13
HETATM   13  C   LIG     1      35.693  -7.381  -7.502  1.00  0.00     0.000 C 
BRANCH  13  14
HETATM   14  C   LIG     1      37.126  -6.899  -7.409  1.00  0.00    -0.000 C 
BRANCH  14  15
HETATM   15  C   LIG     1      38.076  -7.980  -7.901  1.00  0.00    -0.005 C 
HETATM   16  C   LIG     1      38.937  -8.484  -6.761  1.00  0.00     0.005 C 
ENDBRANCH  14  15
ENDBRANCH  13  14
ENDBRANCH  12  13
ENDBRANCH  11  12
ENDBRANCH  10  11
ENDBRANCH   8   9
ENDBRANCH   7   8
ENDBRANCH   4   7
BRANCH   3  17
HETATM   17  O   LIG     1      39.234  -4.657  -1.226  1.00  0.00    -0.388 OA
HETATM   18  H   LIG     1      38.911  -4.118  -1.976  1.00  0.00     0.210 HD
ENDBRANCH   3  17
BRANCH   2  19
HETATM   19  O   LIG     1      41.250  -3.381  -2.701  1.00  0.00    -0.390 OA
HETATM   20  H   LIG     1      41.349  -3.306  -1.730  1.00  0.00     0.210 HD
ENDBRANCH   2  19
BRANCH   6  21
HETATM   21  C   LIG     1      43.167  -7.844  -3.863  1.00  0.00     0.198 C 
BRANCH  21  22
HETATM   22  O   LIG     1      44.286  -7.017  -4.171  1.00  0.00    -0.398 OA
HETATM   23  H   LIG     1      44.177  -6.176  -3.694  1.00  0.00     0.209 HD
ENDBRANCH  21  22
ENDBRANCH   6  21
BRANCH   1  24
HETATM   24  O   LIG     1      43.199  -5.323  -2.272  1.00  0.00    -0.390 OA
HETATM   25  H   LIG     1      43.914  -4.750  -2.606  1.00  0.00     0.210 HD
ENDBRANCH   1  24
TORSDOF 13
ENDMDL
MODEL 6
REMARK VINA RESULT:      -5.4     14.982     16.690
REMARK  13 active torsions:
REMARK  status: ('A' for Active; 'I' for Inactive)
REMARK    1  A    between atoms: C_1  and  O_7 
REMARK    2  A    between atoms: C_2  and  O_10 
REMARK    3  A    between atoms: C_3  and  O_11 
REMARK    4  A    between atoms: C_4  and  O_12 
REMARK    5  A    between atoms: C_6  and  C_8 
REMARK    6  A    between atoms: C_8  and  O_9 
REMARK    7  A    between atoms: O_12  and  C_13 
REMARK    8  A    between atoms: C_13  and  C_14 
REMARK    9  A    between atoms: C_15  and  C_16 
REMARK   10  A    between atoms: C_16  and  C_17 
REMARK   11  A    between atoms: C_17  and  C_18 
REMARK   12  A    between atoms: C_18  and  C_19 
REMARK   13  A    between atoms: C_19  and  C_20 
ROOT
HETATM    1  C   LIG     1      28.520  16.013   1.374  1.00  0.00     0.180 C 
HETATM    2  C   LIG     1      29.905  16.206   2.010  1.00  0.00     0.183 C 
HETATM    3  C   LIG     1      29.908  17.511   2.815  1.00  0.00     0.204 C 
HETATM    4  C   LIG     1      29.565  18.669   1.845  1.00  0.00     0.291 C 
HETATM    5  O   LIG     1      28.252  18.445   1.292  1.00  0.00    -0.348 OA
HETATM    6  C   LIG     1      28.178  17.240   0.506  1.00  0.00     0.179 C 
ENDROOT
BRANCH   4   7
HETATM    7  O   LIG     1      30.506  18.815   0.772  1.00  0.00    -0.355 OA
BRANCH   7   8
HETATM    8  C   LIG     1      31.363  19.925   0.990  1.00  0.00     0.198 C 
BRANCH   8   9
HETATM    9  C   LIG     1      32.776  19.473   1.074  1.00  0.00    -0.005 C 
HETATM   10  C   LIG     1      33.529  19.971   2.063  1.00  0.00    -0.029 C 
BRANCH  10  11
HETATM   11  C   LIG     1      34.925  19.495   2.320  1.00  0.00     0.027 C 
BRANCH  11  12
HETATM   12  C   LIG     1      35.384  19.967   3.683  1.00  0.00     0.004 C 
BRANCH  12  13
HETATM   13  C   LIG     1      34.570  21.182   4.077  1.00  0.00     0.000 C 
BRANCH  13  14
HETATM   14  C   LIG     1      33.636  20.849   5.221  1.00  0.00    -0.000 C 
BRANCH  14  15
HETATM   15  C   LIG     1      32.534  21.892   5.320  1.00  0.00    -0.005 C 
HETATM   16  C   LIG     1      31.324  21.459   4.516  1.00  0.00     0.005 C 
ENDBRANCH  14  15
ENDBRANCH  13  14
ENDBRANCH  12  13
ENDBRANCH  11  12
ENDBRANCH  10  11
ENDBRANCH   8   9
ENDBRANCH   7   8
ENDBRANCH   4   7
BRANCH   3  17
HETATM   17  O   LIG     1      31.134  17.688   3.536  1.00  0.00    -0.388 OA
HETATM   18  H   LIG     1      30.926  18.243   4.315  1.00  0.00     0.210 HD
ENDBRANCH   3  17
BRANCH   2  19
HETATM   19  O   LIG     1      30.229  15.115   2.876  1.00  0.00    -0.390 OA
HETATM   20  H   LIG     1      29.373  14.730   3.153  1.00  0.00     0.210 HD
ENDBRANCH   2  19
BRANCH   6  21
HETATM   21  C   LIG     1      26.777  17.141  -0.111  1.00  0.00     0.198 C 
BRANCH  21  22
HETATM   22  O   LIG     1      25.760  17.441   0.840  1.00  0.00    -0.398 OA
HETATM   23  H   LIG     1      25.302  18.247   0.546  1.00  0.00     0.209 HD
ENDBRANCH  21  22
ENDBRANCH   6  21
BRANCH   1  24
HETATM   24  O   LIG     1      27.575  15.840   2.450  1.00  0.00    -0.390 OA
HETATM   25  H   LIG     1      27.270  14.914   2.437  1.00  0.00     0.210 HD
ENDBRANCH   1  24
TORSDOF 13
ENDMDL
MODEL 7
REMARK VINA RESULT:      -5.3      6.039      8.563
REMARK  13 active torsions:
REMARK  status: ('A' for Active; 'I' for Inactive)
REMARK    1  A    between atoms: C_1  and  O_7 
REMARK    2  A    between atoms: C_2  and  O_10 
REMARK    3  A    between atoms: C_3  and  O_11 
REMARK    4  A    between atoms: C_4  and  O_12 
REMARK    5  A    between atoms: C_6  and  C_8 
REMARK    6  A    between atoms: C_8  and  O_9 
REMARK    7  A    between atoms: O_12  and  C_13 
REMARK    8  A    between atoms: C_13  and  C_14 
REMARK    9  A    between atoms: C_15  and  C_16 
REMARK   10  A    between atoms: C_16  and  C_17 
REMARK   11  A    between atoms: C_17  and  C_18 
REMARK   12  A    between atoms: C_18  and  C_19 
REMARK   13  A    between atoms: C_19  and  C_20 
ROOT
HETATM    1  C   LIG     1      39.117   4.620  -0.359  1.00  0.00     0.180 C 
HETATM    2  C   LIG     1      39.498   4.000   0.994  1.00  0.00     0.183 C 
HETATM    3  C   LIG     1      39.817   5.124   1.987  1.00  0.00     0.204 C 
HETATM    4  C   LIG     1      40.982   5.960   1.401  1.00  0.00     0.291 C 
HETATM    5  O   LIG     1      40.564   6.530   0.143  1.00  0.00    -0.348 OA
HETATM    6  C   LIG     1      40.263   5.529  -0.848  1.00  0.00     0.179 C 
ENDROOT
BRANCH   4   7
HETATM    7  O   LIG     1      42.183   5.204   1.196  1.00  0.00    -0.355 OA
BRANCH   7   8
HETATM    8  C   LIG     1      43.335   5.998   1.432  1.00  0.00     0.198 C 
BRANCH   8   9
HETATM    9  C   LIG     1      44.510   5.419   0.731  1.00  0.00    -0.005 C 
HETATM   10  C   LIG     1      45.047   6.127  -0.270  1.00  0.00    -0.029 C 
BRANCH  10  11
HETATM   11  C   LIG     1      46.305   5.703  -0.963  1.00  0.00     0.027 C 
BRANCH  11  12
HETATM   12  C   LIG     1      46.588   6.631  -2.124  1.00  0.00     0.004 C 
BRANCH  12  13
HETATM   13  C   LIG     1      48.044   6.490  -2.518  1.00  0.00     0.000 C 
BRANCH  13  14
HETATM   14  C   LIG     1      48.231   5.314  -3.454  1.00  0.00    -0.000 C 
BRANCH  14  15
HETATM   15  C   LIG     1      49.710   5.088  -3.724  1.00  0.00    -0.005 C 
HETATM   16  C   LIG     1      50.527   6.247  -3.190  1.00  0.00     0.005 C 
ENDBRANCH  14  15
ENDBRANCH  13  14
ENDBRANCH  12  13
ENDBRANCH  11  12
ENDBRANCH  10  11
ENDBRANCH   8   9
ENDBRANCH   7   8
ENDBRANCH   4   7
BRANCH   3  17
HETATM   17  O   LIG     1      40.060   4.616   3.305  1.00  0.00    -0.388 OA
HETATM   18  H   LIG     1      41.005   4.364   3.341  1.00  0.00     0.210 HD
ENDBRANCH   3  17
BRANCH   2  19
HETATM   19  O   LIG     1      38.431   3.200   1.511  1.00  0.00    -0.390 OA
HETATM   20  H   LIG     1      37.801   3.084   0.772  1.00  0.00     0.210 HD
ENDBRANCH   2  19
BRANCH   6  21
HETATM   21  C   LIG     1      39.921   6.231  -2.168  1.00  0.00     0.198 C 
BRANCH  21  22
HETATM   22  O   LIG     1      38.873   7.182  -2.003  1.00  0.00    -0.398 OA
HETATM   23  H   LIG     1      38.465   7.333  -2.873  1.00  0.00     0.209 HD
ENDBRANCH  21  22
ENDBRANCH   6  21
BRANCH   1  24
HETATM   24  O   LIG     1      37.895   5.360  -0.162  1.00  0.00    -0.390 OA
HETATM   25  H   LIG     1      38.065   6.050   0.507  1.00  0.00     0.210 HD
ENDBRANCH   1  24
TORSDOF 13
ENDMDL
MODEL 8
REMARK VINA RESULT:      -5.3     22.783     23.832
REMARK  13 active torsions:
REMARK  status: ('A' for Active; 'I' for Inactive)
REMARK    1  A    between atoms: C_1  and  O_7 
REMARK    2  A    between atoms: C_2  and  O_10 
REMARK    3  A    between atoms: C_3  and  O_11 
REMARK    4  A    between atoms: C_4  and  O_12 
REMARK    5  A    between atoms: C_6  and  C_8 
REMARK    6  A    between atoms: C_8  and  O_9 
REMARK    7  A    between atoms: O_12  and  C_13 
REMARK    8  A    between atoms: C_13  and  C_14 
REMARK    9  A    between atoms: C_15  and  C_16 
REMARK   10  A    between atoms: C_16  and  C_17 
REMARK   11  A    between atoms: C_17  and  C_18 
REMARK   12  A    between atoms: C_18  and  C_19 
REMARK   13  A    between atoms: C_19  and  C_20 
ROOT
HETATM    1  C   LIG     1      36.975   0.172  25.238  1.00  0.00     0.180 C 
HETATM    2  C   LIG     1      35.714   0.679  24.520  1.00  0.00     0.183 C 
HETATM    3  C   LIG     1      36.124   1.696  23.449  1.00  0.00     0.204 C 
HETATM    4  C   LIG     1      36.876   2.853  24.153  1.00  0.00     0.291 C 
HETATM    5  O   LIG     1      38.056   2.324  24.793  1.00  0.00    -0.348 OA
HETATM    6  C   LIG     1      37.746   1.370  25.828  1.00  0.00     0.179 C 
ENDROOT
BRANCH   4   7
HETATM    7  O   LIG     1      36.082   3.542  25.130  1.00  0.00    -0.355 OA
BRANCH   7   8
HETATM    8  C   LIG     1      35.899   4.902  24.772  1.00  0.00     0.198 C 
BRANCH   8   9
HETATM    9  C   LIG     1      36.169   5.781  25.940  1.00  0.00    -0.005 C 
HETATM   10  C   LIG     1      35.696   7.032  25.898  1.00  0.00    -0.029 C 
BRANCH  10  11
HETATM   11  C   LIG     1      35.799   7.964  27.066  1.00  0.00     0.027 C 
BRANCH  11  12
HETATM   12  C   LIG     1      36.039   9.375  26.575  1.00  0.00     0.004 C 
BRANCH  12  13
HETATM   13  C   LIG     1      34.719  10.118  26.565  1.00  0.00     0.000 C 
BRANCH  13  14
HETATM   14  C   LIG     1      34.535  10.858  25.256  1.00  0.00    -0.000 C 
BRANCH  14  15
HETATM   15  C   LIG     1      33.382  10.255  24.469  1.00  0.00    -0.005 C 
HETATM   16  C   LIG     1      32.656   9.221  25.306  1.00  0.00     0.005 C 
ENDBRANCH  14  15
ENDBRANCH  13  14
ENDBRANCH  12  13
ENDBRANCH  11  12
ENDBRANCH  10  11
ENDBRANCH   8   9
ENDBRANCH   7   8
ENDBRANCH   4   7
BRANCH   3  17
HETATM   17  O   LIG     1      35.004   2.115  22.659  1.00  0.00    -0.388 OA
HETATM   18  H   LIG     1      35.146   3.060  22.445  1.00  0.00     0.210 HD
ENDBRANCH   3  17
BRANCH   2  19
HETATM   19  O   LIG     1      35.006  -0.399  23.904  1.00  0.00    -0.390 OA
HETATM   20  H   LIG     1      35.541  -1.202  24.070  1.00  0.00     0.210 HD
ENDBRANCH   2  19
BRANCH   6  21
HETATM   21  C   LIG     1      39.053   0.939  26.506  1.00  0.00     0.198 C 
BRANCH  21  22
HETATM   22  O   LIG     1      40.118   0.818  25.568  1.00  0.00    -0.398 OA
HETATM   23  H   LIG     1      40.153  -0.108  25.272  1.00  0.00     0.209 HD
ENDBRANCH  21  22
ENDBRANCH   6  21
BRANCH   1  24
HETATM   24  O   LIG     1      37.763  -0.543  24.264  1.00  0.00    -0.390 OA
HETATM   25  H   LIG     1      37.245  -1.314  23.966  1.00  0.00     0.210 HD
ENDBRANCH   1  24
TORSDOF 13
ENDMDL
MODEL 9
REMARK VINA RESULT:      -5.3      3.163      5.143
REMARK  13 active torsions:
REMARK  status: ('A' for Active; 'I' for Inactive)
REMARK    1  A    between atoms: C_1  and  O_7 
REMARK    2  A    between atoms: C_2  and  O_10 
REMARK    3  A    between atoms: C_3  and  O_11 
REMARK    4  A    between atoms: C_4  and  O_12 
REMARK    5  A    between atoms: C_6  and  C_8 
REMARK    6  A    between atoms: C_8  and  O_9 
REMARK    7  A    between atoms: O_12  and  C_13 
REMARK    8  A    between atoms: C_13  and  C_14 
REMARK    9  A    between atoms: C_15  and  C_16 
REMARK   10  A    between atoms: C_16  and  C_17 
REMARK   11  A    between atoms: C_17  and  C_18 
REMARK   12  A    between atoms: C_18  and  C_19 
REMARK   13  A    between atoms: C_19  and  C_20 
ROOT
HETATM    1  C   LIG     1      39.903   3.500   1.406  1.00  0.00     0.180 C 
HETATM    2  C   LIG     1      40.101   4.989   1.728  1.00  0.00     0.183 C 
HETATM    3  C   LIG     1      41.012   5.614   0.664  1.00  0.00     0.204 C 
HETATM    4  C   LIG     1      42.359   4.848   0.682  1.00  0.00     0.291 C 
HETATM    5  O   LIG     1      42.115   3.463   0.358  1.00  0.00    -0.348 OA
HETATM    6  C   LIG     1      41.277   2.805   1.326  1.00  0.00     0.179 C 
ENDROOT
BRANCH   4   7
HETATM    7  O   LIG     1      43.042   4.921   1.941  1.00  0.00    -0.355 OA
BRANCH   7   8
HETATM    8  C   LIG     1      44.448   4.836   1.766  1.00  0.00     0.198 C 
BRANCH   8   9
HETATM    9  C   LIG     1      44.951   6.040   1.056  1.00  0.00    -0.005 C 
HETATM   10  C   LIG     1      45.612   6.954   1.777  1.00  0.00    -0.029 C 
BRANCH  10  11
HETATM   11  C   LIG     1      46.270   8.143   1.148  1.00  0.00     0.027 C 
BRANCH  11  12
HETATM   12  C   LIG     1      45.261   9.258   0.978  1.00  0.00     0.004 C 
BRANCH  12  13
HETATM   13  C   LIG     1      44.854   9.759   2.349  1.00  0.00     0.000 C 
BRANCH  13  14
HETATM   14  C   LIG     1      46.048  10.335   3.081  1.00  0.00    -0.000 C 
BRANCH  14  15
HETATM   15  C   LIG     1      45.858  10.197   4.584  1.00  0.00    -0.005 C 
HETATM   16  C   LIG     1      45.898   8.738   4.989  1.00  0.00     0.005 C 
ENDBRANCH  14  15
ENDBRANCH  13  14
ENDBRANCH  12  13
ENDBRANCH  11  12
ENDBRANCH  10  11
ENDBRANCH   8   9
ENDBRANCH   7   8
ENDBRANCH   4   7
BRANCH   3  17
HETATM   17  O   LIG     1      41.136   7.031   0.837  1.00  0.00    -0.388 OA
HETATM   18  H   LIG     1      41.996   7.289   0.445  1.00  0.00     0.210 HD
ENDBRANCH   3  17
BRANCH   2  19
HETATM   19  O   LIG     1      38.850   5.682   1.745  1.00  0.00    -0.390 OA
HETATM   20  H   LIG     1      38.748   6.072   0.854  1.00  0.00     0.210 HD
ENDBRANCH   2  19
BRANCH   6  21
HETATM   21  C   LIG     1      41.155   1.324   0.945  1.00  0.00     0.198 C 
BRANCH  21  22
HETATM   22  O   LIG     1      41.457   0.471   2.045  1.00  0.00    -0.398 OA
HETATM   23  H   LIG     1      40.635   0.320   2.543  1.00  0.00     0.209 HD
ENDBRANCH  21  22
ENDBRANCH   6  21
BRANCH   1  24
HETATM   24  O   LIG     1      39.193   3.424   0.153  1.00  0.00    -0.390 OA
HETATM   25  H   LIG     1      39.588   2.704  -0.374  1.00  0.00     0.210 HD
ENDBRANCH   1  24
TORSDOF 13
ENDMDL
