pdbs/k14.pdb
 OpenBabel07281513493D

 63 63  0  0  1  0  0  0  0  0999 V2000
    5.2150   -5.8160   -0.0070 C   0  0  0  0  0  0  0  0  0  0  0  0
    6.7250   -5.6380   -0.2840 C   0  0  0  0  0  0  0  0  0  0  0  0
    4.3600   -4.6010   -0.1050 N   0  0  0  0  0  0  0  0  0  0  0  0
    7.4140   -6.6170   -0.2880 O   0  0  0  0  0  0  0  0  0  0  0  0
    6.5590   -3.1010   -0.3100 C   0  0  0  0  0  0  0  0  0  0  0  0
    7.5370   -1.9280   -0.4470 C   0  0  0  0  0  0  0  0  0  0  0  0
    7.2430   -4.3860   -0.4920 N   0  0  0  0  0  0  0  0  0  0  0  0
    8.6720   -2.1600   -0.7370 O   0  0  0  0  0  0  0  0  0  0  0  0
    5.2380   -0.8430    1.5880 C   0  0  0  0  0  0  0  0  0  0  0  0
    5.6480   -0.3460    0.1660 C   0  0  1  0  0  0  0  0  0  0  0  0
    5.3580    1.1680    0.0160 C   0  0  0  0  0  0  0  0  0  0  0  0
    7.0440   -0.6750   -0.1840 N   0  0  0  0  0  0  0  0  0  0  0  0
    5.5450    1.9200    0.9420 O   0  0  0  0  0  0  0  0  0  0  0  0
    3.9200   -1.6570    1.6350 C   0  0  0  0  0  0  0  0  0  0  0  0
    3.7780   -2.4860    2.9130 C   0  0  0  0  0  0  0  0  0  0  0  0
    2.6250   -3.5130    2.9060 C   0  0  0  0  0  0  0  0  0  0  0  0
    2.4060   -4.0000    4.3240 N   0  0  0  0  0  0  0  0  0  0  0  0
    3.3580   -0.1380   -2.1400 C   0  0  0  0  0  0  0  0  0  0  0  0
    4.4750    0.9020   -2.3690 C   0  0  1  0  0  0  0  0  0  0  0  0
    4.0110    1.9210   -3.4350 C   0  0  0  0  0  0  0  0  0  0  0  0
    4.8460    1.6430   -1.1550 N   0  0  0  0  0  0  0  0  0  0  0  0
    2.8550    2.2310   -3.5150 O   0  0  0  0  0  0  0  0  0  0  0  0
    6.9910    3.3950   -3.2980 C   0  0  0  0  0  0  0  0  0  0  0  0
    4.9620    2.4310   -4.2850 N   0  0  0  0  0  0  0  0  0  0  0  0
    6.4070    2.3040   -4.1890 C   0  0  1  0  0  0  0  0  0  0  0  0
    6.8800    2.3500   -5.6500 C   0  0  0  0  0  0  0  0  0  0  0  0
    5.7420    3.0350   -6.4280 C   0  0  0  0  0  0  0  0  0  0  0  0
    4.6570    3.3350   -5.3870 C   0  0  0  0  0  0  0  0  0  0  0  0
    6.1920    4.0550   -2.5960 O   0  0  0  0  0  0  0  0  0  0  0  0
    8.2310    3.5290   -3.2880 O   0  0  0  0  0  0  0  0  0  0  0  0
    5.1140   -6.2410    1.0250 H   0  0  0  0  0  0  0  0  0  0  0  0
    4.8090   -6.5710   -0.7200 H   0  0  0  0  0  0  0  0  0  0  0  0
    3.3640   -4.8680    0.0820 H   0  0  0  0  0  0  0  0  0  0  0  0
    4.4530   -4.1450   -1.0340 H   0  0  0  0  0  0  0  0  0  0  0  0
    4.6800   -3.9440    0.6430 H   0  0  0  0  0  0  0  0  0  0  0  0
    5.7760   -2.9580   -1.0840 H   0  0  0  0  0  0  0  0  0  0  0  0
    6.1890   -3.0770    0.7380 H   0  0  0  0  0  0  0  0  0  0  0  0
    8.2450   -4.3570   -0.7160 H   0  0  0  0  0  0  0  0  0  0  0  0
    5.1030    0.0060    2.3020 H   0  0  0  0  0  0  0  0  0  0  0  0
    6.0750   -1.4440    2.0160 H   0  0  0  0  0  0  0  0  0  0  0  0
    5.0060   -0.8640   -0.5650 H   0  0  0  0  0  0  0  0  0  0  0  0
    7.7340    0.0820   -0.2360 H   0  0  0  0  0  0  0  0  0  0  0  0
    3.8790   -2.3560    0.7510 H   0  0  0  0  0  0  0  0  0  0  0  0
    3.0360   -0.9780    1.5060 H   0  0  0  0  0  0  0  0  0  0  0  0
    3.6020   -1.7760    3.7680 H   0  0  0  0  0  0  0  0  0  0  0  0
    4.7240   -3.0520    3.1160 H   0  0  0  0  0  0  0  0  0  0  0  0
    2.8830   -4.3750    2.2490 H   0  0  0  0  0  0  0  0  0  0  0  0
    1.6820   -3.0780    2.5270 H   0  0  0  0  0  0  0  0  0  0  0  0
    1.6590   -4.7300    4.3260 H   0  0  0  0  0  0  0  0  0  0  0  0
    2.1260   -3.2030    4.9340 H   0  0  0  0  0  0  0  0  0  0  0  0
    3.2980   -4.4200    4.6650 H   0  0  0  0  0  0  0  0  0  0  0  0
    3.7440   -1.1820   -2.1840 H   0  0  0  0  0  0  0  0  0  0  0  0
    2.8560    0.0000   -1.1560 H   0  0  0  0  0  0  0  0  0  0  0  0
    2.5700   -0.1110   -2.9260 H   0  0  0  0  0  0  0  0  0  0  0  0
    5.3570    0.3380   -2.7460 H   0  0  0  0  0  0  0  0  0  0  0  0
    4.6590    2.6540   -1.1530 H   0  0  0  0  0  0  0  0  0  0  0  0
    6.7470    1.3430   -3.7370 H   0  0  0  0  0  0  0  0  0  0  0  0
    6.9970    1.3060   -6.0330 H   0  0  0  0  0  0  0  0  0  0  0  0
    7.8580    2.8630   -5.7930 H   0  0  0  0  0  0  0  0  0  0  0  0
    6.0770    3.9620   -6.9480 H   0  0  0  0  0  0  0  0  0  0  0  0
    5.3400    2.3430   -7.2080 H   0  0  0  0  0  0  0  0  0  0  0  0
    3.6400    3.1710   -5.8150 H   0  0  0  0  0  0  0  0  0  0  0  0
    4.7190    4.3900   -5.0290 H   0  0  0  0  0  0  0  0  0  0  0  0
  1  3  1  0  0  0  0
  1  2  1  0  0  0  0
  1 31  1  0  0  0  0
  1 32  1  0  0  0  0
  2  7  1  0  0  0  0
  2  4  2  0  0  0  0
  3 33  1  0  0  0  0
  3 34  1  0  0  0  0
  3 35  1  0  0  0  0
  5  7  1  0  0  0  0
  5  6  1  0  0  0  0
  5 36  1  0  0  0  0
  5 37  1  0  0  0  0
  6 12  1  0  0  0  0
  6  8  2  0  0  0  0
  7 38  1  0  0  0  0
  9 14  1  0  0  0  0
  9 10  1  0  0  0  0
  9 39  1  0  0  0  0
  9 40  1  0  0  0  0
 10 11  1  0  0  0  0
 10 12  1  0  0  0  0
 10 41  1  6  0  0  0
 11 21  1  0  0  0  0
 11 13  2  0  0  0  0
 12 42  1  0  0  0  0
 14 15  1  0  0  0  0
 14 43  1  0  0  0  0
 14 44  1  0  0  0  0
 15 16  1  0  0  0  0
 15 45  1  0  0  0  0
 15 46  1  0  0  0  0
 16 17  1  0  0  0  0
 16 47  1  0  0  0  0
 16 48  1  0  0  0  0
 17 49  1  0  0  0  0
 17 50  1  0  0  0  0
 17 51  1  0  0  0  0
 18 19  1  0  0  0  0
 18 52  1  0  0  0  0
 18 53  1  0  0  0  0
 18 54  1  0  0  0  0
 19 21  1  0  0  0  0
 19 20  1  0  0  0  0
 19 55  1  6  0  0  0
 20 24  1  0  0  0  0
 20 22  2  0  0  0  0
 21 56  1  0  0  0  0
 23 30  2  0  0  0  0
 23 25  1  0  0  0  0
 23 29  1  0  0  0  0
 24 25  1  0  0  0  0
 24 28  1  0  0  0  0
 25 26  1  0  0  0  0
 25 57  1  1  0  0  0
 26 27  1  0  0  0  0
 26 58  1  0  0  0  0
 26 59  1  0  0  0  0
 27 28  1  0  0  0  0
 27 60  1  0  0  0  0
 27 61  1  0  0  0  0
 28 62  1  0  0  0  0
 28 63  1  0  0  0  0
M  END
