pdbs/k14m.pdb
 OpenBabel07281513493D

 69 69  0  0  1  0  0  0  0  0999 V2000
    0.7830   -1.2890   -4.5490 C   0  0  0  0  0  0  0  0  0  0  0  0
    0.3210   -4.9240   -3.9480 H   0  0  0  0  0  0  0  0  0  0  0  0
    2.1040   -4.7040   -3.8100 H   0  0  0  0  0  0  0  0  0  0  0  0
    1.1800   -3.7630   -5.0190 H   0  0  0  0  0  0  0  0  0  0  0  0
   -3.0650    5.0370    2.6230 H   0  0  0  0  0  0  0  0  0  0  0  0
   -1.9980    5.1850    4.0080 H   0  0  0  0  0  0  0  0  0  0  0  0
   -4.3790    1.2150    4.9710 H   0  0  0  0  0  0  0  0  0  0  0  0
   -5.2080    0.0370    3.8770 H   0  0  0  0  0  0  0  0  0  0  0  0
   -6.5360    1.7000    2.9150 H   0  0  0  0  0  0  0  0  0  0  0  0
   -6.0130    2.7610    4.2720 H   0  0  0  0  0  0  0  0  0  0  0  0
   -4.9330    4.0610    2.5850 H   0  0  0  0  0  0  0  0  0  0  0  0
   -5.1670    2.7410    1.3910 H   0  0  0  0  0  0  0  0  0  0  0  0
   -2.8540    2.5330    1.5940 H   0  0  0  0  0  0  0  0  0  0  0  0
   -0.5920    1.1090    3.5020 H   0  0  0  0  0  0  0  0  0  0  0  0
   -1.8960    0.8020    0.9860 H   0  0  0  0  0  0  0  0  0  0  0  0
   -2.2450   -1.8300    1.1710 H   0  0  0  0  0  0  0  0  0  0  0  0
   -0.5760   -1.8240    1.8770 H   0  0  0  0  0  0  0  0  0  0  0  0
   -0.9430   -1.2400    0.1970 H   0  0  0  0  0  0  0  0  0  0  0  0
    6.1100   -2.5520   -1.8910 H   0  0  0  0  0  0  0  0  0  0  0  0
    6.0430   -3.3780   -0.4020 H   0  0  0  0  0  0  0  0  0  0  0  0
    5.5980   -4.1780   -1.8430 H   0  0  0  0  0  0  0  0  0  0  0  0
    3.6560   -3.5960   -0.5480 H   0  0  0  0  0  0  0  0  0  0  0  0
    3.7010   -2.7560   -2.1690 H   0  0  0  0  0  0  0  0  0  0  0  0
    4.6010   -0.7020   -1.1990 H   0  0  0  0  0  0  0  0  0  0  0  0
    4.9010   -1.4700    0.4020 H   0  0  0  0  0  0  0  0  0  0  0  0
    2.5020   -1.6620    0.8840 H   0  0  0  0  0  0  0  0  0  0  0  0
    2.0910   -1.2810   -0.8300 H   0  0  0  0  0  0  0  0  0  0  0  0
    0.8820    2.9430    0.2990 H   0  0  0  0  0  0  0  0  0  0  0  0
    0.5250    0.0040    0.2270 H   0  0  0  0  0  0  0  0  0  0  0  0
    3.0210    1.0140   -0.5560 H   0  0  0  0  0  0  0  0  0  0  0  0
    3.3170    0.6860    1.1770 H   0  0  0  0  0  0  0  0  0  0  0  0
    0.1630    2.0300   -3.9260 H   0  0  0  0  0  0  0  0  0  0  0  0
    1.3610    0.2070   -2.0930 H   0  0  0  0  0  0  0  0  0  0  0  0
   -0.5000    0.2020   -1.9320 H   0  0  0  0  0  0  0  0  0  0  0  0
    0.2070   -1.3080   -2.4710 H   0  0  0  0  0  0  0  0  0  0  0  0
    0.1780   -1.8030   -5.3280 H   0  0  0  0  0  0  0  0  0  0  0  0
    1.8610   -1.4630   -4.7740 H   0  0  0  0  0  0  0  0  0  0  0  0
    1.1270   -3.4060   -1.7170 O   0  0  0  0  0  0  0  0  0  0  0  0
    1.1410   -4.1700   -3.9860 C   0  0  0  0  0  0  0  0  0  0  0  0
    0.9190   -3.1460   -2.8800 C   0  0  0  0  0  0  0  0  0  0  0  0
   -2.5420    4.6150    3.3780 N   0  0  0  0  0  0  0  0  0  0  0  0
   -1.8580    2.7630    4.4310 O   0  0  0  0  0  0  0  0  0  0  0  0
   -4.7010    1.0280    3.9200 C   0  0  0  0  0  0  0  0  0  0  0  0
   -5.6430    2.1360    3.4260 C   0  0  0  0  0  0  0  0  0  0  0  0
   -4.8140    2.9650    2.4280 C   0  0  0  0  0  0  0  0  0  0  0  0
   -3.3660    2.4620    2.5770 C   0  0  2  0  0  0  0  0  0  0  0  0
   -3.5430    1.0910    3.0480 N   0  0  0  0  0  0  0  0  0  0  0  0
   -2.5260    3.2660    3.5630 C   0  0  0  0  0  0  0  0  0  0  0  0
   -2.8450   -1.0140    3.4740 O   0  0  0  0  0  0  0  0  0  0  0  0
   -0.4320    0.8110    2.5390 N   0  0  0  0  0  0  0  0  0  0  0  0
   -2.6980    0.0220    2.8680 C   0  0  0  0  0  0  0  0  0  0  0  0
   -1.5610    0.1680    1.8400 C   0  0  2  0  0  0  0  0  0  0  0  0
   -1.2980   -1.2450    1.2530 C   0  0  0  0  0  0  0  0  0  0  0  0
    5.5910   -3.2670   -1.3350 N   0  0  0  0  0  0  0  0  0  0  0  0
    4.1730   -2.8250   -1.1610 C   0  0  0  0  0  0  0  0  0  0  0  0
    4.2080   -1.4540   -0.4710 C   0  0  0  0  0  0  0  0  0  0  0  0
    2.8000   -1.0510    0.0000 C   0  0  0  0  0  0  0  0  0  0  0  0
    1.6610    1.5270    2.8240 O   0  0  0  0  0  0  0  0  0  0  0  0
    0.8060    2.0380   -0.1630 N   0  0  0  0  0  0  0  0  0  0  0  0
    0.8350    1.0700    2.0740 C   0  0  0  0  0  0  0  0  0  0  0  0
    1.1560    0.8300    0.5940 C   0  0  2  0  0  0  0  0  0  0  0  0
    2.6410    0.4440    0.3300 C   0  0  0  0  0  0  0  0  0  0  0  0
    0.2310    3.1340   -2.0320 O   0  0  0  0  0  0  0  0  0  0  0  0
    0.3300    1.0600   -3.6910 N   0  0  0  0  0  0  0  0  0  0  0  0
    0.4660    2.0780   -1.4930 C   0  0  0  0  0  0  0  0  0  0  0  0
    0.4110    0.7520   -2.2620 C   0  0  0  0  0  0  0  0  0  0  0  0
    0.6350    0.6790   -5.8640 O   0  0  0  0  0  0  0  0  0  0  0  0
    0.5130   -1.8810   -3.2470 N   0  0  0  0  0  0  0  0  0  0  0  0
    0.5750    0.2170   -4.7520 C   0  0  0  0  0  0  0  0  0  0  0  0
  1 36  1  0  0  0  0
  1 37  1  0  0  0  0
  1 69  1  0  0  0  0
  1 68  1  0  0  0  0
  2 39  1  0  0  0  0
  3 39  1  0  0  0  0
  4 39  1  0  0  0  0
  5 41  1  0  0  0  0
  6 41  1  0  0  0  0
  7 43  1  0  0  0  0
  8 43  1  0  0  0  0
  9 44  1  0  0  0  0
 10 44  1  0  0  0  0
 11 45  1  0  0  0  0
 12 45  1  0  0  0  0
 14 50  1  0  0  0  0
 16 53  1  0  0  0  0
 17 53  1  0  0  0  0
 18 53  1  0  0  0  0
 19 54  1  0  0  0  0
 20 54  1  0  0  0  0
 21 54  1  0  0  0  0
 22 55  1  0  0  0  0
 23 55  1  0  0  0  0
 24 56  1  0  0  0  0
 25 56  1  0  0  0  0
 26 57  1  0  0  0  0
 27 57  1  0  0  0  0
 28 59  1  0  0  0  0
 30 62  1  0  0  0  0
 31 62  1  0  0  0  0
 32 64  1  0  0  0  0
 33 66  1  0  0  0  0
 34 66  1  0  0  0  0
 35 68  1  0  0  0  0
 38 40  2  0  0  0  0
 39 40  1  0  0  0  0
 40 68  1  0  0  0  0
 41 48  1  0  0  0  0
 42 48  2  0  0  0  0
 43 47  1  0  0  0  0
 43 44  1  0  0  0  0
 44 45  1  0  0  0  0
 45 46  1  0  0  0  0
 46 13  1  6  0  0  0
 46 48  1  0  0  0  0
 46 47  1  0  0  0  0
 47 51  1  0  0  0  0
 49 51  2  0  0  0  0
 50 60  1  0  0  0  0
 50 52  1  0  0  0  0
 51 52  1  0  0  0  0
 52 15  1  6  0  0  0
 52 53  1  0  0  0  0
 54 55  1  0  0  0  0
 55 56  1  0  0  0  0
 56 57  1  0  0  0  0
 57 62  1  0  0  0  0
 58 60  2  0  0  0  0
 59 65  1  0  0  0  0
 59 61  1  0  0  0  0
 60 61  1  0  0  0  0
 61 29  1  6  0  0  0
 61 62  1  0  0  0  0
 63 65  2  0  0  0  0
 64 69  1  0  0  0  0
 64 66  1  0  0  0  0
 65 66  1  0  0  0  0
 67 69  2  0  0  0  0
M  END
