pdbs/k14mtr.pdb
 OpenBabel07281513493D

 89 89  0  0  1  0  0  0  0  0999 V2000
    0.9260   -0.9050   -3.3660 C   0  0  0  0  0  0  0  0  0  0  0  0
   -0.3300   -1.4330   -1.4000 O   0  0  0  0  0  0  0  0  0  0  0  0
    4.7770   -0.4220   -1.0940 C   0  0  1  0  0  0  0  0  0  0  0  0
    6.6010   -0.5860   -1.0110 S   0  0  0  0  0  0  0  0  0  0  0  0
   -3.3960   -0.2520    3.3590 N   0  0  0  0  0  0  0  0  0  0  0  0
   -5.1210   -1.6180    2.3530 C   0  0  0  0  0  0  0  0  0  0  0  0
   -3.9460   -0.6720    2.0570 C   0  0  2  0  0  0  0  0  0  0  0  0
   -2.9990   -1.4360    1.0940 C   0  0  0  0  0  0  0  0  0  0  0  0
    4.2910    0.1730    0.1660 N   0  0  0  0  0  0  0  0  0  0  0  0
    2.8460   -0.0060    0.4050 C   0  0  0  0  0  0  0  0  0  0  0  0
    2.2570    0.6930    1.6500 C   0  0  0  0  0  0  0  0  0  0  0  0
    0.7610    0.3340    1.8790 C   0  0  0  0  0  0  0  0  0  0  0  0
   -2.0270    0.8260    4.7520 O   0  0  0  0  0  0  0  0  0  0  0  0
   -2.2370    2.5490    2.1780 N   0  0  0  0  0  0  0  0  0  0  0  0
   -2.3350    0.5820    3.6130 C   0  0  0  0  0  0  0  0  0  0  0  0
   -1.5990    1.2470    2.4460 C   0  0  2  0  0  0  0  0  0  0  0  0
   -0.0640    1.3760    2.6760 C   0  0  0  0  0  0  0  0  0  0  0  0
   -2.7880    4.2470    0.7890 O   0  0  0  0  0  0  0  0  0  0  0  0
   -1.3740    3.3930   -1.3200 N   0  0  0  0  0  0  0  0  0  0  0  0
   -2.2640    3.1730    0.9530 C   0  0  0  0  0  0  0  0  0  0  0  0
   -1.5670    2.4600   -0.2090 C   0  0  0  0  0  0  0  0  0  0  0  0
   -0.4380    4.1440   -3.2010 O   0  0  0  0  0  0  0  0  0  0  0  0
   -0.1620    0.7410   -1.8370 N   0  0  0  0  0  0  0  0  0  0  0  0
   -0.5550    3.2380   -2.4100 C   0  0  0  0  0  0  0  0  0  0  0  0
    0.2120    1.9120   -2.6300 C   0  0  0  0  0  0  0  0  0  0  0  0
   -4.9550   -2.8150    2.3710 O   0  0  0  0  0  0  0  0  0  0  0  0
   -6.5430    0.7020    4.2900 C   0  0  0  0  0  0  0  0  0  0  0  0
   -6.3550   -1.0570    2.5730 N   0  0  0  0  0  0  0  0  0  0  0  0
   -6.6710    0.3520    2.8090 C   0  0  1  0  0  0  0  0  0  0  0  0
   -8.1140    0.4790    2.2900 C   0  0  0  0  0  0  0  0  0  0  0  0
   -8.7250   -0.9260    2.4460 C   0  0  0  0  0  0  0  0  0  0  0  0
   -7.5490   -1.8610    2.7740 C   0  0  0  0  0  0  0  0  0  0  0  0
   -6.0650   -0.0380    5.1120 O   0  0  0  0  0  0  0  0  0  0  0  0
   -6.9970    1.9410    4.6300 N   0  0  0  0  0  0  0  0  0  0  0  0
    0.0930   -0.5770   -2.1330 C   0  0  0  0  0  0  0  0  0  0  0  0
    6.9740   -1.5180   -2.5370 C   0  0  0  0  0  0  0  0  0  0  0  0
    8.4950   -1.5710   -2.7590 C   0  0  0  0  0  0  0  0  0  0  0  0
    8.7440   -2.3610   -3.9700 N   0  0  0  0  0  0  0  0  0  0  0  0
    9.9880   -2.4930   -4.5160 C   0  0  0  0  0  0  0  0  0  0  0  0
   10.0230   -3.3340   -5.7790 C   0  0  0  0  0  0  0  0  0  0  0  0
    4.3910    0.4230   -2.3240 C   0  0  0  0  0  0  0  0  0  0  0  0
    4.1780   -1.7120   -1.2120 O   0  0  0  0  0  0  0  0  0  0  0  0
   10.9680   -1.9800   -4.0360 O   0  0  0  0  0  0  0  0  0  0  0  0
    1.3000    2.1270   -2.4980 H   0  0  0  0  0  0  0  0  0  0  0  0
    0.0560    1.7050   -3.7150 H   0  0  0  0  0  0  0  0  0  0  0  0
   -0.6410    0.8270   -0.9530 H   0  0  0  0  0  0  0  0  0  0  0  0
   -2.2000    1.6050   -0.5510 H   0  0  0  0  0  0  0  0  0  0  0  0
   -0.5580    2.1770    0.1550 H   0  0  0  0  0  0  0  0  0  0  0  0
   -1.8530    4.2930   -1.2410 H   0  0  0  0  0  0  0  0  0  0  0  0
    0.2220    1.3300    3.7510 H   0  0  0  0  0  0  0  0  0  0  0  0
    0.2480    2.3980    2.3500 H   0  0  0  0  0  0  0  0  0  0  0  0
   -1.7500    0.6240    1.5530 H   0  0  0  0  0  0  0  0  0  0  0  0
   -2.6550    3.0380    2.9710 H   0  0  0  0  0  0  0  0  0  0  0  0
    0.2840    0.1790    0.8850 H   0  0  0  0  0  0  0  0  0  0  0  0
    0.6870   -0.6390    2.4240 H   0  0  0  0  0  0  0  0  0  0  0  0
    2.8480    0.4230    2.5570 H   0  0  0  0  0  0  0  0  0  0  0  0
    2.3630    1.7940    1.5170 H   0  0  0  0  0  0  0  0  0  0  0  0
    2.2980    0.3570   -0.4950 H   0  0  0  0  0  0  0  0  0  0  0  0
    2.6280   -1.0920    0.5310 H   0  0  0  0  0  0  0  0  0  0  0  0
    4.5120    1.2010    0.1730 H   0  0  0  0  0  0  0  0  0  0  0  0
   -2.4050   -0.7570    0.4480 H   0  0  0  0  0  0  0  0  0  0  0  0
   -2.3320   -2.1130    1.6790 H   0  0  0  0  0  0  0  0  0  0  0  0
   -3.5760   -2.0350    0.3480 H   0  0  0  0  0  0  0  0  0  0  0  0
   -4.3140    0.2260    1.5150 H   0  0  0  0  0  0  0  0  0  0  0  0
   -3.8850   -0.5670    4.2010 H   0  0  0  0  0  0  0  0  0  0  0  0
   -6.0270    1.0670    2.2520 H   0  0  0  0  0  0  0  0  0  0  0  0
   -8.0840    0.7580    1.2080 H   0  0  0  0  0  0  0  0  0  0  0  0
   -8.7040    1.2590    2.8200 H   0  0  0  0  0  0  0  0  0  0  0  0
   -9.4800   -0.9470    3.2660 H   0  0  0  0  0  0  0  0  0  0  0  0
   -9.2270   -1.2390    1.4980 H   0  0  0  0  0  0  0  0  0  0  0  0
   -7.5510   -2.7550    2.1080 H   0  0  0  0  0  0  0  0  0  0  0  0
   -7.5820   -2.2080    3.8340 H   0  0  0  0  0  0  0  0  0  0  0  0
   -6.9530    2.2140    5.6010 H   0  0  0  0  0  0  0  0  0  0  0  0
   -7.3760    2.5770    3.9430 H   0  0  0  0  0  0  0  0  0  0  0  0
    1.3250   -0.0320   -3.8990 H   0  0  0  0  0  0  0  0  0  0  0  0
    1.7870   -1.5580   -3.0740 H   0  0  0  0  0  0  0  0  0  0  0  0
    0.2950   -1.4860   -4.0790 H   0  0  0  0  0  0  0  0  0  0  0  0
    6.5910   -2.5630   -2.4730 H   0  0  0  0  0  0  0  0  0  0  0  0
    6.5250   -1.0430   -3.4380 H   0  0  0  0  0  0  0  0  0  0  0  0
    8.8930   -0.5370   -2.8960 H   0  0  0  0  0  0  0  0  0  0  0  0
    9.0100   -2.0530   -1.8950 H   0  0  0  0  0  0  0  0  0  0  0  0
    7.9680   -2.8510   -4.4140 H   0  0  0  0  0  0  0  0  0  0  0  0
    9.0040   -3.6370   -6.1090 H   0  0  0  0  0  0  0  0  0  0  0  0
   10.4850   -2.7500   -6.6060 H   0  0  0  0  0  0  0  0  0  0  0  0
   10.6190   -4.2590   -5.6110 H   0  0  0  0  0  0  0  0  0  0  0  0
    4.5980   -0.1470   -3.2530 H   0  0  0  0  0  0  0  0  0  0  0  0
    3.3120    0.6820   -2.3800 H   0  0  0  0  0  0  0  0  0  0  0  0
    4.9450    1.3850   -2.3730 H   0  0  0  0  0  0  0  0  0  0  0  0
    4.8690   -2.3590   -1.3550 H   0  0  0  0  0  0  0  0  0  0  0  0
  1 35  1  0  0  0  0
  1 75  1  0  0  0  0
  1 76  1  0  0  0  0
  1 77  1  0  0  0  0
  2 35  2  0  0  0  0
  3  9  1  1  0  0  0
  3  4  1  0  0  0  0
  3 41  1  0  0  0  0
  3 42  1  0  0  0  0
  4 36  1  0  0  0  0
  5  7  1  0  0  0  0
  5 15  1  0  0  0  0
  5 65  1  0  0  0  0
  6 28  1  0  0  0  0
  6 26  2  0  0  0  0
  6  7  1  0  0  0  0
  7  8  1  0  0  0  0
  7 64  1  6  0  0  0
  8 61  1  0  0  0  0
  8 62  1  0  0  0  0
  8 63  1  0  0  0  0
  9 10  1  0  0  0  0
  9 60  1  0  0  0  0
 10 11  1  0  0  0  0
 10 58  1  0  0  0  0
 10 59  1  0  0  0  0
 11 12  1  0  0  0  0
 11 56  1  0  0  0  0
 11 57  1  0  0  0  0
 12 17  1  0  0  0  0
 12 54  1  0  0  0  0
 12 55  1  0  0  0  0
 13 15  2  0  0  0  0
 14 16  1  0  0  0  0
 14 20  1  0  0  0  0
 14 53  1  0  0  0  0
 15 16  1  0  0  0  0
 16 17  1  0  0  0  0
 16 52  1  6  0  0  0
 17 50  1  0  0  0  0
 17 51  1  0  0  0  0
 18 20  2  0  0  0  0
 19 24  1  0  0  0  0
 19 21  1  0  0  0  0
 19 49  1  0  0  0  0
 20 21  1  0  0  0  0
 21 47  1  0  0  0  0
 21 48  1  0  0  0  0
 22 24  2  0  0  0  0
 23 25  1  0  0  0  0
 23 35  1  0  0  0  0
 23 46  1  0  0  0  0
 24 25  1  0  0  0  0
 25 44  1  0  0  0  0
 25 45  1  0  0  0  0
 27 34  1  0  0  0  0
 27 29  1  0  0  0  0
 27 33  2  0  0  0  0
 28 29  1  0  0  0  0
 28 32  1  0  0  0  0
 29 30  1  0  0  0  0
 29 66  1  6  0  0  0
 30 31  1  0  0  0  0
 30 67  1  0  0  0  0
 30 68  1  0  0  0  0
 31 32  1  0  0  0  0
 31 69  1  0  0  0  0
 31 70  1  0  0  0  0
 32 71  1  0  0  0  0
 32 72  1  0  0  0  0
 34 73  1  0  0  0  0
 34 74  1  0  0  0  0
 36 37  1  0  0  0  0
 36 78  1  0  0  0  0
 36 79  1  0  0  0  0
 37 38  1  0  0  0  0
 37 80  1  0  0  0  0
 37 81  1  0  0  0  0
 38 39  1  0  0  0  0
 38 82  1  0  0  0  0
 39 40  1  0  0  0  0
 39 43  2  0  0  0  0
 40 83  1  0  0  0  0
 40 84  1  0  0  0  0
 40 85  1  0  0  0  0
 41 86  1  0  0  0  0
 41 87  1  0  0  0  0
 41 88  1  0  0  0  0
 42 89  1  0  0  0  0
M  END
