pdbs/k18m.pdb
 OpenBabel07281513493D

105105  0  0  1  0  0  0  0  0999 V2000
   -0.0280   -0.3720   -5.1980 C   0  0  0  0  0  0  0  0  0  0  0  0
    0.8480   -1.0520   -7.4170 N   0  0  0  0  0  0  0  0  0  0  0  0
   -0.3190   -1.0430   -6.5440 C   0  0  1  0  0  0  0  0  0  0  0  0
   -0.6340   -2.5370   -6.3500 C   0  0  0  0  0  0  0  0  0  0  0  0
    0.7570   -3.1880   -6.3410 C   0  0  0  0  0  0  0  0  0  0  0  0
    1.6300   -2.2650   -7.2160 C   0  0  0  0  0  0  0  0  0  0  0  0
    1.0720   -0.1310   -4.7580 O   0  0  0  0  0  0  0  0  0  0  0  0
   -0.1210   -0.3520   -2.2400 C   0  0  0  0  0  0  0  0  0  0  0  0
   -1.0670    0.5130   -3.1080 C   0  0  1  0  0  0  0  0  0  0  0  0
   -0.7540    2.0050   -3.3710 C   0  0  0  0  0  0  0  0  0  0  0  0
   -1.1530   -0.1130   -4.4510 N   0  0  0  0  0  0  0  0  0  0  0  0
   -0.7940    2.4740   -4.4840 O   0  0  0  0  0  0  0  0  0  0  0  0
    0.0210   -2.3560    1.0460 N   0  0  0  0  0  0  0  0  0  0  0  0
    0.7980   -2.8880    1.8960 C   0  0  0  0  0  0  0  0  0  0  0  0
    1.7450   -3.7230    1.5620 N   0  0  0  0  0  0  0  0  0  0  0  0
    0.6040   -2.6210    3.1210 N   0  0  0  0  0  0  0  0  0  0  0  0
   -0.6660   -1.0190   -0.9660 C   0  0  0  0  0  0  0  0  0  0  0  0
    0.4400   -1.8460   -0.2800 C   0  0  0  0  0  0  0  0  0  0  0  0
    1.0520    2.9670   -0.3970 C   0  0  0  0  0  0  0  0  0  0  0  0
   -0.3750    2.6100   -0.8920 C   0  0  1  0  0  0  0  0  0  0  0  0
   -1.4290    3.4970   -0.2040 C   0  0  0  0  0  0  0  0  0  0  0  0
   -0.4460    2.8540   -2.3410 N   0  0  0  0  0  0  0  0  0  0  0  0
   -1.9150    4.4300   -0.7930 O   0  0  0  0  0  0  0  0  0  0  0  0
    1.9760    1.7790   -0.0840 C   0  0  0  0  0  0  0  0  0  0  0  0
    3.3490    2.1630    0.5000 C   0  0  0  0  0  0  0  0  0  0  0  0
    4.0930    0.9300    1.0340 C   0  0  0  0  0  0  0  0  0  0  0  0
    5.4750    1.3810    1.4240 N   0  0  0  0  0  0  0  0  0  0  0  0
   -0.6250    2.7790    3.2670 C   0  0  0  0  0  0  0  0  0  0  0  0
   -1.2570    2.1750    1.9860 C   0  0  1  0  0  0  0  0  0  0  0  0
   -2.3450    1.1730    2.3670 C   0  0  0  0  0  0  0  0  0  0  0  0
   -1.7910    3.2220    1.0920 N   0  0  0  0  0  0  0  0  0  0  0  0
   -3.5140    1.3570    2.1280 O   0  0  0  0  0  0  0  0  0  0  0  0
    0.8980    2.5870    3.3300 C   0  0  0  0  0  0  0  0  0  0  0  0
    1.6330    3.1810    4.5190 C   0  0  0  0  0  0  0  0  0  0  0  0
    1.1110    3.7410    5.4470 O   0  0  0  0  0  0  0  0  0  0  0  0
    2.9880    3.0480    4.4630 N   0  0  0  0  0  0  0  0  0  0  0  0
   -3.7170   -0.6150    4.5520 C   0  0  0  0  0  0  0  0  0  0  0  0
   -2.7480   -1.0430    3.4340 C   0  0  1  0  0  0  0  0  0  0  0  0
   -3.3560   -1.7700    2.2400 C   0  0  0  0  0  0  0  0  0  0  0  0
   -1.8710    0.0500    2.9940 N   0  0  0  0  0  0  0  0  0  0  0  0
   -2.9610   -1.6370    1.1120 O   0  0  0  0  0  0  0  0  0  0  0  0
   -3.4420   -1.2490    5.9340 C   0  0  0  0  0  0  0  0  0  0  0  0
   -3.7050   -2.7650    5.9440 C   0  0  0  0  0  0  0  0  0  0  0  0
   -2.0380   -0.9100    6.4690 C   0  0  0  0  0  0  0  0  0  0  0  0
   -4.3470   -2.6480    2.5360 N   0  0  0  0  0  0  0  0  0  0  0  0
    1.1630   -0.0310   -8.2820 C   0  0  0  0  0  0  0  0  0  0  0  0
    2.4770   -0.1790   -9.0280 C   0  0  0  0  0  0  0  0  0  0  0  0
    0.4420    0.9210   -8.4500 O   0  0  0  0  0  0  0  0  0  0  0  0
   -1.1900   -0.5370   -7.0220 H   0  0  0  0  0  0  0  0  0  0  0  0
   -1.2160   -2.9170   -7.2230 H   0  0  0  0  0  0  0  0  0  0  0  0
   -1.2290   -2.7560   -5.4340 H   0  0  0  0  0  0  0  0  0  0  0  0
    1.1510   -3.2190   -5.2970 H   0  0  0  0  0  0  0  0  0  0  0  0
    0.7200   -4.2380   -6.7130 H   0  0  0  0  0  0  0  0  0  0  0  0
    1.8600   -2.7480   -8.1930 H   0  0  0  0  0  0  0  0  0  0  0  0
    2.5860   -2.0160   -6.6970 H   0  0  0  0  0  0  0  0  0  0  0  0
    0.2170   -1.2420   -2.8250 H   0  0  0  0  0  0  0  0  0  0  0  0
    0.8050    0.2140   -2.0250 H   0  0  0  0  0  0  0  0  0  0  0  0
   -2.0910    0.4800   -2.6650 H   0  0  0  0  0  0  0  0  0  0  0  0
   -2.0680   -0.2690   -4.8670 H   0  0  0  0  0  0  0  0  0  0  0  0
   -0.9470   -2.1280    1.3810 H   0  0  0  0  0  0  0  0  0  0  0  0
    1.9280   -3.9680    0.5810 H   0  0  0  0  0  0  0  0  0  0  0  0
    2.3560   -4.1230    2.2850 H   0  0  0  0  0  0  0  0  0  0  0  0
   -0.3150   -2.8850    3.5520 H   0  0  0  0  0  0  0  0  0  0  0  0
    1.4090   -2.4320    3.7720 H   0  0  0  0  0  0  0  0  0  0  0  0
   -1.5310   -1.6670   -1.2390 H   0  0  0  0  0  0  0  0  0  0  0  0
   -1.0610   -0.2790   -0.2400 H   0  0  0  0  0  0  0  0  0  0  0  0
    1.3650   -1.2340   -0.1540 H   0  0  0  0  0  0  0  0  0  0  0  0
    0.6820   -2.7050   -0.9510 H   0  0  0  0  0  0  0  0  0  0  0  0
    1.5780    3.6000   -1.1510 H   0  0  0  0  0  0  0  0  0  0  0  0
    0.9730    3.6140    0.5030 H   0  0  0  0  0  0  0  0  0  0  0  0
   -0.6990    1.5820   -0.6720 H   0  0  0  0  0  0  0  0  0  0  0  0
   -0.3140    3.8190   -2.6500 H   0  0  0  0  0  0  0  0  0  0  0  0
    2.1690    1.2170   -1.0250 H   0  0  0  0  0  0  0  0  0  0  0  0
    1.4600    1.0870    0.6160 H   0  0  0  0  0  0  0  0  0  0  0  0
    3.2470    2.9050    1.3280 H   0  0  0  0  0  0  0  0  0  0  0  0
    3.9510    2.6470   -0.3040 H   0  0  0  0  0  0  0  0  0  0  0  0
    4.1660    0.1250    0.2680 H   0  0  0  0  0  0  0  0  0  0  0  0
    3.5710    0.5150    1.9270 H   0  0  0  0  0  0  0  0  0  0  0  0
    5.9910    0.5750    1.8470 H   0  0  0  0  0  0  0  0  0  0  0  0
    5.3910    2.1350    2.1420 H   0  0  0  0  0  0  0  0  0  0  0  0
    5.9910    1.7340    0.5900 H   0  0  0  0  0  0  0  0  0  0  0  0
   -1.0760    2.3420    4.1890 H   0  0  0  0  0  0  0  0  0  0  0  0
   -0.8480    3.8720    3.3040 H   0  0  0  0  0  0  0  0  0  0  0  0
   -0.5150    1.5390    1.4600 H   0  0  0  0  0  0  0  0  0  0  0  0
   -2.5460    3.8070    1.4550 H   0  0  0  0  0  0  0  0  0  0  0  0
    1.3320    3.1070    2.4500 H   0  0  0  0  0  0  0  0  0  0  0  0
    1.1420    1.4990    3.2790 H   0  0  0  0  0  0  0  0  0  0  0  0
    3.4370    2.5910    3.6810 H   0  0  0  0  0  0  0  0  0  0  0  0
    3.5410    3.4290    5.2200 H   0  0  0  0  0  0  0  0  0  0  0  0
   -4.7710   -0.8120    4.2480 H   0  0  0  0  0  0  0  0  0  0  0  0
   -3.6650    0.4920    4.6830 H   0  0  0  0  0  0  0  0  0  0  0  0
   -2.0590   -1.8160    3.8480 H   0  0  0  0  0  0  0  0  0  0  0  0
   -0.8690   -0.0450    3.1440 H   0  0  0  0  0  0  0  0  0  0  0  0
   -4.1770   -0.7950    6.6500 H   0  0  0  0  0  0  0  0  0  0  0  0
   -4.7420   -2.9920    5.6040 H   0  0  0  0  0  0  0  0  0  0  0  0
   -3.5920   -3.1830    6.9710 H   0  0  0  0  0  0  0  0  0  0  0  0
   -3.0060   -3.3200    5.2800 H   0  0  0  0  0  0  0  0  0  0  0  0
   -1.8460    0.1870    6.4370 H   0  0  0  0  0  0  0  0  0  0  0  0
   -1.9260   -1.2390    7.5280 H   0  0  0  0  0  0  0  0  0  0  0  0
   -1.2310   -1.4070    5.8870 H   0  0  0  0  0  0  0  0  0  0  0  0
   -4.6530   -2.7750    3.4900 H   0  0  0  0  0  0  0  0  0  0  0  0
   -4.7570   -3.1640    1.7710 H   0  0  0  0  0  0  0  0  0  0  0  0
    3.2980   -0.4890   -8.3460 H   0  0  0  0  0  0  0  0  0  0  0  0
    2.3580   -0.9240   -9.8470 H   0  0  0  0  0  0  0  0  0  0  0  0
    2.7820    0.7930   -9.4800 H   0  0  0  0  0  0  0  0  0  0  0  0
  1 11  1  0  0  0  0
  1  3  1  0  0  0  0
  1  7  2  0  0  0  0
  2 46  1  0  0  0  0
  2  3  1  0  0  0  0
  2  6  1  0  0  0  0
  3  4  1  0  0  0  0
  3 49  1  6  0  0  0
  4  5  1  0  0  0  0
  4 50  1  0  0  0  0
  4 51  1  0  0  0  0
  5  6  1  0  0  0  0
  5 52  1  0  0  0  0
  5 53  1  0  0  0  0
  6 54  1  0  0  0  0
  6 55  1  0  0  0  0
  8  9  1  0  0  0  0
  8 17  1  0  0  0  0
  8 56  1  0  0  0  0
  8 57  1  0  0  0  0
  9 11  1  0  0  0  0
  9 10  1  0  0  0  0
  9 58  1  1  0  0  0
 10 22  1  0  0  0  0
 10 12  2  0  0  0  0
 11 59  1  0  0  0  0
 13 14  1  0  0  0  0
 13 18  1  0  0  0  0
 13 60  1  0  0  0  0
 14 16  2  0  0  0  0
 14 15  1  0  0  0  0
 15 61  1  0  0  0  0
 15 62  1  0  0  0  0
 16 63  1  0  0  0  0
 16 64  1  0  0  0  0
 17 18  1  0  0  0  0
 17 65  1  0  0  0  0
 17 66  1  0  0  0  0
 18 67  1  0  0  0  0
 18 68  1  0  0  0  0
 19 20  1  0  0  0  0
 19 24  1  0  0  0  0
 19 69  1  0  0  0  0
 19 70  1  0  0  0  0
 20 22  1  0  0  0  0
 20 21  1  0  0  0  0
 20 71  1  1  0  0  0
 21 31  1  0  0  0  0
 21 23  2  0  0  0  0
 22 72  1  0  0  0  0
 24 25  1  0  0  0  0
 24 73  1  0  0  0  0
 24 74  1  0  0  0  0
 25 26  1  0  0  0  0
 25 75  1  0  0  0  0
 25 76  1  0  0  0  0
 26 27  1  0  0  0  0
 26 77  1  0  0  0  0
 26 78  1  0  0  0  0
 27 79  1  0  0  0  0
 27 80  1  0  0  0  0
 27 81  1  0  0  0  0
 28 33  1  0  0  0  0
 28 29  1  0  0  0  0
 28 82  1  0  0  0  0
 28 83  1  0  0  0  0
 29 30  1  0  0  0  0
 29 31  1  0  0  0  0
 29 84  1  6  0  0  0
 30 40  1  0  0  0  0
 30 32  2  0  0  0  0
 31 85  1  0  0  0  0
 33 34  1  0  0  0  0
 33 86  1  0  0  0  0
 33 87  1  0  0  0  0
 34 36  1  0  0  0  0
 34 35  2  0  0  0  0
 36 88  1  0  0  0  0
 36 89  1  0  0  0  0
 37 42  1  0  0  0  0
 37 38  1  0  0  0  0
 37 90  1  0  0  0  0
 37 91  1  0  0  0  0
 38 39  1  0  0  0  0
 38 40  1  0  0  0  0
 38 92  1  1  0  0  0
 39 45  1  0  0  0  0
 39 41  2  0  0  0  0
 40 93  1  0  0  0  0
 42 44  1  0  0  0  0
 42 43  1  0  0  0  0
 42 94  1  0  0  0  0
 43 95  1  0  0  0  0
 43 96  1  0  0  0  0
 43 97  1  0  0  0  0
 44 98  1  0  0  0  0
 44 99  1  0  0  0  0
 44100  1  0  0  0  0
 45101  1  0  0  0  0
 45102  1  0  0  0  0
 46 47  1  0  0  0  0
 46 48  2  0  0  0  0
 47103  1  0  0  0  0
 47104  1  0  0  0  0
 47105  1  0  0  0  0
M  END
