pdbs/k18mtr.pdb
 OpenBabel07281513493D

125125  0  0  1  0  0  0  0  0999 V2000
    3.0460   -4.1920   -3.1310 C   0  0  0  0  0  0  0  0  0  0  0  0
    1.5420    0.6430    6.1920 H   0  0  0  0  0  0  0  0  0  0  0  0
    3.2580    1.0440    6.1070 H   0  0  0  0  0  0  0  0  0  0  0  0
   -5.4890    0.5860    3.2130 H   0  0  0  0  0  0  0  0  0  0  0  0
   -4.3880    0.1830    1.9040 H   0  0  0  0  0  0  0  0  0  0  0  0
   -1.9700    0.0410    2.5960 H   0  0  0  0  0  0  0  0  0  0  0  0
   -2.7250   -1.5990    2.6050 H   0  0  0  0  0  0  0  0  0  0  0  0
    0.2200   -3.6010    4.5890 H   0  0  0  0  0  0  0  0  0  0  0  0
   -0.1540   -1.5040    2.4210 H   0  0  0  0  0  0  0  0  0  0  0  0
   -0.2530    2.4220    6.2230 H   0  0  0  0  0  0  0  0  0  0  0  0
    2.9300    3.9820    4.7070 H   0  0  0  0  0  0  0  0  0  0  0  0
    2.7240    4.8140    6.2750 H   0  0  0  0  0  0  0  0  0  0  0  0
    3.9790    3.5410    6.1010 H   0  0  0  0  0  0  0  0  0  0  0  0
    1.9850    2.7140    7.3790 H   0  0  0  0  0  0  0  0  0  0  0  0
    0.3300    0.7000    3.2380 H   0  0  0  0  0  0  0  0  0  0  0  0
    1.9030    2.1960    3.7670 H   0  0  0  0  0  0  0  0  0  0  0  0
   -1.7990   -2.1110    4.8330 H   0  0  0  0  0  0  0  0  0  0  0  0
   -1.1070   -0.4780    4.9510 H   0  0  0  0  0  0  0  0  0  0  0  0
   -4.4740    0.3620   -1.4250 H   0  0  0  0  0  0  0  0  0  0  0  0
   -1.8180    0.4480   -0.0600 H   0  0  0  0  0  0  0  0  0  0  0  0
   -2.0450   -0.1560   -1.7500 H   0  0  0  0  0  0  0  0  0  0  0  0
   -3.5190   -1.9870   -0.9820 H   0  0  0  0  0  0  0  0  0  0  0  0
   -3.4290   -1.3890    0.6930 H   0  0  0  0  0  0  0  0  0  0  0  0
   -0.7930   -1.4580    0.3170 H   0  0  0  0  0  0  0  0  0  0  0  0
   -1.1960   -2.4850   -1.1170 H   0  0  0  0  0  0  0  0  0  0  0  0
    0.0250   -5.7660    0.4390 H   0  0  0  0  0  0  0  0  0  0  0  0
    0.7300   -2.9280    1.0830 H   0  0  0  0  0  0  0  0  0  0  0  0
   -2.0130   -3.2600    1.7460 H   0  0  0  0  0  0  0  0  0  0  0  0
   -1.9210   -4.2970    0.3250 H   0  0  0  0  0  0  0  0  0  0  0  0
    2.0420    0.5400   -1.6350 H   0  0  0  0  0  0  0  0  0  0  0  0
    0.4360   -0.1080   -1.1310 H   0  0  0  0  0  0  0  0  0  0  0  0
    1.7880   -1.3060    0.8080 H   0  0  0  0  0  0  0  0  0  0  0  0
    3.2450   -0.9380   -0.1590 H   0  0  0  0  0  0  0  0  0  0  0  0
   -0.3520    3.4440    1.4310 H   0  0  0  0  0  0  0  0  0  0  0  0
    1.3820    3.1640    1.8410 H   0  0  0  0  0  0  0  0  0  0  0  0
   -0.1490    3.7360   -0.9720 H   0  0  0  0  0  0  0  0  0  0  0  0
    0.4290    2.3240   -1.8520 H   0  0  0  0  0  0  0  0  0  0  0  0
    1.8870    1.0670    1.1470 H   0  0  0  0  0  0  0  0  0  0  0  0
    4.4080   -4.2860   -1.5750 H   0  0  0  0  0  0  0  0  0  0  0  0
    3.0760   -3.5730    0.1860 H   0  0  0  0  0  0  0  0  0  0  0  0
    0.7850   -2.4670   -1.3080 H   0  0  0  0  0  0  0  0  0  0  0  0
    2.2630   -1.9810   -2.1240 H   0  0  0  0  0  0  0  0  0  0  0  0
    2.4540   -3.2570   -6.3490 H   0  0  0  0  0  0  0  0  0  0  0  0
    3.9820   -3.7120   -7.2270 H   0  0  0  0  0  0  0  0  0  0  0  0
    4.9730   -1.8880   -6.0520 H   0  0  0  0  0  0  0  0  0  0  0  0
    3.5830   -1.8130   -4.9000 H   0  0  0  0  0  0  0  0  0  0  0  0
    5.2940   -2.7320   -3.4400 H   0  0  0  0  0  0  0  0  0  0  0  0
    6.0400   -3.6610   -4.8030 H   0  0  0  0  0  0  0  0  0  0  0  0
    4.7490   -5.3890   -3.7250 H   0  0  0  0  0  0  0  0  0  0  0  0
   -7.4580    7.6240   -3.3050 O   0  0  0  0  0  0  0  0  0  0  0  0
   -2.5210    2.7810   -0.6110 O   0  0  0  0  0  0  0  0  0  0  0  0
   -2.8050    2.0660   -2.8890 C   0  0  0  0  0  0  0  0  0  0  0  0
   -5.6210    9.0930   -3.7760 C   0  0  0  0  0  0  0  0  0  0  0  0
   -6.2670    7.8080   -3.2890 C   0  0  0  0  0  0  0  0  0  0  0  0
   -5.3800    6.8700   -2.8310 N   0  0  0  0  0  0  0  0  0  0  0  0
   -5.8060    5.5580   -2.3270 C   0  0  0  0  0  0  0  0  0  0  0  0
   -4.5630    4.6730   -2.1140 C   0  0  0  0  0  0  0  0  0  0  0  0
   -5.0560    3.0030   -1.5760 S   0  0  0  0  0  0  0  0  0  0  0  0
   -3.4390    2.1500   -1.4950 C   0  0  2  0  0  0  0  0  0  0  0  0
    3.3760   -7.0290   -5.2120 O   0  0  0  0  0  0  0  0  0  0  0  0
    2.5250   -6.0820   -7.2340 C   0  0  0  0  0  0  0  0  0  0  0  0
    3.2050   -6.0340   -5.8700 C   0  0  0  0  0  0  0  0  0  0  0  0
    4.6410    1.2910    4.0450 N   0  0  0  0  0  0  0  0  0  0  0  0
    0.4860    3.1950    5.9120 C   0  0  0  0  0  0  0  0  0  0  0  0
    2.9430    3.8270    5.8080 C   0  0  0  0  0  0  0  0  0  0  0  0
    1.9240    2.7670    6.2600 C   0  0  0  0  0  0  0  0  0  0  0  0
    3.4770    0.4990    2.3060 O   0  0  0  0  0  0  0  0  0  0  0  0
    1.1160    0.3040    3.7560 N   0  0  0  0  0  0  0  0  0  0  0  0
    3.4850    0.9320    3.4290 C   0  0  0  0  0  0  0  0  0  0  0  0
    2.1930    1.2070    4.1940 C   0  0  2  0  0  0  0  0  0  0  0  0
    2.2610    1.3570    5.7240 C   0  0  0  0  0  0  0  0  0  0  0  0
   -4.6030    0.2250    2.8920 N   0  0  0  0  0  0  0  0  0  0  0  0
   -3.9640   -0.1470    5.0010 O   0  0  0  0  0  0  0  0  0  0  0  0
   -3.7110   -0.2070    3.8260 C   0  0  0  0  0  0  0  0  0  0  0  0
   -2.4180   -0.7480    3.2460 C   0  0  0  0  0  0  0  0  0  0  0  0
    2.0480   -1.5890    4.5720 O   0  0  0  0  0  0  0  0  0  0  0  0
    0.0790   -3.2470    3.6420 N   0  0  0  0  0  0  0  0  0  0  0  0
    1.1360   -1.0410    4.0040 C   0  0  0  0  0  0  0  0  0  0  0  0
   -0.0980   -1.7910    3.4910 C   0  0  2  0  0  0  0  0  0  0  0  0
   -1.3630   -1.2840    4.2270 C   0  0  0  0  0  0  0  0  0  0  0  0
   -3.7080    0.8380   -0.8820 N   0  0  0  0  0  0  0  0  0  0  0  0
   -2.5410   -0.0390   -0.7610 C   0  0  0  0  0  0  0  0  0  0  0  0
   -2.8630   -1.4590   -0.2540 C   0  0  0  0  0  0  0  0  0  0  0  0
   -1.5210   -2.1940   -0.0930 C   0  0  0  0  0  0  0  0  0  0  0  0
    0.3330   -5.3580    2.9510 O   0  0  0  0  0  0  0  0  0  0  0  0
    0.5060   -4.8720    0.3300 N   0  0  0  0  0  0  0  0  0  0  0  0
    0.1630   -4.2010    2.6560 C   0  0  0  0  0  0  0  0  0  0  0  0
    0.0400   -3.7720    1.1840 C   0  0  2  0  0  0  0  0  0  0  0  0
   -1.4300   -3.4270    0.8180 C   0  0  0  0  0  0  0  0  0  0  0  0
    1.4570    0.1480   -0.7710 C   0  0  0  0  0  0  0  0  0  0  0  0
    2.1460   -1.1190   -0.2260 C   0  0  0  0  0  0  0  0  0  0  0  0
    0.5470    2.9380    1.2470 N   0  0  0  0  0  0  0  0  0  0  0  0
    0.2960    2.8140   -0.9550 N   0  0  0  0  0  0  0  0  0  0  0  0
    0.7160    2.2940    0.1670 C   0  0  0  0  0  0  0  0  0  0  0  0
    1.3420    1.1960    0.2630 N   0  0  0  0  0  0  0  0  0  0  0  0
    1.8250   -5.9800   -1.0620 O   0  0  0  0  0  0  0  0  0  0  0  0
    3.4470   -4.0600   -1.8250 N   0  0  0  0  0  0  0  0  0  0  0  0
    1.5790   -4.9290   -0.5220 C   0  0  0  0  0  0  0  0  0  0  0  0
    2.4850   -3.6910   -0.7550 C   0  0  2  0  0  0  0  0  0  0  0  0
    1.8670   -2.3260   -1.1400 C   0  0  0  0  0  0  0  0  0  0  0  0
    1.9070   -3.9980   -3.4800 O   0  0  0  0  0  0  0  0  0  0  0  0
    3.5210   -3.5630   -6.2220 C   0  0  0  0  0  0  0  0  0  0  0  0
    4.2950   -2.5030   -5.4140 C   0  0  0  0  0  0  0  0  0  0  0  0
    5.0730   -3.3150   -4.3630 C   0  0  0  0  0  0  0  0  0  0  0  0
    4.1630   -4.5280   -4.1160 C   0  0  2  0  0  0  0  0  0  0  0  0
    3.6160   -4.7930   -5.4440 N   0  0  0  0  0  0  0  0  0  0  0  0
    0.2190    4.1440    6.4310 H   0  0  0  0  0  0  0  0  0  0  0  0
    0.3480    3.3790    4.8240 H   0  0  0  0  0  0  0  0  0  0  0  0
    4.6430    1.6960    4.9710 H   0  0  0  0  0  0  0  0  0  0  0  0
    5.5080    1.1580    3.5410 H   0  0  0  0  0  0  0  0  0  0  0  0
    1.7470   -5.2940   -7.3260 H   0  0  0  0  0  0  0  0  0  0  0  0
    3.2810   -5.9750   -8.0420 H   0  0  0  0  0  0  0  0  0  0  0  0
    2.0150   -7.0610   -7.3790 H   0  0  0  0  0  0  0  0  0  0  0  0
   -3.8980    5.1550   -1.3600 H   0  0  0  0  0  0  0  0  0  0  0  0
   -4.0120    4.6460   -3.0810 H   0  0  0  0  0  0  0  0  0  0  0  0
   -6.4860    5.0850   -3.0740 H   0  0  0  0  0  0  0  0  0  0  0  0
   -6.3660    5.6980   -1.3720 H   0  0  0  0  0  0  0  0  0  0  0  0
   -4.3890    7.1070   -2.8190 H   0  0  0  0  0  0  0  0  0  0  0  0
   -4.5060    9.0440   -3.7440 H   0  0  0  0  0  0  0  0  0  0  0  0
   -5.9260    9.3000   -4.8280 H   0  0  0  0  0  0  0  0  0  0  0  0
   -5.9500    9.9490   -3.1410 H   0  0  0  0  0  0  0  0  0  0  0  0
   -2.6100    3.0690   -3.3300 H   0  0  0  0  0  0  0  0  0  0  0  0
   -1.7950    1.6020   -2.8630 H   0  0  0  0  0  0  0  0  0  0  0  0
   -3.4380    1.4680   -3.5860 H   0  0  0  0  0  0  0  0  0  0  0  0
   -2.7530    2.5400    0.2900 H   0  0  0  0  0  0  0  0  0  0  0  0
  1105  1  0  0  0  0
  1 97  1  0  0  0  0
  1101  2  0  0  0  0
  2 71  1  0  0  0  0
  3 71  1  0  0  0  0
  4 72  1  0  0  0  0
  5 72  1  0  0  0  0
  6 75  1  0  0  0  0
  7 75  1  0  0  0  0
  8 77  1  0  0  0  0
 10 64  1  0  0  0  0
 11 65  1  0  0  0  0
 12 65  1  0  0  0  0
 13 65  1  0  0  0  0
 14 66  1  0  0  0  0
 15 68  1  0  0  0  0
 17 80  1  0  0  0  0
 18 80  1  0  0  0  0
 19 81  1  0  0  0  0
 20 82  1  0  0  0  0
 21 82  1  0  0  0  0
 22 83  1  0  0  0  0
 23 83  1  0  0  0  0
 24 84  1  0  0  0  0
 25 84  1  0  0  0  0
 26 86  1  0  0  0  0
 28 89  1  0  0  0  0
 29 89  1  0  0  0  0
 30 90  1  0  0  0  0
 31 90  1  0  0  0  0
 32 91  1  0  0  0  0
 33 91  1  0  0  0  0
 34 92  1  0  0  0  0
 35 92  1  0  0  0  0
 36 93  1  0  0  0  0
 37 93  1  0  0  0  0
 38 95  1  0  0  0  0
 39 97  1  0  0  0  0
 41100  1  0  0  0  0
 42100  1  0  0  0  0
 43102  1  0  0  0  0
 44102  1  0  0  0  0
 45103  1  0  0  0  0
 46103  1  0  0  0  0
 47104  1  0  0  0  0
 48104  1  0  0  0  0
 50 54  2  0  0  0  0
 51125  1  0  0  0  0
 52 59  1  0  0  0  0
 52122  1  0  0  0  0
 52123  1  0  0  0  0
 52124  1  0  0  0  0
 53 54  1  0  0  0  0
 53119  1  0  0  0  0
 53120  1  0  0  0  0
 53121  1  0  0  0  0
 54 55  1  0  0  0  0
 55 56  1  0  0  0  0
 55118  1  0  0  0  0
 56 57  1  0  0  0  0
 56116  1  0  0  0  0
 56117  1  0  0  0  0
 57 58  1  0  0  0  0
 57114  1  0  0  0  0
 57115  1  0  0  0  0
 58 59  1  0  0  0  0
 59 51  1  1  0  0  0
 59 81  1  0  0  0  0
 60 62  2  0  0  0  0
 61 62  1  0  0  0  0
 61111  1  0  0  0  0
 61112  1  0  0  0  0
 61113  1  0  0  0  0
 62106  1  0  0  0  0
 63 69  1  0  0  0  0
 63109  1  0  0  0  0
 63110  1  0  0  0  0
 64 66  1  0  0  0  0
 64107  1  0  0  0  0
 64108  1  0  0  0  0
 65 66  1  0  0  0  0
 66 71  1  0  0  0  0
 67 69  2  0  0  0  0
 68 70  1  0  0  0  0
 68 78  1  0  0  0  0
 69 70  1  0  0  0  0
 70 16  1  6  0  0  0
 70 71  1  0  0  0  0
 72 74  1  0  0  0  0
 73 74  2  0  0  0  0
 74 75  1  0  0  0  0
 75 80  1  0  0  0  0
 76 78  2  0  0  0  0
 77 79  1  0  0  0  0
 77 87  1  0  0  0  0
 78 79  1  0  0  0  0
 79  9  1  6  0  0  0
 79 80  1  0  0  0  0
 81 82  1  0  0  0  0
 82 83  1  0  0  0  0
 83 84  1  0  0  0  0
 84 89  1  0  0  0  0
 85 87  2  0  0  0  0
 86 88  1  0  0  0  0
 86 98  1  0  0  0  0
 87 88  1  0  0  0  0
 88 27  1  6  0  0  0
 88 89  1  0  0  0  0
 90 91  1  0  0  0  0
 90 95  1  0  0  0  0
 91100  1  0  0  0  0
 92 94  2  0  0  0  0
 93 94  1  0  0  0  0
 94 95  1  0  0  0  0
 96 98  2  0  0  0  0
 97 99  1  0  0  0  0
 98 99  1  0  0  0  0
 99 40  1  1  0  0  0
 99100  1  0  0  0  0
102106  1  0  0  0  0
102103  1  0  0  0  0
103104  1  0  0  0  0
104105  1  0  0  0  0
105 49  1  1  0  0  0
105106  1  0  0  0  0
M  END
