pdbs/k23m.pdb
 OpenBabel07281513493D

 81 80  0  0  1  0  0  0  0  0999 V2000
   -1.5060   -2.5100   -3.2740 C   0  0  0  0  0  0  0  0  0  0  0  0
   -1.7630   -1.4850   -4.3890 C   0  0  1  0  0  0  0  0  0  0  0  0
   -0.4630   -1.1130   -5.1070 C   0  0  0  0  0  0  0  0  0  0  0  0
   -2.6450   -2.0640   -5.4160 N   0  0  0  0  0  0  0  0  0  0  0  0
   -0.2540   -1.4440   -6.2500 O   0  0  0  0  0  0  0  0  0  0  0  0
    1.6410   -0.6170   -2.3140 C   0  0  2  0  0  0  0  0  0  0  0  0
    0.4880    0.0920   -3.0490 C   0  0  1  0  0  0  0  0  0  0  0  0
    0.8160    1.5930   -3.1240 C   0  0  0  0  0  0  0  0  0  0  0  0
    0.4890   -0.3960   -4.4370 N   0  0  0  0  0  0  0  0  0  0  0  0
    1.2310    2.0860   -4.1440 O   0  0  0  0  0  0  0  0  0  0  0  0
    2.4970   -1.2500   -3.2410 O   0  0  0  0  0  0  0  0  0  0  0  0
    1.2310   -1.6480   -1.2680 C   0  0  0  0  0  0  0  0  0  0  0  0
    1.3950    2.3960    0.3590 C   0  0  0  0  0  0  0  0  0  0  0  0
    0.2960    1.9490   -0.6400 C   0  0  1  0  0  0  0  0  0  0  0  0
   -1.0630    2.5890   -0.3130 C   0  0  0  0  0  0  0  0  0  0  0  0
    0.6970    2.3610   -1.9980 N   0  0  0  0  0  0  0  0  0  0  0  0
   -1.5360    3.4390   -1.0260 O   0  0  0  0  0  0  0  0  0  0  0  0
    2.3710    1.2720    0.7510 C   0  0  0  0  0  0  0  0  0  0  0  0
    3.3250    1.5990    1.9160 C   0  0  0  0  0  0  0  0  0  0  0  0
    3.9800    0.3140    2.4520 C   0  0  0  0  0  0  0  0  0  0  0  0
    5.0710    0.7130    3.4110 N   0  0  0  0  0  0  0  0  0  0  0  0
   -1.4100    1.7770    3.2420 C   0  0  0  0  0  0  0  0  0  0  0  0
   -1.3190    1.1820    1.8120 C   0  0  1  0  0  0  0  0  0  0  0  0
   -2.2200   -0.0580    1.6680 C   0  0  0  0  0  0  0  0  0  0  0  0
   -1.7350    2.1770    0.8060 N   0  0  0  0  0  0  0  0  0  0  0  0
   -3.2620   -0.0040    1.0640 O   0  0  0  0  0  0  0  0  0  0  0  0
   -0.0450    2.1010    3.8770 C   0  0  0  0  0  0  0  0  0  0  0  0
   -2.2880    3.0380    3.3110 C   0  0  0  0  0  0  0  0  0  0  0  0
   -0.8970   -1.7140    4.4890 C   0  0  0  0  0  0  0  0  0  0  0  0
   -0.5880   -1.5120    2.9970 C   0  0  1  0  0  0  0  0  0  0  0  0
    0.1150   -2.7180    2.3740 C   0  0  0  0  0  0  0  0  0  0  0  0
   -1.8220   -1.2340    2.2450 N   0  0  0  0  0  0  0  0  0  0  0  0
   -0.2280   -3.2310    1.3400 O   0  0  0  0  0  0  0  0  0  0  0  0
    1.2250   -3.1510    3.0300 N   0  0  0  0  0  0  0  0  0  0  0  0
   -3.9960   -2.2520   -5.3290 C   0  0  0  0  0  0  0  0  0  0  0  0
   -4.5890   -2.7740   -6.2400 O   0  0  0  0  0  0  0  0  0  0  0  0
   -4.6840   -1.7960   -4.0530 C   0  0  0  0  0  0  0  0  0  0  0  0
   -1.4300   -2.0270   -2.2750 H   0  0  0  0  0  0  0  0  0  0  0  0
   -2.3240   -3.2560   -3.1920 H   0  0  0  0  0  0  0  0  0  0  0  0
   -0.5750   -3.0890   -3.4660 H   0  0  0  0  0  0  0  0  0  0  0  0
   -2.2060   -0.5350   -4.0150 H   0  0  0  0  0  0  0  0  0  0  0  0
   -2.2020   -2.3760   -6.2820 H   0  0  0  0  0  0  0  0  0  0  0  0
    2.2800    0.1460   -1.8190 H   0  0  0  0  0  0  0  0  0  0  0  0
   -0.5020   -0.0240   -2.5630 H   0  0  0  0  0  0  0  0  0  0  0  0
    1.3150   -0.1670   -4.9840 H   0  0  0  0  0  0  0  0  0  0  0  0
    2.8410   -0.6280   -3.8860 H   0  0  0  0  0  0  0  0  0  0  0  0
    0.4040   -1.2870   -0.6180 H   0  0  0  0  0  0  0  0  0  0  0  0
    2.0870   -1.8930   -0.5990 H   0  0  0  0  0  0  0  0  0  0  0  0
    0.9100   -2.6010   -1.7390 H   0  0  0  0  0  0  0  0  0  0  0  0
    1.9650    3.2600   -0.0580 H   0  0  0  0  0  0  0  0  0  0  0  0
    0.9220    2.7880    1.2850 H   0  0  0  0  0  0  0  0  0  0  0  0
    0.1340    0.8530   -0.5950 H   0  0  0  0  0  0  0  0  0  0  0  0
    0.8620    3.3550   -2.1480 H   0  0  0  0  0  0  0  0  0  0  0  0
    3.0080    1.0190   -0.1270 H   0  0  0  0  0  0  0  0  0  0  0  0
    1.7870    0.3600    1.0230 H   0  0  0  0  0  0  0  0  0  0  0  0
    2.7650    2.0950    2.7410 H   0  0  0  0  0  0  0  0  0  0  0  0
    4.1040    2.3200    1.5680 H   0  0  0  0  0  0  0  0  0  0  0  0
    4.4320   -0.2820    1.6250 H   0  0  0  0  0  0  0  0  0  0  0  0
    3.2250   -0.3150    2.9820 H   0  0  0  0  0  0  0  0  0  0  0  0
    5.4840   -0.1520    3.8300 H   0  0  0  0  0  0  0  0  0  0  0  0
    4.6660    1.3080    4.1690 H   0  0  0  0  0  0  0  0  0  0  0  0
    5.8120    1.2440    2.8990 H   0  0  0  0  0  0  0  0  0  0  0  0
   -1.9000    1.0140    3.9010 H   0  0  0  0  0  0  0  0  0  0  0  0
   -0.2850    0.8480    1.6040 H   0  0  0  0  0  0  0  0  0  0  0  0
   -2.6680    2.5740    0.9040 H   0  0  0  0  0  0  0  0  0  0  0  0
   -0.1640    2.3750    4.9520 H   0  0  0  0  0  0  0  0  0  0  0  0
    0.6600    1.2410    3.8450 H   0  0  0  0  0  0  0  0  0  0  0  0
    0.4450    2.9660    3.3790 H   0  0  0  0  0  0  0  0  0  0  0  0
   -2.3970    3.4030    4.3590 H   0  0  0  0  0  0  0  0  0  0  0  0
   -3.3130    2.8450    2.9190 H   0  0  0  0  0  0  0  0  0  0  0  0
   -1.8390    3.8740    2.7270 H   0  0  0  0  0  0  0  0  0  0  0  0
   -0.9010   -0.7430    5.0330 H   0  0  0  0  0  0  0  0  0  0  0  0
   -1.8960   -2.1830    4.6340 H   0  0  0  0  0  0  0  0  0  0  0  0
   -0.1510   -2.3580    5.0050 H   0  0  0  0  0  0  0  0  0  0  0  0
    0.1700   -0.7040    2.8890 H   0  0  0  0  0  0  0  0  0  0  0  0
   -2.4570   -2.0140    2.0880 H   0  0  0  0  0  0  0  0  0  0  0  0
    1.5420   -2.7110    3.8830 H   0  0  0  0  0  0  0  0  0  0  0  0
    1.7410   -3.9220    2.6300 H   0  0  0  0  0  0  0  0  0  0  0  0
   -4.3160   -0.8200   -3.6730 H   0  0  0  0  0  0  0  0  0  0  0  0
   -5.7730   -1.6650   -4.2440 H   0  0  0  0  0  0  0  0  0  0  0  0
   -4.5800   -2.5740   -3.2630 H   0  0  0  0  0  0  0  0  0  0  0  0
  1  2  1  0  0  0  0
  1 39  1  0  0  0  0
  1 40  1  0  0  0  0
  1 38  1  0  0  0  0
  2  4  1  0  0  0  0
  2  3  1  0  0  0  0
  2 41  1  1  0  0  0
  3  9  1  0  0  0  0
  3  5  2  0  0  0  0
  4 35  1  0  0  0  0
  4 42  1  0  0  0  0
  6 12  1  0  0  0  0
  6  7  1  0  0  0  0
  6 11  1  0  0  0  0
  6 43  1  1  0  0  0
  7  9  1  0  0  0  0
  7  8  1  0  0  0  0
  7 44  1  1  0  0  0
  8 10  2  0  0  0  0
  8 16  1  0  0  0  0
  9 45  1  0  0  0  0
 11 46  1  0  0  0  0
 12 47  1  0  0  0  0
 12 48  1  0  0  0  0
 12 49  1  0  0  0  0
 13 18  1  0  0  0  0
 13 14  1  0  0  0  0
 13 50  1  0  0  0  0
 13 51  1  0  0  0  0
 14 15  1  0  0  0  0
 14 16  1  0  0  0  0
 14 52  1  1  0  0  0
 15 17  2  0  0  0  0
 15 25  1  0  0  0  0
 16 53  1  0  0  0  0
 18 19  1  0  0  0  0
 18 54  1  0  0  0  0
 18 55  1  0  0  0  0
 19 20  1  0  0  0  0
 19 56  1  0  0  0  0
 19 57  1  0  0  0  0
 20 21  1  0  0  0  0
 20 58  1  0  0  0  0
 20 59  1  0  0  0  0
 21 60  1  0  0  0  0
 21 61  1  0  0  0  0
 21 62  1  0  0  0  0
 22 27  1  0  0  0  0
 22 28  1  0  0  0  0
 22 23  1  0  0  0  0
 22 63  1  0  0  0  0
 23 24  1  0  0  0  0
 23 25  1  0  0  0  0
 23 64  1  6  0  0  0
 24 26  2  0  0  0  0
 24 32  1  0  0  0  0
 25 65  1  0  0  0  0
 27 66  1  0  0  0  0
 27 67  1  0  0  0  0
 27 68  1  0  0  0  0
 28 69  1  0  0  0  0
 28 70  1  0  0  0  0
 28 71  1  0  0  0  0
 29 30  1  0  0  0  0
 29 72  1  0  0  0  0
 29 73  1  0  0  0  0
 29 74  1  0  0  0  0
 30 31  1  0  0  0  0
 30 32  1  0  0  0  0
 30 75  1  6  0  0  0
 31 33  2  0  0  0  0
 31 34  1  0  0  0  0
 32 76  1  0  0  0  0
 34 77  1  0  0  0  0
 34 78  1  0  0  0  0
 35 36  2  0  0  0  0
 35 37  1  0  0  0  0
 37 79  1  0  0  0  0
 37 80  1  0  0  0  0
 37 81  1  0  0  0  0
M  END
