pdbs/k9.pdb
 OpenBabel07281513493D

 84 83  0  0  1  0  0  0  0  0999 V2000
    0.1880    1.7780   -7.1100 C   0  0  0  0  0  0  0  0  0  0  0  0
    1.4920    0.9780   -6.9550 C   0  0  1  0  0  0  0  0  0  0  0  0
    1.7500    0.1840   -5.6770 C   0  0  0  0  0  0  0  0  0  0  0  0
    1.5070    0.0400   -8.1390 N   0  0  0  0  0  0  0  0  0  0  0  0
    2.7210   -0.5260   -5.5460 O   0  0  0  0  0  0  0  0  0  0  0  0
    2.3270    0.1150   -2.6360 C   0  0  0  0  0  0  0  0  0  0  0  0
    1.0070   -0.2860   -3.3370 C   0  0  1  0  0  0  0  0  0  0  0  0
   -0.2970   -0.0390   -2.5700 C   0  0  0  0  0  0  0  0  0  0  0  0
    0.8340    0.3270   -4.6680 N   0  0  0  0  0  0  0  0  0  0  0  0
   -1.3570   -0.2960   -3.0990 O   0  0  0  0  0  0  0  0  0  0  0  0
    5.5020   -1.7000   -1.4080 N   0  0  0  0  0  0  0  0  0  0  0  0
    6.6540   -1.5570   -0.8760 C   0  0  0  0  0  0  0  0  0  0  0  0
    7.4490   -2.5840   -0.7430 N   0  0  0  0  0  0  0  0  0  0  0  0
    7.0420   -0.4120   -0.4780 N   0  0  0  0  0  0  0  0  0  0  0  0
    3.2430   -1.0810   -2.2970 C   0  0  0  0  0  0  0  0  0  0  0  0
    4.5520   -0.6020   -1.6480 C   0  0  0  0  0  0  0  0  0  0  0  0
   -2.0500   -0.6910   -0.0920 C   0  0  0  0  0  0  0  0  0  0  0  0
   -1.3110    0.6310   -0.3820 C   0  0  1  0  0  0  0  0  0  0  0  0
   -0.7520    1.4180    0.8090 C   0  0  0  0  0  0  0  0  0  0  0  0
   -0.1840    0.4650   -1.3050 N   0  0  0  0  0  0  0  0  0  0  0  0
   -0.0920    2.4100    0.6140 O   0  0  0  0  0  0  0  0  0  0  0  0
   -3.5300   -0.6020   -0.5070 C   0  0  0  0  0  0  0  0  0  0  0  0
   -4.2810   -1.9100   -0.2310 C   0  0  0  0  0  0  0  0  0  0  0  0
   -5.7370   -1.8500   -0.7010 C   0  0  0  0  0  0  0  0  0  0  0  0
   -6.3580   -3.1240   -0.2040 N   0  0  0  0  0  0  0  0  0  0  0  0
   -1.3120    3.0180    3.4280 C   0  0  0  0  0  0  0  0  0  0  0  0
   -0.7060    1.6080    3.3070 C   0  0  1  0  0  0  0  0  0  0  0  0
   -1.0710    0.5730    4.3740 C   0  0  0  0  0  0  0  0  0  0  0  0
   -1.0420    0.9320    2.0500 N   0  0  0  0  0  0  0  0  0  0  0  0
   -0.6990   -0.5660    4.2510 O   0  0  0  0  0  0  0  0  0  0  0  0
   -0.2690    3.9700    3.5250 O   0  0  0  0  0  0  0  0  0  0  0  0
   -0.9190   -0.0920    7.4250 C   0  0  2  0  0  0  0  0  0  0  0  0
   -2.1600    0.2190    6.5780 C   0  0  1  0  0  0  0  0  0  0  0  0
   -3.2750    1.0410    7.1970 C   0  0  0  0  0  0  0  0  0  0  0  0
   -1.8270    1.0220    5.4050 N   0  0  0  0  0  0  0  0  0  0  0  0
   -4.3700    1.0240    6.5950 O   0  0  0  0  0  0  0  0  0  0  0  0
   -1.2530   -0.4800    8.7390 O   0  0  0  0  0  0  0  0  0  0  0  0
    0.1360    1.0070    7.4860 C   0  0  0  0  0  0  0  0  0  0  0  0
   -3.0010    1.7770    8.1740 O   0  0  0  0  0  0  0  0  0  0  0  0
    0.4130    2.8530   -7.3120 H   0  0  0  0  0  0  0  0  0  0  0  0
   -0.4330    1.4150   -7.9610 H   0  0  0  0  0  0  0  0  0  0  0  0
   -0.4630    1.7510   -6.2090 H   0  0  0  0  0  0  0  0  0  0  0  0
    2.3730    1.6590   -7.0670 H   0  0  0  0  0  0  0  0  0  0  0  0
    2.4070   -0.4900   -8.1560 H   0  0  0  0  0  0  0  0  0  0  0  0
    1.4040    0.5920   -9.0210 H   0  0  0  0  0  0  0  0  0  0  0  0
    0.7110   -0.6300   -8.0510 H   0  0  0  0  0  0  0  0  0  0  0  0
    2.8810    0.8320   -3.2870 H   0  0  0  0  0  0  0  0  0  0  0  0
    2.1530    0.6860   -1.6970 H   0  0  0  0  0  0  0  0  0  0  0  0
    1.0100   -1.3960   -3.4950 H   0  0  0  0  0  0  0  0  0  0  0  0
   -0.0630    0.7860   -4.8370 H   0  0  0  0  0  0  0  0  0  0  0  0
    5.2760   -2.6520   -1.7890 H   0  0  0  0  0  0  0  0  0  0  0  0
    8.3790   -2.4730   -0.3170 H   0  0  0  0  0  0  0  0  0  0  0  0
    7.1650   -3.5110   -1.0550 H   0  0  0  0  0  0  0  0  0  0  0  0
    7.9730   -0.2950   -0.0170 H   0  0  0  0  0  0  0  0  0  0  0  0
    6.4500    0.4420   -0.6030 H   0  0  0  0  0  0  0  0  0  0  0  0
    2.7150   -1.7820   -1.6060 H   0  0  0  0  0  0  0  0  0  0  0  0
    3.4870   -1.6470   -3.2280 H   0  0  0  0  0  0  0  0  0  0  0  0
    4.3090   -0.1050   -0.6800 H   0  0  0  0  0  0  0  0  0  0  0  0
    5.0320    0.1500   -2.3180 H   0  0  0  0  0  0  0  0  0  0  0  0
   -1.5560   -1.5280   -0.6410 H   0  0  0  0  0  0  0  0  0  0  0  0
   -1.9940   -0.9940    0.9770 H   0  0  0  0  0  0  0  0  0  0  0  0
   -2.0170    1.3570   -0.8610 H   0  0  0  0  0  0  0  0  0  0  0  0
    0.6990    0.8580   -0.9810 H   0  0  0  0  0  0  0  0  0  0  0  0
   -4.0230    0.2280    0.0540 H   0  0  0  0  0  0  0  0  0  0  0  0
   -3.6010   -0.3680   -1.5970 H   0  0  0  0  0  0  0  0  0  0  0  0
   -3.7650   -2.7540   -0.7480 H   0  0  0  0  0  0  0  0  0  0  0  0
   -4.2580   -2.1200    0.8640 H   0  0  0  0  0  0  0  0  0  0  0  0
   -6.2840   -0.9830   -0.2710 H   0  0  0  0  0  0  0  0  0  0  0  0
   -5.8040   -1.8000   -1.8110 H   0  0  0  0  0  0  0  0  0  0  0  0
   -7.3570   -3.1720   -0.5070 H   0  0  0  0  0  0  0  0  0  0  0  0
   -5.8320   -3.9260   -0.6180 H   0  0  0  0  0  0  0  0  0  0  0  0
   -6.2930   -3.1670    0.8370 H   0  0  0  0  0  0  0  0  0  0  0  0
   -1.9260    3.2840    2.5380 H   0  0  0  0  0  0  0  0  0  0  0  0
   -1.9450    3.1810    4.3260 H   0  0  0  0  0  0  0  0  0  0  0  0
    0.4090    1.6750    3.3690 H   0  0  0  0  0  0  0  0  0  0  0  0
   -1.4090   -0.0110    2.1630 H   0  0  0  0  0  0  0  0  0  0  0  0
   -0.6210    4.8550    3.4400 H   0  0  0  0  0  0  0  0  0  0  0  0
   -0.4160   -0.9860    6.9850 H   0  0  0  0  0  0  0  0  0  0  0  0
   -2.6350   -0.7420    6.2650 H   0  0  0  0  0  0  0  0  0  0  0  0
   -2.2170    1.9600    5.3670 H   0  0  0  0  0  0  0  0  0  0  0  0
   -0.4370   -0.5380    9.2410 H   0  0  0  0  0  0  0  0  0  0  0  0
    0.9780    0.7130    8.1500 H   0  0  0  0  0  0  0  0  0  0  0  0
    0.5810    1.1920    6.4840 H   0  0  0  0  0  0  0  0  0  0  0  0
   -0.2780    1.9640    7.8630 H   0  0  0  0  0  0  0  0  0  0  0  0
  1  2  1  0  0  0  0
  1 40  1  0  0  0  0
  1 41  1  0  0  0  0
  1 42  1  0  0  0  0
  2  4  1  0  0  0  0
  2  3  1  0  0  0  0
  2 43  1  6  0  0  0
  3  9  1  0  0  0  0
  3  5  2  0  0  0  0
  4 44  1  0  0  0  0
  4 45  1  0  0  0  0
  4 46  1  0  0  0  0
  6 15  1  0  0  0  0
  6  7  1  0  0  0  0
  6 47  1  0  0  0  0
  6 48  1  0  0  0  0
  7  8  1  0  0  0  0
  7  9  1  0  0  0  0
  7 49  1  6  0  0  0
  8 20  1  0  0  0  0
  8 10  2  0  0  0  0
  9 50  1  0  0  0  0
 11 16  1  0  0  0  0
 11 12  1  0  0  0  0
 11 51  1  0  0  0  0
 12 14  2  0  0  0  0
 12 13  1  0  0  0  0
 13 52  1  0  0  0  0
 13 53  1  0  0  0  0
 14 54  1  0  0  0  0
 14 55  1  0  0  0  0
 15 16  1  0  0  0  0
 15 56  1  0  0  0  0
 15 57  1  0  0  0  0
 16 58  1  0  0  0  0
 16 59  1  0  0  0  0
 17 18  1  0  0  0  0
 17 22  1  0  0  0  0
 17 60  1  0  0  0  0
 17 61  1  0  0  0  0
 18 20  1  0  0  0  0
 18 19  1  0  0  0  0
 18 62  1  6  0  0  0
 19 29  1  0  0  0  0
 19 21  2  0  0  0  0
 20 63  1  0  0  0  0
 22 23  1  0  0  0  0
 22 64  1  0  0  0  0
 22 65  1  0  0  0  0
 23 24  1  0  0  0  0
 23 66  1  0  0  0  0
 23 67  1  0  0  0  0
 24 25  1  0  0  0  0
 24 68  1  0  0  0  0
 24 69  1  0  0  0  0
 25 70  1  0  0  0  0
 25 71  1  0  0  0  0
 25 72  1  0  0  0  0
 26 27  1  0  0  0  0
 26 31  1  0  0  0  0
 26 73  1  0  0  0  0
 26 74  1  0  0  0  0
 27 29  1  0  0  0  0
 27 28  1  0  0  0  0
 27 75  1  1  0  0  0
 28 35  1  0  0  0  0
 28 30  2  0  0  0  0
 29 76  1  0  0  0  0
 31 77  1  0  0  0  0
 32 38  1  0  0  0  0
 32 37  1  0  0  0  0
 32 33  1  0  0  0  0
 32 78  1  6  0  0  0
 33 34  1  0  0  0  0
 33 35  1  0  0  0  0
 33 79  1  6  0  0  0
 34 39  2  0  0  0  0
 34 36  1  0  0  0  0
 35 80  1  0  0  0  0
 37 81  1  0  0  0  0
 38 82  1  0  0  0  0
 38 83  1  0  0  0  0
 38 84  1  0  0  0  0
M  END
