pdbs/k9m.pdb
 OpenBabel07281513493D

 90 89  0  0  1  0  0  0  0  0999 V2000
   -0.7870   -0.3840   -3.8270 C   0  0  0  0  0  0  0  0  0  0  0  0
   -3.3180    1.7760   -7.9050 H   0  0  0  0  0  0  0  0  0  0  0  0
   -3.3170   -0.0210   -7.6890 H   0  0  0  0  0  0  0  0  0  0  0  0
   -1.8420    0.8200   -8.2980 H   0  0  0  0  0  0  0  0  0  0  0  0
   -3.9780   -2.5100   -1.6990 H   0  0  0  0  0  0  0  0  0  0  0  0
   -4.9320   -2.4310   -0.2280 H   0  0  0  0  0  0  0  0  0  0  0  0
   -4.8180   -2.1200    3.4950 H   0  0  0  0  0  0  0  0  0  0  0  0
   -6.3780   -1.5580    2.8020 H   0  0  0  0  0  0  0  0  0  0  0  0
   -5.4390   -2.8430    1.9620 H   0  0  0  0  0  0  0  0  0  0  0  0
   -4.3610    1.0980    1.9680 H   0  0  0  0  0  0  0  0  0  0  0  0
   -1.2970   -0.7610    2.2480 H   0  0  0  0  0  0  0  0  0  0  0  0
   -2.9640   -2.2510    1.8830 H   0  0  0  0  0  0  0  0  0  0  0  0
   -5.1930   -0.5460    0.8390 H   0  0  0  0  0  0  0  0  0  0  0  0
   -0.1250    1.2130    5.0260 H   0  0  0  0  0  0  0  0  0  0  0  0
   -1.5480    3.6180    1.1630 H   0  0  0  0  0  0  0  0  0  0  0  0
   -0.0270    1.0310    1.6920 H   0  0  0  0  0  0  0  0  0  0  0  0
   -1.9690    1.6150    3.8330 H   0  0  0  0  0  0  0  0  0  0  0  0
   -0.8310    3.0060    3.6830 H   0  0  0  0  0  0  0  0  0  0  0  0
    5.4600    0.3020    5.2110 H   0  0  0  0  0  0  0  0  0  0  0  0
    3.9150    0.3460    5.9430 H   0  0  0  0  0  0  0  0  0  0  0  0
    4.7070   -1.1480    5.7110 H   0  0  0  0  0  0  0  0  0  0  0  0
    2.9730   -0.9540    4.0620 H   0  0  0  0  0  0  0  0  0  0  0  0
    4.6000   -0.8620    3.2670 H   0  0  0  0  0  0  0  0  0  0  0  0
    4.4940    1.6940    3.4270 H   0  0  0  0  0  0  0  0  0  0  0  0
    2.8780    1.5470    4.1990 H   0  0  0  0  0  0  0  0  0  0  0  0
    2.0960    0.3000    2.0610 H   0  0  0  0  0  0  0  0  0  0  0  0
    3.6640    0.7490    1.3070 H   0  0  0  0  0  0  0  0  0  0  0  0
    2.9730    3.7950   -0.5460 H   0  0  0  0  0  0  0  0  0  0  0  0
    1.1520    1.4580    0.0840 H   0  0  0  0  0  0  0  0  0  0  0  0
    1.6460    2.7510    2.5160 H   0  0  0  0  0  0  0  0  0  0  0  0
    3.1360    3.1960    1.6670 H   0  0  0  0  0  0  0  0  0  0  0  0
    2.5760   -2.7690   -0.7070 H   0  0  0  0  0  0  0  0  0  0  0  0
    2.1930   -1.7150    0.7190 H   0  0  0  0  0  0  0  0  0  0  0  0
    0.4820   -0.4960   -0.6620 H   0  0  0  0  0  0  0  0  0  0  0  0
    0.8760   -1.5640   -2.0710 H   0  0  0  0  0  0  0  0  0  0  0  0
    0.7020   -3.5860    2.9600 H   0  0  0  0  0  0  0  0  0  0  0  0
   -0.9470   -3.5360    2.2050 H   0  0  0  0  0  0  0  0  0  0  0  0
    1.0880   -5.8190    1.4360 H   0  0  0  0  0  0  0  0  0  0  0  0
    1.5000   -5.3060   -0.1970 H   0  0  0  0  0  0  0  0  0  0  0  0
   -0.3350   -2.7220   -0.3110 H   0  0  0  0  0  0  0  0  0  0  0  0
    3.0680    1.0620   -4.0990 H   0  0  0  0  0  0  0  0  0  0  0  0
    0.7540    1.3880   -2.1810 H   0  0  0  0  0  0  0  0  0  0  0  0
    3.1350   -0.6040   -2.2500 H   0  0  0  0  0  0  0  0  0  0  0  0
    2.9590    0.2550   -0.7270 H   0  0  0  0  0  0  0  0  0  0  0  0
   -0.3230    0.5700   -6.7450 H   0  0  0  0  0  0  0  0  0  0  0  0
   -0.5560    1.7920   -4.1200 H   0  0  0  0  0  0  0  0  0  0  0  0
   -0.2280   -1.3070   -4.1000 H   0  0  0  0  0  0  0  0  0  0  0  0
   -1.8620   -0.6050   -4.0060 H   0  0  0  0  0  0  0  0  0  0  0  0
   -0.7150   -0.2020   -2.7360 H   0  0  0  0  0  0  0  0  0  0  0  0
   -2.9950    1.3700   -5.2620 O   0  0  0  0  0  0  0  0  0  0  0  0
   -2.7020    0.9020   -7.5960 C   0  0  0  0  0  0  0  0  0  0  0  0
   -2.2480    1.0640   -6.1570 C   0  0  0  0  0  0  0  0  0  0  0  0
   -4.0710   -2.2580   -0.7260 N   0  0  0  0  0  0  0  0  0  0  0  0
   -5.3490   -1.8940    2.5400 C   0  0  0  0  0  0  0  0  0  0  0  0
   -4.5440    0.3400    2.5330 O   0  0  0  0  0  0  0  0  0  0  0  0
   -1.9810   -1.4670   -0.7290 O   0  0  0  0  0  0  0  0  0  0  0  0
   -2.1050   -0.3840    1.7530 N   0  0  0  0  0  0  0  0  0  0  0  0
   -3.0070   -1.6590   -0.1280 C   0  0  0  0  0  0  0  0  0  0  0  0
   -3.1850   -1.2940    1.3470 C   0  0  2  0  0  0  0  0  0  0  0  0
   -4.6000   -0.8260    1.7410 C   0  0  1  0  0  0  0  0  0  0  0  0
    0.0130    1.1940    4.0780 O   0  0  0  0  0  0  0  0  0  0  0  0
   -2.9800    1.4450    0.7590 O   0  0  0  0  0  0  0  0  0  0  0  0
   -0.7480    2.9820    1.1650 N   0  0  0  0  0  0  0  0  0  0  0  0
   -2.0910    0.9340    1.3940 C   0  0  0  0  0  0  0  0  0  0  0  0
   -0.8820    1.7090    1.8990 C   0  0  2  0  0  0  0  0  0  0  0  0
   -0.9930    1.9400    3.4100 C   0  0  0  0  0  0  0  0  0  0  0  0
    4.5470   -0.1960    5.3110 N   0  0  0  0  0  0  0  0  0  0  0  0
    3.8990   -0.3420    3.9590 C   0  0  0  0  0  0  0  0  0  0  0  0
    3.5680    1.0720    3.4620 C   0  0  0  0  0  0  0  0  0  0  0  0
    2.9110    1.0610    2.0670 C   0  0  0  0  0  0  0  0  0  0  0  0
    0.3960    4.5190   -0.0100 O   0  0  0  0  0  0  0  0  0  0  0  0
    2.4570    2.9310   -0.7150 N   0  0  0  0  0  0  0  0  0  0  0  0
    0.3530    3.4120    0.4680 C   0  0  0  0  0  0  0  0  0  0  0  0
    1.5480    2.4580    0.3470 C   0  0  2  0  0  0  0  0  0  0  0  0
    2.3220    2.4320    1.6890 C   0  0  0  0  0  0  0  0  0  0  0  0
    1.7810   -2.1580   -0.2180 C   0  0  0  0  0  0  0  0  0  0  0  0
    1.2980   -1.0580   -1.1730 C   0  0  0  0  0  0  0  0  0  0  0  0
    0.0930   -3.6320    2.1060 N   0  0  0  0  0  0  0  0  0  0  0  0
    1.0810   -5.0850    0.7150 N   0  0  0  0  0  0  0  0  0  0  0  0
    0.5950   -3.9030    0.9740 C   0  0  0  0  0  0  0  0  0  0  0  0
    0.5980   -2.9970    0.0890 N   0  0  0  0  0  0  0  0  0  0  0  0
    3.4800    2.8590   -2.6960 O   0  0  0  0  0  0  0  0  0  0  0  0
    2.0890    0.9830   -3.8190 N   0  0  0  0  0  0  0  0  0  0  0  0
    2.6440    2.3940   -1.9620 C   0  0  0  0  0  0  0  0  0  0  0  0
    1.8230    1.1620   -2.3800 C   0  0  2  0  0  0  0  0  0  0  0  0
    2.3820   -0.0710   -1.6210 C   0  0  0  0  0  0  0  0  0  0  0  0
    1.6800    0.7090   -5.9770 O   0  0  0  0  0  0  0  0  0  0  0  0
   -0.9210    0.8100   -5.9520 N   0  0  0  0  0  0  0  0  0  0  0  0
    1.2230    0.8310   -4.8670 C   0  0  0  0  0  0  0  0  0  0  0  0
   -0.2890    0.8320   -4.6220 C   0  0  2  0  0  0  0  0  0  0  0  0
  1 47  1  0  0  0  0
  1 48  1  0  0  0  0
  1 49  1  0  0  0  0
  1 90  1  0  0  0  0
  2 51  1  0  0  0  0
  3 51  1  0  0  0  0
  4 51  1  0  0  0  0
  5 53  1  0  0  0  0
  6 53  1  0  0  0  0
  7 54  1  0  0  0  0
  8 54  1  0  0  0  0
  9 54  1  0  0  0  0
 10 55  1  0  0  0  0
 11 57  1  0  0  0  0
 14 61  1  0  0  0  0
 15 63  1  0  0  0  0
 17 66  1  0  0  0  0
 18 66  1  0  0  0  0
 19 67  1  0  0  0  0
 20 67  1  0  0  0  0
 21 67  1  0  0  0  0
 22 68  1  0  0  0  0
 23 68  1  0  0  0  0
 24 69  1  0  0  0  0
 25 69  1  0  0  0  0
 26 70  1  0  0  0  0
 27 70  1  0  0  0  0
 28 72  1  0  0  0  0
 30 75  1  0  0  0  0
 31 75  1  0  0  0  0
 32 76  1  0  0  0  0
 33 76  1  0  0  0  0
 34 77  1  0  0  0  0
 35 77  1  0  0  0  0
 36 78  1  0  0  0  0
 37 78  1  0  0  0  0
 38 79  1  0  0  0  0
 39 79  1  0  0  0  0
 40 81  1  0  0  0  0
 41 83  1  0  0  0  0
 43 86  1  0  0  0  0
 44 86  1  0  0  0  0
 45 88  1  0  0  0  0
 50 52  2  0  0  0  0
 51 52  1  0  0  0  0
 52 88  1  0  0  0  0
 53 58  1  0  0  0  0
 54 60  1  0  0  0  0
 55 60  1  0  0  0  0
 56 58  2  0  0  0  0
 57 64  1  0  0  0  0
 57 59  1  0  0  0  0
 58 59  1  0  0  0  0
 59 12  1  1  0  0  0
 59 60  1  0  0  0  0
 60 13  1  6  0  0  0
 61 66  1  0  0  0  0
 62 64  2  0  0  0  0
 63 73  1  0  0  0  0
 63 65  1  0  0  0  0
 64 65  1  0  0  0  0
 65 16  1  6  0  0  0
 65 66  1  0  0  0  0
 67 68  1  0  0  0  0
 68 69  1  0  0  0  0
 69 70  1  0  0  0  0
 70 75  1  0  0  0  0
 71 73  2  0  0  0  0
 72 84  1  0  0  0  0
 72 74  1  0  0  0  0
 73 74  1  0  0  0  0
 74 29  1  6  0  0  0
 74 75  1  0  0  0  0
 76 81  1  0  0  0  0
 76 77  1  0  0  0  0
 77 86  1  0  0  0  0
 78 80  2  0  0  0  0
 79 80  1  0  0  0  0
 80 81  1  0  0  0  0
 82 84  2  0  0  0  0
 83 89  1  0  0  0  0
 83 85  1  0  0  0  0
 84 85  1  0  0  0  0
 85 42  1  1  0  0  0
 85 86  1  0  0  0  0
 87 89  2  0  0  0  0
 88 90  1  0  0  0  0
 89 90  1  0  0  0  0
 90 46  1  1  0  0  0
M  END
