pdbs/k9sd.pdb
 OpenBabel07281513493D

 90 89  0  0  1  0  0  0  0  0999 V2000
   -5.1580   -1.4610   -6.6070 H   0  0  0  0  0  0  0  0  0  0  0  0
    0.1280   -1.6680   -6.3100 C   0  0  0  0  0  0  0  0  0  0  0  0
   -0.7580   -1.5040   -5.0660 C   0  0  1  0  0  0  0  0  0  0  0  0
   -0.0810   -0.5530   -4.1070 C   0  0  0  0  0  0  0  0  0  0  0  0
   -2.0560   -0.9130   -5.4110 N   0  0  0  0  0  0  0  0  0  0  0  0
    1.9140    1.2470   -2.8510 C   0  0  0  0  0  0  0  0  0  0  0  0
    1.3350    0.0370   -2.0950 C   0  0  1  0  0  0  0  0  0  0  0  0
    0.3670    0.4610   -1.0150 C   0  0  0  0  0  0  0  0  0  0  0  0
    0.6220   -0.9260   -3.0260 C   0  0  0  0  0  0  0  0  0  0  0  0
    4.6460    3.9080   -2.3830 N   0  0  0  0  0  0  0  0  0  0  0  0
    5.5750    4.4210   -3.0770 C   0  0  0  0  0  0  0  0  0  0  0  0
    5.3350    5.3540   -3.9580 N   0  0  0  0  0  0  0  0  0  0  0  0
    6.7560    4.0110   -2.8770 N   0  0  0  0  0  0  0  0  0  0  0  0
    3.0360    2.0060   -2.1240 C   0  0  0  0  0  0  0  0  0  0  0  0
    3.5000    3.1930   -2.9840 C   0  0  0  0  0  0  0  0  0  0  0  0
   -1.4570    1.9330    0.8690 C   0  0  0  0  0  0  0  0  0  0  0  0
   -0.2580    1.0910    1.3600 C   0  0  1  0  0  0  0  0  0  0  0  0
   -0.6700   -0.2170    2.0060 C   0  0  0  0  0  0  0  0  0  0  0  0
    0.7160    0.7370    0.2510 C   0  0  0  0  0  0  0  0  0  0  0  0
   -2.0050    2.9550    1.8840 C   0  0  0  0  0  0  0  0  0  0  0  0
   -3.3610    3.5390    1.4450 C   0  0  0  0  0  0  0  0  0  0  0  0
   -3.8810    4.5890    2.4370 C   0  0  0  0  0  0  0  0  0  0  0  0
   -5.2560    4.9840    1.9750 N   0  0  0  0  0  0  0  0  0  0  0  0
   -2.6210   -2.5170    2.5620 C   0  0  0  0  0  0  0  0  0  0  0  0
   -1.8900   -1.7010    3.6330 C   0  0  1  0  0  0  0  0  0  0  0  0
   -0.6500   -2.3830    4.1660 C   0  0  0  0  0  0  0  0  0  0  0  0
   -1.5020   -0.3570    3.0490 C   0  0  0  0  0  0  0  0  0  0  0  0
   -3.4080   -3.5430    3.1340 O   0  0  0  0  0  0  0  0  0  0  0  0
    1.6720   -4.4350    3.9990 C   0  0  2  0  0  0  0  0  0  0  0  0
    0.6460   -4.3140    5.1390 C   0  0  1  0  0  0  0  0  0  0  0  0
    1.2120   -3.6260    6.3810 C   0  0  0  0  0  0  0  0  0  0  0  0
   -0.6200   -3.6240    4.6740 C   0  0  0  0  0  0  0  0  0  0  0  0
    0.7960   -2.6010    6.8550 O   0  0  0  0  0  0  0  0  0  0  0  0
    1.0160   -4.3690    2.7520 O   0  0  0  0  0  0  0  0  0  0  0  0
    2.4620   -5.7420    4.0230 C   0  0  0  0  0  0  0  0  0  0  0  0
    2.2620   -4.2630    6.9620 N   0  0  0  0  0  0  0  0  0  0  0  0
   -3.1370   -1.6530   -5.8090 C   0  0  0  0  0  0  0  0  0  0  0  0
   -4.3500   -0.8230   -6.1830 C   0  0  0  0  0  0  0  0  0  0  0  0
   -3.1270   -2.8580   -5.8600 O   0  0  0  0  0  0  0  0  0  0  0  0
   -0.3720   -2.2940   -7.0830 H   0  0  0  0  0  0  0  0  0  0  0  0
    0.3590   -0.6800   -6.7720 H   0  0  0  0  0  0  0  0  0  0  0  0
    1.0950   -2.1580   -6.0520 H   0  0  0  0  0  0  0  0  0  0  0  0
   -0.8980   -2.4930   -4.5680 H   0  0  0  0  0  0  0  0  0  0  0  0
   -0.1540    0.5160   -4.3640 H   0  0  0  0  0  0  0  0  0  0  0  0
   -2.1320    0.1040   -5.4200 H   0  0  0  0  0  0  0  0  0  0  0  0
    1.0950    1.9650   -3.0950 H   0  0  0  0  0  0  0  0  0  0  0  0
    2.3530    0.8810   -3.8130 H   0  0  0  0  0  0  0  0  0  0  0  0
    2.1960   -0.5150   -1.6420 H   0  0  0  0  0  0  0  0  0  0  0  0
   -0.6900    0.5520   -1.3160 H   0  0  0  0  0  0  0  0  0  0  0  0
    0.6830   -1.9980   -2.7750 H   0  0  0  0  0  0  0  0  0  0  0  0
    4.7540    3.9410   -1.3380 H   0  0  0  0  0  0  0  0  0  0  0  0
    4.3780    5.6940   -4.1170 H   0  0  0  0  0  0  0  0  0  0  0  0
    6.0950    5.7740   -4.5100 H   0  0  0  0  0  0  0  0  0  0  0  0
    6.9390    2.9830   -2.7710 H   0  0  0  0  0  0  0  0  0  0  0  0
    7.5570    4.6890   -2.8610 H   0  0  0  0  0  0  0  0  0  0  0  0
    3.8970    1.3170   -1.9430 H   0  0  0  0  0  0  0  0  0  0  0  0
    2.6760    2.3740   -1.1340 H   0  0  0  0  0  0  0  0  0  0  0  0
    2.6620    3.9230   -3.0830 H   0  0  0  0  0  0  0  0  0  0  0  0
    3.7670    2.8370   -4.0080 H   0  0  0  0  0  0  0  0  0  0  0  0
   -1.1450    2.5410   -0.0150 H   0  0  0  0  0  0  0  0  0  0  0  0
   -2.2680    1.2500    0.5210 H   0  0  0  0  0  0  0  0  0  0  0  0
    0.3110    1.6970    2.1070 H   0  0  0  0  0  0  0  0  0  0  0  0
   -0.2450   -1.1400    1.5750 H   0  0  0  0  0  0  0  0  0  0  0  0
    1.7760    0.6240    0.5400 H   0  0  0  0  0  0  0  0  0  0  0  0
   -1.2640    3.7800    2.0120 H   0  0  0  0  0  0  0  0  0  0  0  0
   -2.1340    2.4940    2.8870 H   0  0  0  0  0  0  0  0  0  0  0  0
   -4.1040    2.7090    1.3660 H   0  0  0  0  0  0  0  0  0  0  0  0
   -3.2620    3.9990    0.4330 H   0  0  0  0  0  0  0  0  0  0  0  0
   -3.2220    5.4870    2.4520 H   0  0  0  0  0  0  0  0  0  0  0  0
   -3.9530    4.1720    3.4680 H   0  0  0  0  0  0  0  0  0  0  0  0
   -5.6410    5.7160    2.6150 H   0  0  0  0  0  0  0  0  0  0  0  0
   -5.8820    4.1480    1.9830 H   0  0  0  0  0  0  0  0  0  0  0  0
   -5.1990    5.3660    1.0040 H   0  0  0  0  0  0  0  0  0  0  0  0
   -3.3330   -1.8750    1.9950 H   0  0  0  0  0  0  0  0  0  0  0  0
   -1.9150   -2.9880    1.8440 H   0  0  0  0  0  0  0  0  0  0  0  0
   -2.5720   -1.5120    4.4970 H   0  0  0  0  0  0  0  0  0  0  0  0
    0.3020   -1.8250    4.1190 H   0  0  0  0  0  0  0  0  0  0  0  0
   -1.9500    0.5300    3.5180 H   0  0  0  0  0  0  0  0  0  0  0  0
   -3.7960   -4.0690    2.4310 H   0  0  0  0  0  0  0  0  0  0  0  0
    2.3680   -3.5630    4.0200 H   0  0  0  0  0  0  0  0  0  0  0  0
    0.3460   -5.3410    5.4610 H   0  0  0  0  0  0  0  0  0  0  0  0
   -1.5540   -4.2010    4.7460 H   0  0  0  0  0  0  0  0  0  0  0  0
    0.6150   -3.5030    2.6470 H   0  0  0  0  0  0  0  0  0  0  0  0
    3.0440   -5.8630    4.9620 H   0  0  0  0  0  0  0  0  0  0  0  0
    3.1880   -5.7850    3.1780 H   0  0  0  0  0  0  0  0  0  0  0  0
    1.7840   -6.6210    3.9230 H   0  0  0  0  0  0  0  0  0  0  0  0
    2.6240   -5.1310    6.5960 H   0  0  0  0  0  0  0  0  0  0  0  0
    2.6700   -3.8370    7.7820 H   0  0  0  0  0  0  0  0  0  0  0  0
   -4.7510   -0.3060   -5.2820 H   0  0  0  0  0  0  0  0  0  0  0  0
   -4.0800   -0.0590   -6.9480 H   0  0  0  0  0  0  0  0  0  0  0  0
  1 38  1  0  0  0  0
  2 40  1  0  0  0  0
  2  3  1  0  0  0  0
  2 41  1  0  0  0  0
  2 42  1  0  0  0  0
  3  5  1  0  0  0  0
  3  4  1  0  0  0  0
  3 43  1  1  0  0  0
  4  9  2  0  0  0  0
  4 44  1  0  0  0  0
  5 37  1  0  0  0  0
  5 45  1  0  0  0  0
  6  7  1  0  0  0  0
  6 14  1  0  0  0  0
  6 46  1  0  0  0  0
  6 47  1  0  0  0  0
  7  9  1  0  0  0  0
  7  8  1  0  0  0  0
  7 48  1  1  0  0  0
  8 19  2  0  0  0  0
  8 49  1  0  0  0  0
  9 50  1  0  0  0  0
 10 11  1  0  0  0  0
 10 51  1  0  0  0  0
 10 15  1  0  0  0  0
 11 12  2  0  0  0  0
 11 13  1  0  0  0  0
 12 52  1  0  0  0  0
 12 53  1  0  0  0  0
 13 55  1  0  0  0  0
 13 54  1  0  0  0  0
 14 56  1  0  0  0  0
 14 15  1  0  0  0  0
 14 57  1  0  0  0  0
 15 59  1  0  0  0  0
 15 58  1  0  0  0  0
 16 61  1  0  0  0  0
 16 20  1  0  0  0  0
 16 17  1  0  0  0  0
 16 60  1  0  0  0  0
 17 62  1  1  0  0  0
 17 19  1  0  0  0  0
 17 18  1  0  0  0  0
 18 27  2  0  0  0  0
 18 63  1  0  0  0  0
 19 64  1  0  0  0  0
 20 21  1  0  0  0  0
 20 65  1  0  0  0  0
 20 66  1  0  0  0  0
 21 22  1  0  0  0  0
 21 67  1  0  0  0  0
 21 68  1  0  0  0  0
 22 23  1  0  0  0  0
 22 69  1  0  0  0  0
 22 70  1  0  0  0  0
 23 71  1  0  0  0  0
 23 72  1  0  0  0  0
 23 73  1  0  0  0  0
 24 28  1  0  0  0  0
 24 25  1  0  0  0  0
 24 75  1  0  0  0  0
 24 74  1  0  0  0  0
 25 76  1  1  0  0  0
 25 26  1  0  0  0  0
 25 27  1  0  0  0  0
 26 77  1  0  0  0  0
 26 32  2  0  0  0  0
 27 78  1  0  0  0  0
 28 79  1  0  0  0  0
 29 30  1  0  0  0  0
 29 34  1  0  0  0  0
 29 80  1  1  0  0  0
 29 35  1  0  0  0  0
 30 81  1  1  0  0  0
 30 32  1  0  0  0  0
 30 31  1  0  0  0  0
 31 33  2  0  0  0  0
 31 36  1  0  0  0  0
 32 82  1  0  0  0  0
 34 83  1  0  0  0  0
 35 84  1  0  0  0  0
 35 85  1  0  0  0  0
 35 86  1  0  0  0  0
 36 87  1  0  0  0  0
 36 88  1  0  0  0  0
 37 38  1  0  0  0  0
 37 39  2  0  0  0  0
 38 89  1  0  0  0  0
 38 90  1  0  0  0  0
M  END
