pdbs/lys.pdb
 OpenBabel07281513493D

 25 24  0  0  1  0  0  0  0  0999 V2000
   -1.9140    2.4170   -0.3200 O   0  0  0  0  0  0  0  0  0  0  0  0
   -2.7020    1.5100    0.0080 C   0  0  0  0  0  0  0  0  0  0  0  0
   -2.2470    0.2050    0.5490 C   0  0  2  0  0  0  0  0  0  0  0  0
   -1.0350   -0.3880   -0.1810 C   0  0  0  0  0  0  0  0  0  0  0  0
    0.2880    0.1090    0.4260 C   0  0  0  0  0  0  0  0  0  0  0  0
    1.5210   -0.2370   -0.4300 C   0  0  0  0  0  0  0  0  0  0  0  0
    2.8260    0.0550    0.3290 C   0  0  0  0  0  0  0  0  0  0  0  0
    3.9640   -0.1970   -0.6230 N   0  0  0  0  0  0  0  0  0  0  0  0
   -3.4530   -0.6200    0.2600 N   0  0  0  0  0  0  0  0  0  0  0  0
   -3.9320    1.3750   -0.1650 O   0  0  0  0  0  0  0  0  0  0  0  0
   -2.0930    0.2540    1.6490 H   0  0  0  0  0  0  0  0  0  0  0  0
   -1.0600   -1.5020   -0.1150 H   0  0  0  0  0  0  0  0  0  0  0  0
   -1.0780   -0.1150   -1.2600 H   0  0  0  0  0  0  0  0  0  0  0  0
    0.2520    1.2160    0.5630 H   0  0  0  0  0  0  0  0  0  0  0  0
    0.3990   -0.3410    1.4410 H   0  0  0  0  0  0  0  0  0  0  0  0
    1.4920   -1.3170   -0.7120 H   0  0  0  0  0  0  0  0  0  0  0  0
    1.5010    0.3590   -1.3750 H   0  0  0  0  0  0  0  0  0  0  0  0
    2.8700    1.1140    0.6740 H   0  0  0  0  0  0  0  0  0  0  0  0
    2.9280   -0.6250    1.2090 H   0  0  0  0  0  0  0  0  0  0  0  0
    4.8710   -0.0650   -0.1190 H   0  0  0  0  0  0  0  0  0  0  0  0
    3.9030   -1.1770   -0.9840 H   0  0  0  0  0  0  0  0  0  0  0  0
    3.9040    0.4750   -1.4230 H   0  0  0  0  0  0  0  0  0  0  0  0
   -3.2420   -1.6100    0.5240 H   0  0  0  0  0  0  0  0  0  0  0  0
   -4.2690   -0.3010    0.8320 H   0  0  0  0  0  0  0  0  0  0  0  0
   -3.6920   -0.5950   -0.7570 H   0  0  0  0  0  0  0  0  0  0  0  0
  1  2  2  0  0  0  0
  2  3  1  0  0  0  0
  2 10  1  0  0  0  0
  3  4  1  0  0  0  0
  3  9  1  0  0  0  0
  3 11  1  1  0  0  0
  4  5  1  0  0  0  0
  4 12  1  0  0  0  0
  4 13  1  0  0  0  0
  5  6  1  0  0  0  0
  5 14  1  0  0  0  0
  5 15  1  0  0  0  0
  6  7  1  0  0  0  0
  6 16  1  0  0  0  0
  6 17  1  0  0  0  0
  7  8  1  0  0  0  0
  7 18  1  0  0  0  0
  7 19  1  0  0  0  0
  8 20  1  0  0  0  0
  8 21  1  0  0  0  0
  8 22  1  0  0  0  0
  9 23  1  0  0  0  0
  9 24  1  0  0  0  0
  9 25  1  0  0  0  0
M  END
