pdbs/lysma.pdb
 OpenBabel07281513493D

 35 34  0  0  1  0  0  0  0  0999 V2000
   -5.1220    1.4200    2.4330 H   0  0  0  0  0  0  0  0  0  0  0  0
   -3.7630    2.1290    3.3780 H   0  0  0  0  0  0  0  0  0  0  0  0
   -4.5390    0.5820    3.9220 H   0  0  0  0  0  0  0  0  0  0  0  0
    2.1990    1.9140   -5.5040 H   0  0  0  0  0  0  0  0  0  0  0  0
    3.1550    0.6810   -6.4080 H   0  0  0  0  0  0  0  0  0  0  0  0
    3.8370    1.4190   -4.9090 H   0  0  0  0  0  0  0  0  0  0  0  0
   -1.9510    0.3370    3.8600 H   0  0  0  0  0  0  0  0  0  0  0  0
    1.9850    1.3680   -3.0630 H   0  0  0  0  0  0  0  0  0  0  0  0
    0.2480   -0.8820   -2.7940 H   0  0  0  0  0  0  0  0  0  0  0  0
    1.8650   -1.3810   -2.1450 H   0  0  0  0  0  0  0  0  0  0  0  0
    1.8730    0.6210   -0.6130 H   0  0  0  0  0  0  0  0  0  0  0  0
    0.2840    1.1390   -1.2800 H   0  0  0  0  0  0  0  0  0  0  0  0
   -0.7360   -1.0420   -0.4810 H   0  0  0  0  0  0  0  0  0  0  0  0
    0.8420   -1.5020    0.2490 H   0  0  0  0  0  0  0  0  0  0  0  0
    0.7280    0.5680    1.7360 H   0  0  0  0  0  0  0  0  0  0  0  0
   -0.7980    1.0240    0.9450 H   0  0  0  0  0  0  0  0  0  0  0  0
   -1.4190   -1.6090    1.7860 H   0  0  0  0  0  0  0  0  0  0  0  0
    1.0070   -2.3590    2.0660 H   0  0  0  0  0  0  0  0  0  0  0  0
    1.4860   -2.4530    3.7530 H   0  0  0  0  0  0  0  0  0  0  0  0
   -3.4060    0.0700    1.0640 O   0  0  0  0  0  0  0  0  0  0  0  0
   -4.2170    1.1730    3.0340 C   0  0  0  0  0  0  0  0  0  0  0  0
   -3.2170    0.3840    2.2120 C   0  0  0  0  0  0  0  0  0  0  0  0
    2.1390   -1.1700   -4.9290 O   0  0  0  0  0  0  0  0  0  0  0  0
    2.9000    1.0570   -5.3910 C   0  0  0  0  0  0  0  0  0  0  0  0
    2.2670   -0.0330   -4.5470 C   0  0  0  0  0  0  0  0  0  0  0  0
   -0.2400   -0.8870    4.5490 O   0  0  0  0  0  0  0  0  0  0  0  0
   -2.0710    0.0610    2.8840 N   0  0  0  0  0  0  0  0  0  0  0  0
    1.8540    0.3880   -3.3140 N   0  0  0  0  0  0  0  0  0  0  0  0
    1.2030   -0.5090   -2.3540 C   0  0  0  0  0  0  0  0  0  0  0  0
    0.9150    0.2480   -1.0480 C   0  0  0  0  0  0  0  0  0  0  0  0
    0.1930   -0.6350   -0.0160 C   0  0  0  0  0  0  0  0  0  0  0  0
   -0.1850    0.1450    1.2550 C   0  0  0  0  0  0  0  0  0  0  0  0
   -0.9780   -0.7040    2.2690 C   0  0  1  0  0  0  0  0  0  0  0  0
   -0.0930   -1.2160    3.4000 C   0  0  0  0  0  0  0  0  0  0  0  0
    0.8840   -2.0850    3.0300 N   0  0  0  0  0  0  0  0  0  0  0  0
  1 21  1  0  0  0  0
  2 21  1  0  0  0  0
  3 21  1  0  0  0  0
  4 24  1  0  0  0  0
  5 24  1  0  0  0  0
  6 24  1  0  0  0  0
  7 27  1  0  0  0  0
  8 28  1  0  0  0  0
  9 29  1  0  0  0  0
 10 29  1  0  0  0  0
 11 30  1  0  0  0  0
 12 30  1  0  0  0  0
 13 31  1  0  0  0  0
 14 31  1  0  0  0  0
 15 32  1  0  0  0  0
 16 32  1  0  0  0  0
 18 35  1  0  0  0  0
 19 35  1  0  0  0  0
 20 22  2  0  0  0  0
 21 22  1  0  0  0  0
 22 27  1  0  0  0  0
 23 25  2  0  0  0  0
 24 25  1  0  0  0  0
 25 28  1  0  0  0  0
 26 34  2  0  0  0  0
 27 33  1  0  0  0  0
 28 29  1  0  0  0  0
 29 30  1  0  0  0  0
 30 31  1  0  0  0  0
 31 32  1  0  0  0  0
 32 33  1  0  0  0  0
 33 17  1  6  0  0  0
 33 34  1  0  0  0  0
 34 35  1  0  0  0  0
M  END
