pdbs/lysmtr.pdb
 OpenBabel07281513493D

 51 50  0  0  1  0  0  0  0  0999 V2000
   -4.2920    1.1650    4.2590 N   0  0  0  0  0  0  0  0  0  0  0  0
   -0.7960    2.1380    4.7860 N   0  0  0  0  0  0  0  0  0  0  0  0
   -0.5760    1.2410    5.2100 H   0  0  0  0  0  0  0  0  0  0  0  0
   -2.5400   -0.7360   -1.4860 H   0  0  0  0  0  0  0  0  0  0  0  0
   -1.5290   -2.0200   -2.1770 H   0  0  0  0  0  0  0  0  0  0  0  0
   -2.5330   -0.9760   -3.2080 H   0  0  0  0  0  0  0  0  0  0  0  0
   -1.1410    1.5260   -3.5080 H   0  0  0  0  0  0  0  0  0  0  0  0
    5.1740   -5.4390   -5.4960 H   0  0  0  0  0  0  0  0  0  0  0  0
    4.0160   -5.7730   -4.1900 H   0  0  0  0  0  0  0  0  0  0  0  0
    5.2560   -4.4980   -3.9890 H   0  0  0  0  0  0  0  0  0  0  0  0
    2.7350   -3.8340   -3.4380 H   0  0  0  0  0  0  0  0  0  0  0  0
    2.2850   -1.7070   -5.4330 H   0  0  0  0  0  0  0  0  0  0  0  0
    1.0250   -2.9460   -5.2850 H   0  0  0  0  0  0  0  0  0  0  0  0
    0.6790   -2.4030   -2.9100 H   0  0  0  0  0  0  0  0  0  0  0  0
    2.0480   -1.2760   -2.9230 H   0  0  0  0  0  0  0  0  0  0  0  0
    1.8970    3.7790    5.8460 H   0  0  0  0  0  0  0  0  0  0  0  0
    1.9000    2.1640    5.0990 H   0  0  0  0  0  0  0  0  0  0  0  0
    1.0710    2.4340    6.6620 H   0  0  0  0  0  0  0  0  0  0  0  0
    0.7280    0.9220   -1.4970 H   0  0  0  0  0  0  0  0  0  0  0  0
   -0.8710   -0.9750    0.1060 H   0  0  0  0  0  0  0  0  0  0  0  0
    0.6240   -0.2400    0.6030 H   0  0  0  0  0  0  0  0  0  0  0  0
   -0.3830    2.0570    0.3230 H   0  0  0  0  0  0  0  0  0  0  0  0
   -1.9420    1.3020   -0.0290 H   0  0  0  0  0  0  0  0  0  0  0  0
   -1.9020    0.1480    2.1750 H   0  0  0  0  0  0  0  0  0  0  0  0
   -0.3160    0.8400    2.5190 H   0  0  0  0  0  0  0  0  0  0  0  0
   -1.3470    3.1590    2.2940 H   0  0  0  0  0  0  0  0  0  0  0  0
   -2.9230    2.3970    2.1150 H   0  0  0  0  0  0  0  0  0  0  0  0
   -2.5540    3.1790    4.4420 H   0  0  0  0  0  0  0  0  0  0  0  0
   -4.7180    2.0230    3.9350 H   0  0  0  0  0  0  0  0  0  0  0  0
   -4.9000    0.4390    4.6200 H   0  0  0  0  0  0  0  0  0  0  0  0
    3.6340   -3.6800   -6.4730 O   0  0  0  0  0  0  0  0  0  0  0  0
   -1.8830   -0.9950   -2.3240 C   0  0  0  0  0  0  0  0  0  0  0  0
   -1.2980    1.3000   -2.5740 O   0  0  0  0  0  0  0  0  0  0  0  0
    4.5810   -4.9860   -4.6980 C   0  0  0  0  0  0  0  0  0  0  0  0
    3.6390   -3.9700   -5.2830 C   0  0  0  0  0  0  0  0  0  0  0  0
    2.8090   -3.3930   -4.3460 N   0  0  0  0  0  0  0  0  0  0  0  0
    1.8110   -2.4100   -4.7390 C   0  0  0  0  0  0  0  0  0  0  0  0
    1.2300   -1.6850   -3.5260 C   0  0  0  0  0  0  0  0  0  0  0  0
    0.1370   -0.3150   -4.0380 S   0  0  0  0  0  0  0  0  0  0  0  0
   -0.7390    0.0110   -2.4590 C   0  0  2  0  0  0  0  0  0  0  0  0
   -0.2020    4.3350    4.5330 O   0  0  0  0  0  0  0  0  0  0  0  0
    1.3090    2.8700    5.6880 C   0  0  0  0  0  0  0  0  0  0  0  0
    0.0430    3.2090    4.9520 C   0  0  0  0  0  0  0  0  0  0  0  0
   -2.5320    0.1070    5.1910 O   0  0  0  0  0  0  0  0  0  0  0  0
    0.2330    0.0390   -1.3930 N   0  0  0  0  0  0  0  0  0  0  0  0
   -0.2600   -0.0750   -0.0250 C   0  0  0  0  0  0  0  0  0  0  0  0
   -0.9930    1.1630    0.5000 C   0  0  0  0  0  0  0  0  0  0  0  0
   -1.2650    1.0240    2.0020 C   0  0  0  0  0  0  0  0  0  0  0  0
   -1.9360    2.2780    2.5780 C   0  0  0  0  0  0  0  0  0  0  0  0
   -2.0820    2.2460    4.1090 C   0  0  1  0  0  0  0  0  0  0  0  0
   -2.9690    1.0820    4.5800 C   0  0  0  0  0  0  0  0  0  0  0  0
  1 51  1  0  0  0  0
  1 30  1  0  0  0  0
  1 29  1  0  0  0  0
  2 43  1  0  0  0  0
  2  3  1  0  0  0  0
  2 50  1  0  0  0  0
  4 32  1  0  0  0  0
  5 32  1  0  0  0  0
  6 32  1  0  0  0  0
  7 33  1  0  0  0  0
  8 34  1  0  0  0  0
  9 34  1  0  0  0  0
 10 34  1  0  0  0  0
 11 36  1  0  0  0  0
 12 37  1  0  0  0  0
 13 37  1  0  0  0  0
 14 38  1  0  0  0  0
 15 38  1  0  0  0  0
 16 42  1  0  0  0  0
 17 42  1  0  0  0  0
 18 42  1  0  0  0  0
 19 45  1  0  0  0  0
 20 46  1  0  0  0  0
 21 46  1  0  0  0  0
 22 47  1  0  0  0  0
 23 47  1  0  0  0  0
 24 48  1  0  0  0  0
 25 48  1  0  0  0  0
 26 49  1  0  0  0  0
 27 49  1  0  0  0  0
 31 35  2  0  0  0  0
 33 40  1  0  0  0  0
 34 35  1  0  0  0  0
 35 36  1  0  0  0  0
 36 37  1  0  0  0  0
 37 38  1  0  0  0  0
 38 39  1  0  0  0  0
 39 40  1  0  0  0  0
 40 32  1  1  0  0  0
 40 45  1  0  0  0  0
 41 43  2  0  0  0  0
 42 43  1  0  0  0  0
 44 51  2  0  0  0  0
 45 46  1  0  0  0  0
 46 47  1  0  0  0  0
 47 48  1  0  0  0  0
 48 49  1  0  0  0  0
 49 50  1  0  0  0  0
 50 28  1  1  0  0  0
 50 51  1  0  0  0  0
M  END
