pdbs/lysm.pdb
 OpenBabel07281513493D

 31 30  0  0  1  0  0  0  0  0999 V2000
    0.6160    1.2340   -1.6610 H   0  0  0  0  0  0  0  0  0  0  0  0
   -0.2260   -1.0670   -1.0220 H   0  0  0  0  0  0  0  0  0  0  0  0
    1.4330   -1.5890   -0.6530 H   0  0  0  0  0  0  0  0  0  0  0  0
    1.6680   -0.1200    1.2050 H   0  0  0  0  0  0  0  0  0  0  0  0
    0.3830    0.9730    0.7160 H   0  0  0  0  0  0  0  0  0  0  0  0
   -0.6480   -1.8340    1.1610 H   0  0  0  0  0  0  0  0  0  0  0  0
    1.7310   -2.2900    2.0760 H   0  0  0  0  0  0  0  0  0  0  0  0
    1.7340   -2.2780    3.8340 H   0  0  0  0  0  0  0  0  0  0  0  0
   -2.0180    0.6090   -0.2290 O   0  0  0  0  0  0  0  0  0  0  0  0
   -3.6240    1.1700    1.4570 C   0  0  0  0  0  0  0  0  0  0  0  0
   -2.3520    0.5360    0.9260 C   0  0  0  0  0  0  0  0  0  0  0  0
   -0.2920   -0.8830    4.0290 O   0  0  0  0  0  0  0  0  0  0  0  0
   -1.6250   -0.1220    1.8810 N   0  0  0  0  0  0  0  0  0  0  0  0
    1.6390    0.8970   -4.0170 N   0  0  0  0  0  0  0  0  0  0  0  0
    1.2690   -0.2400   -3.1110 C   0  0  0  0  0  0  0  0  0  0  0  0
    1.2750    0.3330   -1.6890 C   0  0  0  0  0  0  0  0  0  0  0  0
    0.7640   -0.6970   -0.6700 C   0  0  0  0  0  0  0  0  0  0  0  0
    0.6510   -0.1080    0.7490 C   0  0  0  0  0  0  0  0  0  0  0  0
   -0.3750   -0.8560    1.6260 C   0  0  1  0  0  0  0  0  0  0  0  0
    0.2060   -1.2280    2.9870 C   0  0  0  0  0  0  0  0  0  0  0  0
    1.3220   -2.0030    2.9530 N   0  0  0  0  0  0  0  0  0  0  0  0
    2.3040    0.6600   -1.4090 H   0  0  0  0  0  0  0  0  0  0  0  0
    2.0100   -1.0650   -3.2200 H   0  0  0  0  0  0  0  0  0  0  0  0
    0.2600   -0.6120   -3.3990 H   0  0  0  0  0  0  0  0  0  0  0  0
    1.6550    0.5630   -5.0070 H   0  0  0  0  0  0  0  0  0  0  0  0
    0.9400    1.6670   -3.9190 H   0  0  0  0  0  0  0  0  0  0  0  0
    2.5860    1.2530   -3.7560 H   0  0  0  0  0  0  0  0  0  0  0  0
   -1.9620   -0.1310    2.8450 H   0  0  0  0  0  0  0  0  0  0  0  0
   -3.4250    1.7120    2.4100 H   0  0  0  0  0  0  0  0  0  0  0  0
   -4.0440    1.8990    0.7290 H   0  0  0  0  0  0  0  0  0  0  0  0
   -4.3870    0.3810    1.6460 H   0  0  0  0  0  0  0  0  0  0  0  0
  1 16  1  0  0  0  0
  2 17  1  0  0  0  0
  3 17  1  0  0  0  0
  4 18  1  0  0  0  0
  5 18  1  0  0  0  0
  7 21  1  0  0  0  0
  8 21  1  0  0  0  0
  9 11  2  0  0  0  0
 10 11  1  0  0  0  0
 10 29  1  0  0  0  0
 10 30  1  0  0  0  0
 10 31  1  0  0  0  0
 11 13  1  0  0  0  0
 12 20  2  0  0  0  0
 13 19  1  0  0  0  0
 13 28  1  0  0  0  0
 14 15  1  0  0  0  0
 14 25  1  0  0  0  0
 14 26  1  0  0  0  0
 14 27  1  0  0  0  0
 15 16  1  0  0  0  0
 15 23  1  0  0  0  0
 15 24  1  0  0  0  0
 16 17  1  0  0  0  0
 16 22  1  0  0  0  0
 17 18  1  0  0  0  0
 18 19  1  0  0  0  0
 19  6  1  6  0  0  0
 19 20  1  0  0  0  0
 20 21  1  0  0  0  0
M  END
