REMARK  11 active torsions:
REMARK  status: ('A' for Active; 'I' for Inactive)
REMARK    1  A    between atoms: C_1  and  O_26 
REMARK    2  A    between atoms: C_3  and  O_25 
REMARK    3  A    between atoms: C_8  and  O_12 
REMARK    4  A    between atoms: O_12  and  C_13 
REMARK    5  A    between atoms: C_13  and  C_14 
REMARK    6  A    between atoms: C_16  and  O_31 
REMARK    7  A    between atoms: C_17  and  O_32 
REMARK    8  A    between atoms: C_18  and  O_33 
REMARK    9  A    between atoms: C_21  and  O_28 
REMARK   10  A    between atoms: C_22  and  O_29 
REMARK   11  A    between atoms: C_23  and  O_30 
ROOT
HETATM    1  C           1      -3.037  -3.336   2.357  0.00  0.00     0.071 A 
HETATM    2  C           1      -2.253  -4.262   1.788  0.00  0.00     0.073 A 
HETATM    3  C           1      -1.182  -3.936   1.046  0.00  0.00     0.077 A 
HETATM    4  C           1      -0.888  -2.632   0.867  0.00  0.00     0.011 A 
HETATM    5  C           1      -1.646  -1.666   1.428  0.00  0.00     0.081 A 
HETATM    6  C           1      -2.714  -2.050   2.152  0.00  0.00     0.074 A 
HETATM    7  C           1       0.311  -2.241   0.032  0.00  0.00     0.080 C 
HETATM    8  C           1       0.727  -0.796   0.324  0.00  0.00     0.170 C 
HETATM    9  C           1      -0.529   0.066   0.239  0.00  0.00     0.192 C 
HETATM   10  O           1      -1.425  -0.323   1.253  0.00  0.00    -0.338 OA
HETATM   11  C           1      -1.157   0.140  -1.150  0.00  0.00    -0.021 A 
HETATM   12  C           1      -0.677   1.012  -2.055  0.00  0.00     0.049 A 
HETATM   13  C           1      -1.188   1.124  -3.291  0.00  0.00     0.102 A 
HETATM   14  C           1      -2.221   0.340  -3.643  0.00  0.00     0.132 A 
HETATM   15  C           1      -2.730  -0.539  -2.763  0.00  0.00     0.102 A 
HETATM   16  C           1      -2.196  -0.623  -1.534  0.00  0.00     0.049 A 
ENDROOT
BRANCH   8  17
HETATM   17  O           1       1.693  -0.442  -0.613  0.00  0.00    -0.309 OA
BRANCH  17  18
HETATM   18  C           1       2.557   0.636  -0.616  0.00  0.00     0.294 C 
HETATM   19  O           1       3.236   0.673  -1.632  0.00  0.00    -0.259 OA
BRANCH  18  20
HETATM   20  C           1       2.768   1.633   0.311  0.00  0.00     0.045 A 
HETATM   21  C           1       2.146   1.734   1.501  0.00  0.00     0.057 A 
HETATM   22  C           1       2.377   2.725   2.379  0.00  0.00     0.102 A 
HETATM   23  C           1       3.273   3.677   2.079  0.00  0.00     0.132 A 
HETATM   24  C           1       3.925   3.621   0.908  0.00  0.00     0.102 A 
HETATM   25  C           1       3.664   2.613   0.059  0.00  0.00     0.057 A 
BRANCH  22  26
HETATM   26  O           1       1.723   2.786   3.571  0.00  0.00    -0.358 OA
HETATM   27  H           1       2.029   3.572   4.052  0.00  0.00     0.217 HD
ENDBRANCH  22  26
BRANCH  23  28
HETATM   28  O           1       3.525   4.690   2.948  0.00  0.00    -0.356 OA
HETATM   29  H           1       4.195   5.276   2.560  0.00  0.00     0.218 HD
ENDBRANCH  23  28
BRANCH  24  30
HETATM   30  O           1       4.834   4.583   0.599  0.00  0.00    -0.358 OA
HETATM   31  H           1       5.211   4.415  -0.279  0.00  0.00     0.217 HD
ENDBRANCH  24  30
ENDBRANCH  18  20
ENDBRANCH  17  18
ENDBRANCH   8  17
BRANCH   3  32
HETATM   32  O           1      -0.434  -4.921   0.475  0.00  0.00    -0.360 OA
HETATM   33  H           1       0.245  -4.534  -0.098  0.00  0.00     0.217 HD
ENDBRANCH   3  32
BRANCH  13  34
HETATM   34  O           1      -0.687   2.013  -4.190  0.00  0.00    -0.358 OA
HETATM   35  H           1      -1.189   1.924  -5.018  0.00  0.00     0.217 HD
ENDBRANCH  13  34
BRANCH  15  36
HETATM   36  O           1      -3.779  -1.325  -3.122  0.00  0.00    -0.358 OA
HETATM   37  H           1      -4.049  -1.877  -2.372  0.00  0.00     0.217 HD
ENDBRANCH  15  36
BRANCH   1  38
HETATM   38  O           1      -4.122  -3.692   3.096  0.00  0.00    -0.361 OA
HETATM   39  H           1      -4.184  -4.661   3.119  0.00  0.00     0.217 HD
ENDBRANCH   1  38
BRANCH  14  40
HETATM   40  O           1      -2.759   0.433  -4.887  0.00  0.00    -0.356 OA
HETATM   41  H           1      -3.493  -0.199  -4.959  0.00  0.00     0.218 HD
ENDBRANCH  14  40
TORSDOF 11
