REMARK  5 active torsions:
REMARK  status: ('A' for Active; 'I' for Inactive)
REMARK    1  A    between atoms: C_5  and  C_7 
REMARK    2  A    between atoms: C_6  and  O_17 
REMARK       I    between atoms: C_7  and  N_8 
REMARK    3  A    between atoms: N_8  and  C_9 
REMARK    4  A    between atoms: C_15  and  C_20 
REMARK    5  A    between atoms: O_17  and  C_18 
ROOT
HETATM    1  C           1       0.337  -1.471   0.409  0.00  0.00     0.259 C 
HETATM    2  N           1      -0.356  -0.551  -0.321  0.00  0.00    -0.323 N 
HETATM    3  O           1      -0.250  -2.305   1.056  0.00  0.00    -0.267 OA
HETATM    4  H           1       0.134  -0.086  -1.067  0.00  0.00     0.169 HD
ENDROOT
BRANCH   2   5
HETATM    5  C           1      -1.643  -0.143  -0.309  0.00  0.00     0.035 A 
HETATM    6  C           1      -1.979   0.725  -1.279  0.00  0.00     0.030 A 
HETATM    7  C           1      -3.227   1.203  -1.368  0.00  0.00     0.011 A 
HETATM    8  C           1      -4.162   0.827  -0.482  0.00  0.00    -0.031 A 
HETATM    9  Cl          1      -5.749   1.492  -0.667  0.00  0.00     0.030 C 
HETATM   10  C           1      -3.860  -0.032   0.515  0.00  0.00     0.057 A 
HETATM   11  C           1      -2.594  -0.493   0.576  0.00  0.00     0.046 A 
BRANCH  10  12
HETATM   12  C           1      -4.885  -0.471   1.552  0.00  0.00     0.418 C 
HETATM   13  F           1      -5.905  -1.081   0.966  0.00  0.00    -0.166 F 
HETATM   14  F           1      -4.407  -1.302   2.465  0.00  0.00    -0.166 F 
HETATM   15  F           1      -5.368   0.579   2.199  0.00  0.00    -0.166 F 
ENDBRANCH  10  12
ENDBRANCH   2   5
BRANCH   1  16
HETATM   16  C           1       1.691  -1.496   0.208  0.00  0.00     0.065 A 
HETATM   17  C           1       2.328  -2.666   0.426  0.00  0.00     0.020 A 
HETATM   18  C           1       3.649  -2.799   0.243  0.00  0.00     0.001 A 
HETATM   19  C           1       4.356  -1.737  -0.155  0.00  0.00     0.003 A 
HETATM   20  C           1       3.730  -0.569  -0.351  0.00  0.00     0.038 A 
HETATM   21  C           1       2.398  -0.406  -0.194  0.00  0.00     0.084 A 
BRANCH  21  22
HETATM   22  O           1       1.793   0.822  -0.342  0.00  0.00    -0.350 OA
BRANCH  22  23
HETATM   23  C           1       2.560   1.993  -0.426  0.00  0.00     0.171 C 
HETATM   24  C           1       1.607   3.187  -0.436  0.00  0.00     0.034 C 
ENDBRANCH  22  23
ENDBRANCH  21  22
ENDBRANCH   1  16
TORSDOF 5
