REMARK  4 active torsions:
REMARK  status: ('A' for Active; 'I' for Inactive)
REMARK    1  A    between atoms: C_2  and  C_24 
REMARK    2  A    between atoms: C_9  and  C_12 
REMARK    3  A    between atoms: C_12  and  C_13 
REMARK    4  A    between atoms: C_23  and  N_29 
ROOT
HETATM    1  C           1       2.441  -0.117  -0.419  0.00  0.00     0.055 C 
ENDROOT
BRANCH   1   2
HETATM    2  C           1       2.466   1.220  -0.632  0.00  0.00     0.048 A 
HETATM    3  C           1       1.747   2.156   0.014  0.00  0.00     0.214 A 
HETATM    4  N           1       1.967   3.325  -0.478  0.00  0.00    -0.208 N 
HETATM    5  O           1       1.006   1.834   1.105  0.00  0.00    -0.169 OA
HETATM    6  C           1       1.422   4.456  -0.187  0.00  0.00     0.061 A 
HETATM    7  N           1       2.841   3.184  -1.356  0.00  0.00    -0.169 NA
HETATM    8  C           1       1.723   5.599  -0.846  0.00  0.00     0.033 A 
HETATM    9  C           1       0.488   4.634   0.772  0.00  0.00     0.033 A 
HETATM   10  C           1       1.162   6.791  -0.567  0.00  0.00     0.021 A 
HETATM   11  C           1       0.259   6.938   0.419  0.00  0.00     0.041 A 
HETATM   12  C           1      -0.074   5.817   1.078  0.00  0.00     0.021 A 
HETATM   13  C           1       3.183   1.970  -1.470  0.00  0.00     0.066 A 
HETATM   14  C           1       4.189   1.549  -2.500  0.00  0.00     0.073 C 
BRANCH  11  15
HETATM   15  C           1      -0.298   8.144   0.723  0.00  0.00     0.209 C 
HETATM   16  O           1       0.053   9.151   0.067  0.00  0.00    -0.644 OA
HETATM   17  O           1      -1.134   8.261   1.650  0.00  0.00    -0.644 OA
ENDBRANCH  11  15
ENDBRANCH   1   2
BRANCH   1  18
HETATM   18  C           1       1.263  -0.719  -0.152  0.00  0.00     0.077 C 
HETATM   19  O           1       0.932  -1.898   0.079  0.00  0.00    -0.310 OA
HETATM   20  C           1      -0.302  -2.084   0.049  0.00  0.00     0.088 C 
HETATM   21  C           1      -0.820  -0.918  -0.384  0.00  0.00     0.041 C 
HETATM   22  C           1      -1.031  -3.207   0.309  0.00  0.00     0.024 A 
HETATM   23  C           1       0.167  -0.052  -0.526  0.00  0.00     0.040 C 
HETATM   24  C           1      -0.533  -4.426   0.637  0.00  0.00     0.023 A 
HETATM   25  C           1      -2.382  -3.166   0.209  0.00  0.00     0.085 A 
HETATM   26  C           1      -1.293  -5.526   0.873  0.00  0.00    -0.055 A 
HETATM   27  C           1      -0.686  -6.880   1.205  0.00  0.00     0.049 C 
HETATM   28  C           1      -2.637  -5.429   0.805  0.00  0.00    -0.054 A 
HETATM   29  C           1      -3.629  -6.547   1.084  0.00  0.00     0.049 C 
HETATM   30  C           1      -3.148  -4.242   0.459  0.00  0.00     0.036 A 
BRANCH  25  31
HETATM   31  N           1      -2.951  -2.097  -0.124  0.00  0.00     0.036 NA
HETATM   32  O           1      -3.918  -2.264  -1.011  0.00  0.00    -0.084 OA
HETATM   33  O           1      -3.578  -1.570   0.908  0.00  0.00    -0.084 OA
ENDBRANCH  25  31
ENDBRANCH   1  18
TORSDOF 4
