REMARK  9 active torsions:
REMARK  status: ('A' for Active; 'I' for Inactive)
REMARK    1  A    between atoms: C_1  and  O_7 
REMARK    2  A    between atoms: C_2  and  O_8 
REMARK    3  A    between atoms: C_4  and  C_10 
REMARK    4  A    between atoms: C_10  and  C_11 
REMARK    5  A    between atoms: C_11  and  C_12 
REMARK    6  A    between atoms: C_22  and  O_25 
REMARK    7  A    between atoms: C_23  and  O_63 
REMARK    8  A    between atoms: C_42  and  O_57 
REMARK    9  A    between atoms: C_49  and  O_61 
ROOT
HETATM    1  C   UNN     0      -2.342   1.539  -2.302  0.00  0.00     0.142 C 
HETATM    2  C   UNN     0      -2.602   2.421  -1.072  0.00  0.00     0.112 C 
HETATM    3  O   UNN     0      -1.012   1.100  -2.303  0.00  0.00    -0.314 OA
HETATM    4  C   UNN     0      -1.622   3.562  -0.811  0.00  0.00     0.136 C 
HETATM    5  C   UNN     0      -1.821   4.336   0.493  0.00  0.00     0.074 C 
HETATM    6  O   UNN     0      -0.738   3.844  -1.587  0.00  0.00    -0.297 OA
HETATM    7  C   UNN     0      -1.778   3.384   1.668  0.00  0.00    -0.010 C 
HETATM    8  C   UNN     0      -2.810   2.940   2.413  0.00  0.00    -0.056 C 
HETATM    9  C   UNN     0      -0.787   5.456   0.708  0.00  0.00     0.022 C 
HETATM   10  C   UNN     0      -2.501   2.003   3.570  0.00  0.00     0.183 C 
HETATM   11  C   UNN     0      -3.634   1.366   4.383  0.00  0.00     0.223 C 
HETATM   12  C   UNN     0      -4.241   3.354   2.165  0.00  0.00     0.046 C 
HETATM   13  C   UNN     0      -4.396   0.253   3.636  0.00  0.00     0.162 C 
HETATM   14  O   UNN     0      -4.091  -0.039   2.501  0.00  0.00    -0.295 OA
HETATM   15  C   UNN     0      -5.571  -0.422   4.357  0.00  0.00     0.055 C 
HETATM   16  C   UNN     0      -6.157  -1.675   3.662  0.00  0.00     0.020 C 
HETATM   17  C   UNN     0      -0.603  -0.175  -2.041  0.00  0.00     0.282 C 
HETATM   18  O   UNN     0       0.362  -0.673  -2.584  0.00  0.00    -0.263 OA
HETATM   19  C   UNN     0      -1.297  -0.928  -0.892  0.00  0.00     0.187 C 
HETATM   20  C   UNN     0      -0.680  -0.440   0.444  0.00  0.00     0.035 C 
HETATM   21  C   UNN     0      -0.987  -1.447   1.560  0.00  0.00     0.004 C 
HETATM   22  C   UNN     0      -0.354  -2.812   1.244  0.00  0.00     0.020 C 
HETATM   23  C   UNN     0      -0.043  -2.937  -0.255  0.00  0.00     0.127 C 
HETATM   24  N   UNN     0      -1.156  -2.392  -1.030  0.00  0.00    -0.331 N 
HETATM   25  C   UNN     0      -2.027  -3.211  -1.719  0.00  0.00     0.296 C 
HETATM   26  O   UNN     0      -2.039  -4.399  -1.472  0.00  0.00    -0.264 OA
HETATM   27  C   UNN     0      -2.880  -2.733  -2.660  0.00  0.00     0.278 C 
HETATM   28  O   UNN     0      -2.852  -1.596  -3.076  0.00  0.00    -0.281 OA
HETATM   29  C   UNN     0      -4.012  -3.603  -3.255  0.00  0.00     0.238 C 
HETATM   30  C   UNN     0      -3.510  -4.648  -4.246  0.00  0.00     0.053 C 
HETATM   31  C   UNN     0      -4.675  -5.550  -4.684  0.00  0.00     0.013 C 
HETATM   32  C   UNN     0      -5.375  -6.112  -3.440  0.00  0.00     0.033 C 
HETATM   33  C   UNN     0      -5.816  -4.981  -2.512  0.00  0.00     0.128 C 
HETATM   34  O   UNN     0      -4.729  -4.166  -2.178  0.00  0.00    -0.343 OA
HETATM   35  C   UNN     0      -6.376  -5.497  -1.178  0.00  0.00     0.068 C 
HETATM   36  C   UNN     0      -7.826  -6.003  -1.203  0.00  0.00     0.151 C 
HETATM   37  C   UNN     0      -8.174  -6.710   0.105  0.00  0.00    -0.055 C 
HETATM   38  C   UNN     0      -7.937  -6.105   1.285  0.00  0.00     0.005 C 
HETATM   39  C   UNN     0      -8.138  -6.579   2.524  0.00  0.00     0.000 C 
HETATM   40  C   UNN     0      -7.814  -6.016   3.704  0.00  0.00    -0.000 C 
HETATM   41  C   UNN     0      -7.060  -4.956   4.054  0.00  0.00    -0.004 C 
HETATM   42  C   UNN     0      -6.274  -4.147   3.324  0.00  0.00    -0.022 C 
HETATM   43  C   UNN     0      -5.444  -3.020   3.916  0.00  0.00     0.005 C 
HETATM   44  C   UNN     0      -8.719  -8.110  -0.069  0.00  0.00     0.046 C 
HETATM   45  C   UNN     0      -4.020  -3.070   3.342  0.00  0.00     0.014 C 
HETATM   46  C   UNN     0      -5.321  -0.683   5.853  0.00  0.00     0.018 C 
HETATM   47  C   UNN     0      -2.812  -4.013  -5.461  0.00  0.00     0.016 C 
ENDROOT
BRANCH   1  48
HETATM   48  C   UNN     0      -2.657   2.229  -3.654  0.00  0.00     0.012 C 
HETATM   49  C   UNN     0      -4.156   2.577  -3.778  0.00  0.00     0.012 C 
BRANCH  48  50
HETATM   50  C   UNN     0      -2.249   1.353  -4.866  0.00  0.00     0.011 C 
BRANCH  50  51
HETATM   51  C   UNN     0      -0.833   1.612  -5.425  0.00  0.00    -0.012 C 
HETATM   52  C   UNN     0      -0.202   0.358  -6.061  0.00  0.00     0.039 C 
HETATM   53  C   UNN     0      -0.802  -0.034  -7.416  0.00  0.00     0.150 C 
HETATM   54  C   UNN     0      -0.756   1.149  -8.379  0.00  0.00     0.147 C 
HETATM   55  C   UNN     0      -1.389   2.411  -7.795  0.00  0.00     0.035 C 
HETATM   56  C   UNN     0      -0.797   2.781  -6.427  0.00  0.00     0.007 C 
BRANCH  53  57
HETATM   57  O   UNN     0      -2.116  -0.485  -7.217  0.00  0.00    -0.388 OA
HETATM   58  C   UNN     0      -2.570  -1.379  -8.211  0.00  0.00     0.202 C 
ENDBRANCH  53  57
BRANCH  54  59
HETATM   59  O   UNN     0       0.586   1.421  -8.716  0.00  0.00    -0.393 OA
HETATM   60  H   UNN     0       0.618   2.144  -9.346  0.00  0.00     0.210 HD
ENDBRANCH  54  59
ENDBRANCH  50  51
ENDBRANCH  48  50
ENDBRANCH   1  48
BRANCH  10  61
HETATM   61  O   UNN     0      -1.595   2.650   4.447  0.00  0.00    -0.388 OA
HETATM   62  H   UNN     0      -0.937   3.114   3.927  0.00  0.00     0.210 HD
ENDBRANCH  10  61
BRANCH  11  63
HETATM   63  O   UNN     0      -4.574   2.291   4.887  0.00  0.00    -0.380 OA
HETATM   64  C   UNN     0      -4.092   3.183   5.865  0.00  0.00     0.202 C 
ENDBRANCH  11  63
BRANCH  29  65
HETATM   65  O   UNN     0      -4.937  -2.730  -3.907  0.00  0.00    -0.359 OA
HETATM   66  H   UNN     0      -4.572  -1.845  -3.973  0.00  0.00     0.213 HD
ENDBRANCH  29  65
BRANCH  36  67
HETATM   67  O   UNN     0      -8.673  -4.902  -1.455  0.00  0.00    -0.386 OA
HETATM   68  C   UNN     0     -10.027  -5.266  -1.613  0.00  0.00     0.202 C 
ENDBRANCH  36  67
TORSDOF 9
