REMARK  4 active torsions:
REMARK  status: ('A' for Active; 'I' for Inactive)
REMARK    1  A    between atoms: N_5  and  C_30 
REMARK    2  A    between atoms: N_16  and  C_29 
REMARK    3  A    between atoms: C_23  and  C_30 
REMARK    4  A    between atoms: C_26  and  C_29 
ROOT
HETATM    1  C   UNN     0       4.277   3.145   3.872  0.00  0.00    -0.030 A 
HETATM    2  C   UNN     0       4.682   1.971   4.388  0.00  0.00     0.009 A 
HETATM    3  C   UNN     0       4.060   0.825   4.071  0.00  0.00     0.009 A 
HETATM    4  C   UNN     0       3.010   0.818   3.232  0.00  0.00    -0.030 A 
HETATM    5  C   UNN     0       2.586   1.994   2.738  0.00  0.00     0.009 A 
HETATM    6  C   UNN     0       3.208   3.138   3.055  0.00  0.00     0.009 A 
ENDROOT
BRANCH   1   7
HETATM    7  C   UNN     0       4.997   4.441   4.200  0.00  0.00     0.311 C 
BRANCH   7   8
HETATM    8  N   UNN     0       6.445   4.294   4.116  0.00  0.00     0.094 N 
HETATM    9  C   UNN     0       6.950   3.974   2.779  0.00  0.00     0.302 C 
HETATM   10  C   UNN     0       6.181   4.430   1.520  0.00  0.00     0.299 C 
HETATM   11  N   UNN     0       6.153   5.878   1.310  0.00  0.00     0.085 N 
HETATM   12  C   UNN     0       5.497   6.268   0.061  0.00  0.00     0.271 C 
HETATM   13  H   UNN     0       7.145   6.221   1.280  0.00  0.00     0.315 HD
HETATM   14  C   UNN     0       5.463   7.794  -0.140  0.00  0.00     0.060 C 
HETATM   15  C   UNN     0       6.815   8.475   0.134  0.00  0.00     0.271 C 
HETATM   16  N   UNN     0       6.917   8.840   1.548  0.00  0.00     0.085 N 
HETATM   17  C   UNN     0       8.287   9.075   2.007  0.00  0.00     0.299 C 
HETATM   18  H   UNN     0       6.485   8.074   2.121  0.00  0.00     0.315 HD
HETATM   19  C   UNN     0       8.298   9.782   3.371  0.00  0.00     0.299 C 
HETATM   20  N   UNN     0       7.414   9.214   4.390  0.00  0.00     0.085 N 
HETATM   21  C   UNN     0       7.747   7.885   4.911  0.00  0.00     0.271 C 
HETATM   22  H   UNN     0       6.441   9.188   3.994  0.00  0.00     0.315 HD
HETATM   23  C   UNN     0       7.080   6.757   4.111  0.00  0.00     0.060 C 
HETATM   24  C   UNN     0       7.162   5.380   4.782  0.00  0.00     0.274 C 
ENDBRANCH   7   8
ENDBRANCH   1   7
BRANCH   4  25
HETATM   25  C   UNN     0       2.337  -0.486   2.849  0.00  0.00     0.311 C 
BRANCH  25  26
HETATM   26  N   UNN     0       3.227  -1.326   2.055  0.00  0.00     0.094 N 
HETATM   27  C   UNN     0       3.775  -0.667   0.871  0.00  0.00     0.274 C 
HETATM   28  C   UNN     0       2.773  -0.308  -0.232  0.00  0.00     0.060 C 
HETATM   29  C   UNN     0       3.368   0.547  -1.361  0.00  0.00     0.271 C 
HETATM   30  N   UNN     0       2.338   1.106  -2.242  0.00  0.00     0.085 N 
HETATM   31  C   UNN     0       1.945   0.316  -3.410  0.00  0.00     0.299 C 
HETATM   32  H   UNN     0       1.474   1.295  -1.674  0.00  0.00     0.315 HD
HETATM   33  C   UNN     0       1.213  -1.001  -3.110  0.00  0.00     0.299 C 
HETATM   34  N   UNN     0       0.133  -0.795  -2.144  0.00  0.00     0.085 N 
HETATM   35  C   UNN     0      -0.795  -1.923  -2.038  0.00  0.00     0.271 C 
HETATM   36  H   UNN     0       0.543  -0.613  -1.196  0.00  0.00     0.315 HD
HETATM   37  C   UNN     0      -1.596  -1.826  -0.728  0.00  0.00     0.060 C 
HETATM   38  C   UNN     0      -0.922  -2.540   0.459  0.00  0.00     0.271 C 
HETATM   39  N   UNN     0       0.504  -2.226   0.574  0.00  0.00     0.085 N 
HETATM   40  C   UNN     0       1.147  -2.864   1.723  0.00  0.00     0.299 C 
HETATM   41  H   UNN     0       0.985  -2.563  -0.298  0.00  0.00     0.315 HD
HETATM   42  C   UNN     0       2.677  -2.658   1.796  0.00  0.00     0.302 C 
ENDBRANCH  25  26
ENDBRANCH   4  25
TORSDOF 4
