REMARK  9 active torsions:
REMARK  status: ('A' for Active; 'I' for Inactive)
REMARK    1  A    between atoms: O_4  and  C_23 
REMARK    2  A    between atoms: O_4  and  C_19 
REMARK    3  A    between atoms: C_5  and  O_32 
REMARK    4  A    between atoms: C_7  and  C_34 
REMARK    5  A    between atoms: C_7  and  O_37 
REMARK    6  A    between atoms: C_20  and  O_31 
REMARK    7  A    between atoms: C_22  and  O_28 
REMARK    8  A    between atoms: C_25  and  N_42 
REMARK    9  A    between atoms: C_27  and  O_30 
ROOT
HETATM    1  O           1      -2.958  -1.359   0.526  0.00  0.00    -0.286 OA
HETATM    2  O           1      -3.531   0.283  -4.330  0.00  0.00    -0.286 OA
HETATM    3  C           1      -1.201   0.861  -3.099  0.00  0.00     0.088 A 
HETATM    4  C           1      -0.058   1.100  -2.422  0.00  0.00    -0.009 A 
HETATM    5  C           1       2.017   2.587  -2.153  0.00  0.00     0.124 C 
HETATM    6  C           1       1.022   1.928  -3.103  0.00  0.00     0.088 C 
HETATM    7  C           1      -2.211   0.179  -2.500  0.00  0.00     0.066 A 
HETATM    8  C           1      -3.371  -0.071  -3.178  0.00  0.00     0.197 A 
HETATM    9  C           1      -4.382  -0.739  -2.550  0.00  0.00     0.032 A 
HETATM   10  C           1      -5.522  -0.962  -3.235  0.00  0.00     0.017 A 
HETATM   11  C           1      -6.548  -1.609  -2.679  0.00  0.00     0.004 A 
HETATM   12  C           1       2.546   1.482  -1.250  0.00  0.00     0.083 C 
HETATM   13  C           1       0.109   0.639  -1.172  0.00  0.00     0.014 A 
HETATM   14  C           1      -2.073  -0.258  -1.228  0.00  0.00     0.066 A 
HETATM   15  C           1      -4.268  -1.178  -1.279  0.00  0.00     0.062 A 
HETATM   16  C           1      -6.427  -2.037  -1.421  0.00  0.00     0.038 A 
HETATM   17  C           1       1.428   0.856  -0.416  0.00  0.00     0.164 C 
HETATM   18  C           1      -0.910  -0.012  -0.567  0.00  0.00     0.090 A 
HETATM   19  C           1      -3.093  -0.944  -0.609  0.00  0.00     0.200 A 
HETATM   20  C           1      -5.309  -1.844  -0.691  0.00  0.00     0.083 A 
ENDROOT
BRANCH  17  21
HETATM   21  O           1       1.891  -0.387   0.078  0.00  0.00    -0.351 OA
BRANCH  21  22
HETATM   22  C           1       2.712  -0.322   1.226  0.00  0.00     0.263 C 
HETATM   23  O           1       1.824  -0.097   2.303  0.00  0.00    -0.354 OA
HETATM   24  C           1       2.456  -0.118   3.557  0.00  0.00     0.151 C 
HETATM   25  C           1       1.401   0.178   4.622  0.00  0.00     0.042 C 
HETATM   26  C           1       3.121  -1.466   3.786  0.00  0.00     0.177 C 
HETATM   27  C           1       4.149  -1.716   2.692  0.00  0.00     0.219 C 
HETATM   28  C           1       3.424  -1.666   1.351  0.00  0.00     0.096 C 
BRANCH  26  29
HETATM   29  O           1       3.809  -1.527   5.008  0.00  0.00    -0.391 OA
HETATM   30  H           1       4.123  -0.670   5.303  0.00  0.00     0.210 HD
ENDBRANCH  26  29
BRANCH  27  31
HETATM   31  N           1       4.694  -3.103   2.910  0.00  0.00    -0.072 N 
HETATM   32  H           1       3.908  -3.791   2.898  0.00  0.00     0.274 HD
HETATM   33  H           1       5.181  -3.147   3.834  0.00  0.00     0.274 HD
HETATM   34  H           1       5.370  -3.334   2.148  0.00  0.00     0.274 HD
ENDBRANCH  27  31
ENDBRANCH  21  22
ENDBRANCH  17  21
BRANCH   5  35
HETATM   35  C           1       1.398   3.712  -1.312  0.00  0.00     0.157 C 
HETATM   36  O           1       0.212   3.756  -1.077  0.00  0.00    -0.295 OA
HETATM   37  C           1       2.335   4.772  -0.757  0.00  0.00     0.094 C 
ENDBRANCH   5  35
BRANCH   5  38
HETATM   38  O           1       3.089   3.088  -2.925  0.00  0.00    -0.382 OA
HETATM   39  H           1       2.768   3.582  -3.683  0.00  0.00     0.211 HD
ENDBRANCH   5  38
BRANCH  18  40
HETATM   40  O           1      -0.711  -0.377   0.735  0.00  0.00    -0.359 OA
HETATM   41  H           1       0.100   0.017   1.083  0.00  0.00     0.217 HD
ENDBRANCH  18  40
BRANCH   3  42
HETATM   42  O           1      -1.257   1.383  -4.364  0.00  0.00    -0.359 OA
HETATM   43  H           1      -2.141   1.583  -4.695  0.00  0.00     0.217 HD
ENDBRANCH   3  42
BRANCH  20  44
HETATM   44  O           1      -5.246  -2.309   0.606  0.00  0.00    -0.355 OA
HETATM   45  C           1      -6.339  -2.978   1.192  0.00  0.00     0.210 C 
ENDBRANCH  20  44
TORSDOF 9
