REMARK  9 active torsions:
REMARK  status: ('A' for Active; 'I' for Inactive)
REMARK    1  A    between atoms: C_1  and  O_31 
REMARK    2  A    between atoms: C_2  and  O_11 
REMARK    3  A    between atoms: C_10  and  N_36 
REMARK    4  A    between atoms: O_11  and  C_12 
REMARK    5  A    between atoms: C_12  and  C_13 
REMARK    6  A    between atoms: C_13  and  C_14 
REMARK    7  A    between atoms: C_14  and  N_15 
REMARK    8  A    between atoms: C_21  and  N_36 
REMARK    9  A    between atoms: C_23  and  O_29 
ROOT
HETATM    1  C   UNN     0      -3.407  -6.288   0.834  0.00  0.00     0.102 A 
HETATM    2  C   UNN     0      -2.101  -6.177   0.505  0.00  0.00     0.104 A 
HETATM    3  C   UNN     0      -1.536  -4.964   0.656  0.00  0.00     0.072 A 
HETATM    4  C   UNN     0      -2.210  -3.888   1.101  0.00  0.00     0.071 A 
HETATM    5  C   UNN     0      -3.527  -3.970   1.377  0.00  0.00     0.024 A 
HETATM    6  C   UNN     0      -4.053  -5.206   1.308  0.00  0.00     0.055 A 
HETATM    7  N   UNN     0      -1.550  -2.820   1.271  0.00  0.00    -0.259 NA
HETATM    8  C   UNN     0      -2.126  -1.828   1.798  0.00  0.00     0.142 C 
HETATM    9  C   UNN     0      -3.429  -1.803   2.120  0.00  0.00     0.089 C 
HETATM   10  C   UNN     0      -4.191  -2.880   1.829  0.00  0.00     0.067 C 
HETATM   11  C   UNN     0      -3.904  -0.673   2.603  0.00  0.00     0.103 C 
HETATM   12  N   UNN     0      -4.327   0.317   3.034  0.00  0.00    -0.191 NA
ENDROOT
BRANCH  10  13
HETATM   13  N   UNN     0      -5.434  -2.745   2.085  0.00  0.00    -0.354 N 
HETATM   14  H   UNN     0      -5.594  -1.949   2.754  0.00  0.00     0.166 HD
BRANCH  13  15
HETATM   15  C   UNN     0      -6.570  -3.247   1.790  0.00  0.00     0.042 A 
HETATM   16  C   UNN     0      -7.559  -2.910   2.645  0.00  0.00     0.067 A 
HETATM   17  C   UNN     0      -8.821  -3.377   2.578  0.00  0.00     0.077 A 
HETATM   18  C   UNN     0      -9.125  -4.131   1.504  0.00  0.00    -0.012 A 
HETATM   19  Cl  UNN     0     -10.738  -4.709   1.255  0.00  0.00     0.032 C 
HETATM   20  C   UNN     0      -8.190  -4.427   0.590  0.00  0.00     0.021 A 
HETATM   21  C   UNN     0      -6.923  -3.997   0.723  0.00  0.00    -0.018 A 
HETATM   22  Cl  UNN     0      -5.908  -4.269  -0.660  0.00  0.00     0.032 C 
BRANCH  17  23
HETATM   23  O   UNN     0      -9.766  -2.968   3.487  0.00  0.00    -0.355 OA
HETATM   24  C   UNN     0      -9.807  -3.753   4.657  0.00  0.00     0.210 C 
ENDBRANCH  17  23
ENDBRANCH  13  15
ENDBRANCH  10  13
BRANCH   1  25
HETATM   25  O   UNN     0      -4.024  -7.517   0.844  0.00  0.00    -0.353 OA
HETATM   26  C   UNN     0      -4.567  -7.903  -0.399  0.00  0.00     0.210 C 
ENDBRANCH   1  25
BRANCH   2  27
HETATM   27  O   UNN     0      -1.434  -7.307   0.093  0.00  0.00    -0.348 OA
BRANCH  27  28
HETATM   28  C   UNN     0      -0.046  -7.260  -0.110  0.00  0.00     0.177 C 
BRANCH  28  29
HETATM   29  C   UNN     0       0.437  -8.660  -0.500  0.00  0.00     0.057 C 
BRANCH  29  30
HETATM   30  C   UNN     0       1.964  -8.702  -0.700  0.00  0.00     0.274 C 
BRANCH  30  31
HETATM   31  N   UNN     0       2.459  -9.948  -1.281  0.00  0.00     0.091 N 
HETATM   32  C   UNN     0       3.892  -9.859  -1.532  0.00  0.00     0.302 C 
HETATM   33  C   UNN     0       4.430 -11.145  -2.179  0.00  0.00     0.302 C 
HETATM   34  N   UNN     0       4.163 -12.297  -1.332  0.00  0.00     0.087 N 
HETATM   35  C   UNN     0       4.689 -13.519  -1.919  0.00  0.00     0.310 C 
HETATM   36  C   UNN     0       2.733 -12.398  -1.089  0.00  0.00     0.302 C 
HETATM   37  C   UNN     0       2.188 -11.110  -0.448  0.00  0.00     0.302 C 
ENDBRANCH  30  31
ENDBRANCH  29  30
ENDBRANCH  28  29
ENDBRANCH  27  28
ENDBRANCH   2  27
TORSDOF 9
