REMARK  16 active torsions:
REMARK  status: ('A' for Active; 'I' for Inactive)
REMARK    1  A    between atoms: O_4  and  C_23 
REMARK    2  A    between atoms: O_4  and  C_22 
REMARK    3  A    between atoms: C_10  and  O_32 
REMARK    4  A    between atoms: C_13  and  O_34 
REMARK    5  A    between atoms: C_13  and  C_35 
REMARK    6  A    between atoms: C_19  and  O_28 
REMARK    7  A    between atoms: C_21  and  O_31 
REMARK    8  A    between atoms: C_25  and  N_51 
REMARK    9  A    between atoms: C_27  and  O_30 
REMARK   10  A    between atoms: C_35  and  C_36 
REMARK   11  A    between atoms: C_36  and  O_37 
REMARK   12  A    between atoms: O_37  and  C_38 
REMARK   13  A    between atoms: C_38  and  C_39 
REMARK   14  A    between atoms: C_39  and  C_40 
REMARK   15  A    between atoms: C_40  and  C_41 
REMARK   16  A    between atoms: C_44  and  C_46 
REMARK       I    between atoms: C_44  and  N_51 
ROOT
HETATM    1  O   UNN     0       0.079  -3.005   2.791  0.00  0.00    -0.286 OA
HETATM    2  O   UNN     0      -0.274  -1.798  -2.211  0.00  0.00    -0.286 OA
HETATM    3  C   UNN     0      -0.154  -2.077  -1.035  0.00  0.00     0.197 A 
HETATM    4  C   UNN     0       1.000  -1.825  -0.348  0.00  0.00     0.066 A 
HETATM    5  C   UNN     0      -2.333  -2.897  -1.089  0.00  0.00     0.017 A 
HETATM    6  C   UNN     0      -3.399  -3.460  -0.515  0.00  0.00     0.004 A 
HETATM    7  C   UNN     0      -1.207  -2.654  -0.387  0.00  0.00     0.032 A 
HETATM    8  C   UNN     0       2.058  -1.249  -0.976  0.00  0.00     0.088 A 
HETATM    9  C   UNN     0       3.170  -0.963  -0.271  0.00  0.00    -0.009 A 
HETATM   10  C   UNN     0       4.328  -0.251  -0.943  0.00  0.00     0.088 C 
HETATM   11  C   UNN     0       4.880   0.802   0.014  0.00  0.00     0.127 C 
HETATM   12  C   UNN     0      -3.331  -3.782   0.778  0.00  0.00     0.038 A 
HETATM   13  C   UNN     0      -1.150  -2.983   0.921  0.00  0.00     0.062 A 
HETATM   14  C   UNN     0       1.074  -2.137   0.967  0.00  0.00     0.066 A 
HETATM   15  C   UNN     0       3.258  -1.263   1.033  0.00  0.00     0.014 A 
HETATM   16  C   UNN     0       5.522   0.014   1.153  0.00  0.00     0.083 C 
HETATM   17  C   UNN     0      -2.232  -3.561   1.528  0.00  0.00     0.083 A 
HETATM   18  C   UNN     0       0.008  -2.719   1.611  0.00  0.00     0.200 A 
HETATM   19  C   UNN     0       2.218  -1.863   1.650  0.00  0.00     0.090 A 
HETATM   20  C   UNN     0       4.513  -0.915   1.842  0.00  0.00     0.164 C 
ENDROOT
BRANCH  20  21
HETATM   21  O   UNN     0       5.146  -2.117   2.230  0.00  0.00    -0.351 OA
BRANCH  21  22
HETATM   22  C   UNN     0       5.959  -2.004   3.381  0.00  0.00     0.263 C 
HETATM   23  O   UNN     0       5.046  -2.036   4.456  0.00  0.00    -0.354 OA
HETATM   24  C   UNN     0       5.671  -1.959   5.707  0.00  0.00     0.151 C 
HETATM   25  C   UNN     0       4.578  -1.910   6.775  0.00  0.00     0.042 C 
HETATM   26  C   UNN     0       6.590  -3.159   5.886  0.00  0.00     0.169 C 
HETATM   27  C   UNN     0       7.645  -3.193   4.782  0.00  0.00     0.120 C 
HETATM   28  C   UNN     0       6.898  -3.199   3.442  0.00  0.00     0.088 C 
BRANCH  26  29
HETATM   29  O   UNN     0       7.250  -3.117   7.127  0.00  0.00    -0.391 OA
HETATM   30  H   UNN     0       6.625  -3.241   7.844  0.00  0.00     0.210 HD
ENDBRANCH  26  29
BRANCH  27  31
HETATM   31  N   UNN     0       8.504  -4.361   4.989  0.00  0.00    -0.346 N 
HETATM   32  C   UNN     0       9.666  -4.560   4.304  0.00  0.00     0.325 C 
HETATM   33  O   UNN     0      10.079  -3.788   3.468  0.00  0.00    -0.263 OA
HETATM   34  H   UNN     0       8.217  -5.040   5.695  0.00  0.00     0.163 HD
BRANCH  32  35
HETATM   35  C   UNN     0      10.402  -5.855   4.693  0.00  0.00     0.472 C 
HETATM   36  F   UNN     0      10.541  -6.650   3.642  0.00  0.00    -0.162 F 
HETATM   37  F   UNN     0      11.616  -5.592   5.152  0.00  0.00    -0.162 F 
HETATM   38  F   UNN     0       9.747  -6.529   5.628  0.00  0.00    -0.162 F 
ENDBRANCH  32  35
ENDBRANCH  27  31
ENDBRANCH  21  22
ENDBRANCH  20  21
BRANCH  19  39
HETATM   39  O   UNN     0       2.392  -2.157   2.973  0.00  0.00    -0.359 OA
HETATM   40  H   UNN     0       3.292  -1.950   3.261  0.00  0.00     0.217 HD
ENDBRANCH  19  39
BRANCH  11  41
HETATM   41  O   UNN     0       5.882   1.542  -0.647  0.00  0.00    -0.382 OA
HETATM   42  H   UNN     0       6.593   0.971  -0.941  0.00  0.00     0.211 HD
ENDBRANCH  11  41
BRANCH  11  43
HETATM   43  C   UNN     0       3.792   1.772   0.498  0.00  0.00     0.185 C 
HETATM   44  O   UNN     0       3.602   1.979   1.676  0.00  0.00    -0.292 OA
BRANCH  43  45
HETATM   45  C   UNN     0       2.948   2.514  -0.543  0.00  0.00     0.260 C 
BRANCH  45  46
HETATM   46  O   UNN     0       1.827   3.180   0.013  0.00  0.00    -0.314 OA
BRANCH  46  47
HETATM   47  C   UNN     0       0.834   2.391   0.517  0.00  0.00     0.259 C 
HETATM   48  O   UNN     0       0.799   1.184   0.443  0.00  0.00    -0.265 OA
BRANCH  47  49
HETATM   49  C   UNN     0      -0.219   3.241   1.207  0.00  0.00     0.111 C 
BRANCH  49  50
HETATM   50  C   UNN     0       0.194   3.563   2.651  0.00  0.00     0.009 C 
BRANCH  50  51
HETATM   51  C   UNN     0      -0.872   4.393   3.382  0.00  0.00    -0.004 C 
HETATM   52  C   UNN     0      -0.452   4.720   4.821  0.00  0.00     0.005 C 
ENDBRANCH  50  51
ENDBRANCH  49  50
ENDBRANCH  47  49
ENDBRANCH  46  47
ENDBRANCH  45  46
ENDBRANCH  43  45
ENDBRANCH  11  43
BRANCH   8  53
HETATM   53  O   UNN     0       2.109  -0.924  -2.304  0.00  0.00    -0.359 OA
HETATM   54  H   UNN     0       1.487  -1.376  -2.884  0.00  0.00     0.217 HD
ENDBRANCH   8  53
BRANCH  17  55
HETATM   55  O   UNN     0      -2.225  -3.918   2.860  0.00  0.00    -0.355 OA
HETATM   56  C   UNN     0      -3.354  -4.513   3.458  0.00  0.00     0.210 C 
ENDBRANCH  17  55
TORSDOF 16
