REMARK  4 active torsions:
REMARK  status: ('A' for Active; 'I' for Inactive)
REMARK    1  A    between atoms: C_3  and  C_27 
REMARK    2  A    between atoms: C_8  and  O_29 
REMARK    3  A    between atoms: C_18  and  C_22 
REMARK    4  A    between atoms: O_29  and  C_30 
REMARK       I    between atoms: C_30  and  N_32 
ROOT
ATOM      1  C   UNN dAMED      -0.520  -0.486  -2.980  0.00  0.00     0.095 A 
ATOM      2  C   UNN dAMED      -0.854  -0.718  -1.654  0.00  0.00     0.016 A 
ATOM      3  C   UNN dAMED       0.059  -0.435  -0.678  0.00  0.00    -0.021 A 
ATOM      4  C   UNN dAMED       1.292   0.071  -1.085  0.00  0.00     0.015 A 
ATOM      5  C   UNN dAMED       1.560   0.252  -2.476  0.00  0.00     0.081 A 
ATOM      6  N   UNN dAMED       0.650  -0.022  -3.431  0.00  0.00    -0.244 NA
ATOM      7  C   UNN dAMED       2.241   0.403  -0.124  0.00  0.00     0.026 A 
ATOM      8  C   UNN dAMED       3.484   0.867  -0.536  0.00  0.00     0.104 A 
ATOM      9  C   UNN dAMED       3.777   1.047  -1.882  0.00  0.00     0.026 A 
ATOM     10  C   UNN dAMED       2.811   0.731  -2.836  0.00  0.00     0.021 A 
ATOM     11  C   UNN dAMED      -1.676  -0.864  -3.765  0.00  0.00     0.080 A 
ATOM     12  N   UNN dAMED      -2.681  -1.317  -2.958  0.00  0.00    -0.290 N 
ATOM     13  C   UNN dAMED      -2.238  -1.280  -1.603  0.00  0.00     0.137 A 
ATOM     14  C   UNN dAMED      -1.850  -0.863  -5.085  0.00  0.00     0.017 C 
ATOM     15  C   UNN dAMED      -3.191  -1.360  -5.604  0.00  0.00     0.019 C 
ATOM     16  C   UNN dAMED      -4.087  -1.891  -4.763  0.00  0.00     0.063 C 
ATOM     17  C   UNN dAMED      -3.881  -1.855  -3.293  0.00  0.00     0.259 C 
ATOM     18  C   UNN dAMED      -3.499  -1.378  -7.059  0.00  0.00     0.222 C 
ATOM     19  C   UNN dAMED      -4.422  -2.506  -7.525  0.00  0.00     0.304 C 
ATOM     20  O   UNN dAMED      -5.278  -3.065  -6.623  0.00  0.00    -0.295 OA
ATOM     21  C   UNN dAMED      -5.343  -2.318  -5.436  0.00  0.00     0.183 C 
ATOM     22  O   UNN dAMED      -4.347  -2.944  -8.673  0.00  0.00    -0.261 OA
ATOM     23  O   UNN dAMED      -4.030  -0.232  -7.407  0.00  0.00    -0.211 OA
ATOM     24  O   UNN dAMED      -4.729  -2.276  -2.517  0.00  0.00    -0.267 OA
ENDROOT
BRANCH   8  25
ATOM     25  O   UNN dAMED       4.388   1.382   0.399  0.00  0.00    -0.264 OA
BRANCH  25  26
ATOM     26  C   UNN dAMED       4.887   0.461   1.312  0.00  0.00     0.347 C 
ATOM     27  O   UNN dAMED       4.808  -0.759   1.216  0.00  0.00    -0.245 OA
ATOM     28  N   UNN dAMED       5.548   1.122   2.320  0.00  0.00    -0.199 NA
ATOM     29  C   UNN dAMED       5.677   2.486   1.893  0.00  0.00     0.084 C 
ATOM     30  C   UNN dAMED       6.863   0.553   2.384  0.00  0.00     0.084 C 
ATOM     31  C   UNN dAMED       6.650   3.406   2.637  0.00  0.00     0.051 C 
ATOM     32  C   UNN dAMED       8.011   2.789   2.936  0.00  0.00     0.222 C 
ATOM     33  C   UNN dAMED       7.947   1.287   3.177  0.00  0.00     0.051 C 
ATOM     34  N   UNN dAMED       9.030   3.578   3.601  0.00  0.00     0.135 N 
ATOM     35  C   UNN dAMED      10.132   2.694   3.980  0.00  0.00     0.250 C 
ATOM     36  C   UNN dAMED       8.564   4.268   4.798  0.00  0.00     0.250 C 
ATOM     37  C   UNN dAMED      11.281   3.283   4.803  0.00  0.00     0.035 C 
ATOM     38  C   UNN dAMED      10.839   4.139   5.983  0.00  0.00     0.004 C 
ATOM     39  C   UNN dAMED       9.602   4.974   5.676  0.00  0.00     0.035 C 
ENDBRANCH  25  26
ENDBRANCH   8  25
BRANCH   3  40
ATOM     40  C   UNN dAMED      -0.244  -0.686   0.770  0.00  0.00     0.026 C 
ATOM     41  C   UNN dAMED      -0.351   0.488   1.748  0.00  0.00     0.005 C 
ENDBRANCH   3  40
BRANCH  18  42
ATOM     42  C   UNN dAMED      -2.172  -1.542  -7.812  0.00  0.00     0.045 C 
ATOM     43  C   UNN dAMED      -1.109  -0.439  -7.743  0.00  0.00     0.004 C 
ENDBRANCH  18  42
TORSDOF 4
