REMARK  17 active torsions:
REMARK  status: ('A' for Active; 'I' for Inactive)
REMARK    1  A    between atoms: C_5  and  C_7 
REMARK    2  A    between atoms: C_7  and  C_8 
REMARK    3  A    between atoms: C_7  and  N_36 
REMARK    4  A    between atoms: C_8  and  C_13 
REMARK    5  A    between atoms: C_8  and  O_52 
REMARK    6  A    between atoms: C_9  and  O_10 
REMARK       I    between atoms: C_9  and  N_36 
REMARK    7  A    between atoms: O_10  and  C_12 
REMARK    8  A    between atoms: C_13  and  O_51 
REMARK    9  A    between atoms: C_14  and  O_51 
REMARK   10  A    between atoms: C_16  and  O_58 
REMARK   11  A    between atoms: C_19  and  O_53 
REMARK   12  A    between atoms: C_20  and  O_42 
REMARK   13  A    between atoms: C_24  and  O_54 
REMARK   14  A    between atoms: C_27  and  O_41 
REMARK   15  A    between atoms: O_42  and  C_43 
REMARK   16  A    between atoms: C_43  and  C_45 
REMARK   17  A    between atoms: O_54  and  C_55 
ROOT
HETATM    1  C   UNN     0      -0.538   0.030   1.000  0.00  0.00     0.164 C 
HETATM    2  C   UNN     0       2.840   1.886   1.474  0.00  0.00     0.218 C 
HETATM    3  C   UNN     0       1.821   0.768   1.513  0.00  0.00    -0.029 C 
HETATM    4  C   UNN     0       2.226  -0.689   1.364  0.00  0.00     0.013 C 
HETATM    5  C   UNN     0       1.607  -1.102   0.014  0.00  0.00     0.098 C 
HETATM    6  C   UNN     0       1.938  -0.210  -1.240  0.00  0.00     0.176 C 
HETATM    7  C   UNN     0       3.384   0.278  -1.643  0.00  0.00     0.076 C 
HETATM    8  C   UNN     0       4.118   1.489  -0.920  0.00  0.00     0.055 C 
HETATM    9  C   UNN     0       3.214   2.306   0.037  0.00  0.00     0.171 C 
HETATM   10  C   UNN     0       4.275  -0.570  -2.588  0.00  0.00     0.125 A 
HETATM   11  C   UNN     0       5.389   0.258  -3.292  0.00  0.00     0.161 A 
HETATM   12  C   UNN     0       5.567   1.759  -3.037  0.00  0.00     0.068 C 
HETATM   13  C   UNN     0       4.541   2.414  -2.109  0.00  0.00     0.137 C 
HETATM   14  C   UNN     0       5.481  -1.364  -2.072  0.00  0.00     0.210 A 
HETATM   15  O   UNN     0       6.414  -0.513  -2.708  0.00  0.00    -0.380 OA
HETATM   16  O   UNN     0       2.774   3.362  -0.370  0.00  0.00    -0.294 OA
HETATM   17  C   UNN     0       0.080  -1.184   0.266  0.00  0.00     0.078 C 
HETATM   18  C   UNN     0       0.497   1.047   1.484  0.00  0.00    -0.048 C 
HETATM   19  C   UNN     0      -0.087   2.400   1.830  0.00  0.00     0.046 C 
HETATM   20  C   UNN     0       1.682  -1.433   2.620  0.00  0.00     0.023 C 
HETATM   21  C   UNN     0       3.705  -1.114   1.394  0.00  0.00     0.023 C 
HETATM   22  C   UNN     0       5.446   1.280  -0.142  0.00  0.00     0.027 C 
ENDROOT
BRANCH   1  23
HETATM   23  O   UNN     0      -1.440   0.652   0.108  0.00  0.00    -0.309 OA
BRANCH  23  24
HETATM   24  C   UNN     0      -2.662   0.096  -0.099  0.00  0.00     0.290 C 
HETATM   25  O   UNN     0      -3.182  -0.759   0.582  0.00  0.00    -0.262 OA
BRANCH  24  26
HETATM   26  C   UNN     0      -3.321   0.675  -1.349  0.00  0.00     0.244 C 
BRANCH  26  27
HETATM   27  C   UNN     0      -4.343   1.762  -1.014  0.00  0.00     0.158 C 
BRANCH  27  28
HETATM   28  C   UNN     0      -3.622   3.035  -0.618  0.00  0.00    -0.032 A 
HETATM   29  C   UNN     0      -3.341   3.323   0.666  0.00  0.00     0.009 A 
HETATM   30  C   UNN     0      -2.692   4.451   0.994  0.00  0.00     0.001 A 
HETATM   31  C   UNN     0      -2.297   5.304   0.038  0.00  0.00     0.000 A 
HETATM   32  C   UNN     0      -2.566   5.028  -1.247  0.00  0.00     0.001 A 
HETATM   33  C   UNN     0      -3.228   3.905  -1.565  0.00  0.00     0.009 A 
ENDBRANCH  27  28
BRANCH  27  34
HETATM   34  N   UNN     0      -5.197   1.277   0.076  0.00  0.00    -0.325 N 
HETATM   35  C   UNN     0      -6.388   1.855   0.412  0.00  0.00     0.361 C 
HETATM   36  O   UNN     0      -6.811   2.801  -0.207  0.00  0.00    -0.238 OA
HETATM   37  H   UNN     0      -4.858   0.521   0.672  0.00  0.00     0.165 HD
BRANCH  35  38
HETATM   38  O   UNN     0      -6.992   1.335   1.514  0.00  0.00    -0.294 OA
BRANCH  38  39
HETATM   39  C   UNN     0      -7.933   2.047   2.259  0.00  0.00     0.061 C 
HETATM   40  C   UNN     0      -9.284   2.082   1.534  0.00  0.00     0.046 C 
HETATM   41  C   UNN     0      -8.103   1.265   3.572  0.00  0.00     0.046 C 
HETATM   42  C   UNN     0      -7.445   3.462   2.602  0.00  0.00     0.046 C 
ENDBRANCH  38  39
ENDBRANCH  35  38
ENDBRANCH  27  34
ENDBRANCH  26  27
BRANCH  26  43
HETATM   43  O   UNN     0      -2.374   1.164  -2.282  0.00  0.00    -0.383 OA
HETATM   44  H   UNN     0      -1.938   1.961  -1.954  0.00  0.00     0.210 HD
ENDBRANCH  26  43
ENDBRANCH  24  26
ENDBRANCH  23  24
ENDBRANCH   1  23
BRANCH   5  45
HETATM   45  O   UNN     0       2.022  -2.424  -0.235  0.00  0.00    -0.386 OA
HETATM   46  H   UNN     0       1.953  -2.686  -1.153  0.00  0.00     0.210 HD
ENDBRANCH   5  45
BRANCH   6  47
HETATM   47  O   UNN     0       1.098   0.912  -1.178  0.00  0.00    -0.308 OA
BRANCH  47  48
HETATM   48  C   UNN     0       0.433   1.668  -2.131  0.00  0.00     0.293 C 
HETATM   49  O   UNN     0      -0.200   2.579  -1.618  0.00  0.00    -0.259 OA
BRANCH  48  50
HETATM   50  C   UNN     0       0.313   1.565  -3.498  0.00  0.00     0.039 A 
HETATM   51  C   UNN     0       0.830   0.572  -4.242  0.00  0.00     0.017 A 
HETATM   52  C   UNN     0       0.696   0.505  -5.577  0.00  0.00     0.001 A 
HETATM   53  C   UNN     0       0.015   1.451  -6.234  0.00  0.00     0.000 A 
HETATM   54  C   UNN     0      -0.527   2.452  -5.529  0.00  0.00     0.001 A 
HETATM   55  C   UNN     0      -0.377   2.499  -4.195  0.00  0.00     0.017 A 
ENDBRANCH  48  50
ENDBRANCH  47  48
ENDBRANCH   6  47
BRANCH   2  56
HETATM   56  O   UNN     0       3.943   1.670   2.337  0.00  0.00    -0.384 OA
HETATM   57  H   UNN     0       3.623   1.367   3.188  0.00  0.00     0.211 HD
ENDBRANCH   2  56
BRANCH  10  58
HETATM   58  O   UNN     0       3.595  -1.219  -3.622  0.00  0.00    -0.305 OA
BRANCH  58  59
HETATM   59  C   UNN     0       3.155  -2.496  -3.488  0.00  0.00     0.255 C 
HETATM   60  O   UNN     0       3.164  -3.125  -2.459  0.00  0.00    -0.266 OA
HETATM   61  C   UNN     0       2.637  -3.019  -4.813  0.00  0.00     0.126 C 
ENDBRANCH  58  59
ENDBRANCH  10  58
BRANCH  13  62
HETATM   62  O   UNN     0       5.039   3.648  -1.639  0.00  0.00    -0.394 OA
HETATM   63  H   UNN     0       4.309   4.136  -1.241  0.00  0.00     0.210 HD
ENDBRANCH  13  62
TORSDOF 17
