REMARK  4 active torsions:
REMARK  status: ('A' for Active; 'I' for Inactive)
REMARK    1  A    between atoms: S_1  and  C_4 
REMARK    2  A    between atoms: S_1  and  N_35 
REMARK    3  A    between atoms: C_12  and  C_24 
REMARK    4  A    between atoms: C_16  and  N_35 
ROOT
HETATM    1  C   LIG L   1       1.267  -1.120  -1.528  0.00  0.00     0.121 A 
HETATM    2  C   LIG L   1       1.562  -2.113  -2.475  0.00  0.00     0.022 A 
HETATM    3  C   LIG L   1       0.629  -2.565  -3.401  0.00  0.00     0.002 A 
HETATM    4  C   LIG L   1      -0.648  -2.022  -3.402  0.00  0.00     0.004 A 
HETATM    5  C   LIG L   1      -0.996  -1.039  -2.475  0.00  0.00     0.047 A 
HETATM    6  C   LIG L   1      -0.036  -0.590  -1.559  0.00  0.00     0.160 A 
HETATM    7  C   LIG L   1      -2.354  -0.531  -2.480  0.00  0.00     0.091 A 
HETATM    8  N   LIG L   1      -2.623   0.758  -2.914  0.00  0.00    -0.243 NA
HETATM    9  C   LIG L   1      -3.920   0.962  -2.902  0.00  0.00     0.087 A 
HETATM   10  S   LIG L   1      -4.884  -0.334  -2.345  0.00  0.00    -0.069 SA
HETATM   11  C   LIG L   1      -3.463  -1.276  -2.095  0.00  0.00     0.066 A 
HETATM   12  C   LIG L   1      -3.591  -2.628  -1.568  0.00  0.00     0.093 A 
HETATM   13  N   LIG L   1      -4.456  -3.436  -2.222  0.00  0.00    -0.214 NA
HETATM   14  C   LIG L   1      -4.631  -4.670  -1.704  0.00  0.00     0.237 A 
HETATM   15  N   LIG L   1      -3.990  -5.154  -0.621  0.00  0.00    -0.213 NA
HETATM   16  C   LIG L   1      -3.127  -4.310  -0.021  0.00  0.00     0.103 A 
HETATM   17  C   LIG L   1      -2.894  -3.018  -0.441  0.00  0.00     0.041 A 
HETATM   18  N   LIG L   1      -5.636  -5.491  -2.294  0.00  0.00    -0.060 NA
HETATM   19  F   LIG L   1      -0.377   0.360  -0.669  0.00  0.00    -0.203 F 
ENDROOT
BRANCH   1  20
HETATM   20  N   LIG L   1       2.154  -0.677  -0.610  0.00  0.00    -0.156 NA
BRANCH  20  21
HETATM   21  S   LIG L   1       3.586  -1.366  -0.443  0.00  0.00     0.290 S 
HETATM   22  O   LIG L   1       4.395  -1.396  -1.658  0.00  0.00    -0.198 OA
HETATM   23  O   LIG L   1       3.597  -2.607   0.329  0.00  0.00    -0.198 OA
BRANCH  21  24
HETATM   24  C   LIG L   1       4.491  -0.254   0.643  0.00  0.00     0.160 A 
HETATM   25  C   LIG L   1       3.989  -0.011   1.923  0.00  0.00     0.154 A 
HETATM   26  C   LIG L   1       4.620   0.900   2.764  0.00  0.00     0.030 A 
HETATM   27  F   LIG L   1       2.882  -0.629   2.361  0.00  0.00    -0.203 F 
HETATM   28  C   LIG L   1       5.759   1.570   2.323  0.00  0.00     0.005 A 
HETATM   29  C   LIG L   1       6.265   1.330   1.047  0.00  0.00     0.030 A 
HETATM   30  C   LIG L   1       5.630   0.420   0.208  0.00  0.00     0.154 A 
HETATM   31  F   LIG L   1       6.138   0.231  -1.017  0.00  0.00    -0.203 F 
ENDBRANCH  21  24
ENDBRANCH  20  21
ENDBRANCH   1  20
BRANCH   9  32
HETATM   32  C   LIG L   1      -4.584   2.215  -3.347  0.00  0.00     0.041 C 
HETATM   33  C   LIG L   1      -4.538   2.241  -5.194  0.00  0.00     0.006 C 
HETATM   34  C   LIG L   1      -4.538   2.241  -5.194  0.00  0.00     0.006 C 
HETATM   35  C   LIG L   1      -4.538   2.241  -5.194  0.00  0.00     0.006 C 
ENDBRANCH   9  32
TORSDOF 4
