REMARK  3 active torsions:
REMARK  status: ('A' for Active; 'I' for Inactive)
REMARK    1  A    between atoms: C_6  and  C_23 
REMARK    2  A    between atoms: C_17  and  C_27 
REMARK    3  A    between atoms: C_27  and  N_28 
ROOT
ATOM      1  C   UNN dAMED      -5.848  -0.576  -0.518  0.00  0.00     0.304 C 
ATOM      2  O   UNN dAMED      -5.960   0.734  -0.876  0.00  0.00    -0.295 OA
ATOM      3  C   UNN dAMED      -4.977   1.521  -0.259  0.00  0.00     0.183 C 
ATOM      4  C   UNN dAMED      -3.554   1.079  -0.253  0.00  0.00     0.063 A 
ATOM      5  C   UNN dAMED      -3.396  -0.191   0.139  0.00  0.00     0.019 A 
ATOM      6  C   UNN dAMED      -4.638  -1.003   0.328  0.00  0.00     0.222 C 
ATOM      7  N   UNN dAMED      -1.206   1.319  -0.374  0.00  0.00    -0.290 N 
ATOM      8  C   UNN dAMED      -0.951   0.031   0.012  0.00  0.00     0.080 A 
ATOM      9  C   UNN dAMED      -1.985  -0.781   0.262  0.00  0.00     0.017 A 
ATOM     10  C   UNN dAMED       0.485  -0.191   0.119  0.00  0.00     0.095 A 
ATOM     11  C   UNN dAMED       1.098   1.003  -0.235  0.00  0.00     0.020 A 
ATOM     12  C   UNN dAMED       0.033   2.008  -0.540  0.00  0.00     0.138 A 
ATOM     13  C   UNN dAMED       2.466   1.091  -0.252  0.00  0.00     0.001 A 
ATOM     14  C   UNN dAMED       3.181  -0.054   0.110  0.00  0.00     0.021 A 
ATOM     15  C   UNN dAMED       2.473  -1.228   0.483  0.00  0.00     0.082 A 
ATOM     16  N   UNN dAMED       1.122  -1.308   0.490  0.00  0.00    -0.244 NA
ATOM     17  C   UNN dAMED       4.585  -0.040   0.100  0.00  0.00     0.052 A 
ATOM     18  C   UNN dAMED       5.368  -1.156   0.433  0.00  0.00     0.197 A 
ATOM     19  C   UNN dAMED       4.632  -2.284   0.814  0.00  0.00     0.044 A 
ATOM     20  C   UNN dAMED       3.233  -2.324   0.842  0.00  0.00     0.022 A 
ATOM     21  O   UNN dAMED      -6.681  -1.403  -0.897  0.00  0.00    -0.261 OA
ATOM     22  O   UNN dAMED      -5.001  -0.987   1.586  0.00  0.00    -0.211 OA
ATOM     23  O   UNN dAMED      -2.545   3.143  -0.810  0.00  0.00    -0.267 OA
ATOM     24  C   UNN dAMED      -2.391   1.966  -0.505  0.00  0.00     0.259 A 
ATOM     25  O   UNN dAMED       6.640  -1.135   0.388  0.00  0.00    -0.286 OA
ENDROOT
BRANCH  17  26
ATOM     26  C   UNN dAMED       5.333   1.171  -0.387  0.00  0.00     0.050 C 
BRANCH  26  27
ATOM     27  N   UNN dAMED       5.374   2.662   0.443  0.00  0.00    -0.249 NA
ATOM     28  C   UNN dAMED       5.334   1.175  -0.380  0.00  0.00     0.094 C 
ATOM     29  C   UNN dAMED       5.334   1.174  -0.381  0.00  0.00     0.094 C 
ENDBRANCH  26  27
ENDBRANCH  17  26
BRANCH   6  30
ATOM     30  C   UNN dAMED      -4.323  -2.452  -0.074  0.00  0.00     0.045 C 
ATOM     31  C   UNN dAMED      -3.239  -3.250   0.657  0.00  0.00     0.004 C 
ENDBRANCH   6  30
TORSDOF 3
