REMARK  23 active torsions:
REMARK  status: ('A' for Active; 'I' for Inactive)
REMARK    1  A    between atoms: C_6  and  N_10 
REMARK    2  A    between atoms: N_7  and  C_11 
REMARK    3  A    between atoms: C_13  and  C_18 
REMARK    4  A    between atoms: C_14  and  C_16 
REMARK    5  A    between atoms: C_15  and  O_17 
REMARK    6  A    between atoms: C_16  and  P_20 
REMARK    7  A    between atoms: C_18  and  O_19 
REMARK    8  A    between atoms: O_19  and  P_24 
REMARK    9  A    between atoms: P_24  and  O_25 
REMARK   10  A    between atoms: O_25  and  P_26 
REMARK   11  A    between atoms: P_26  and  O_27 
REMARK   12  A    between atoms: O_27  and  C_28 
REMARK   13  A    between atoms: C_28  and  C_29 
REMARK   14  A    between atoms: C_29  and  C_30 
REMARK   15  A    between atoms: C_30  and  C_31 
REMARK       I    between atoms: C_31  and  N_32 
REMARK   16  A    between atoms: N_32  and  C_33 
REMARK   17  A    between atoms: C_33  and  C_34 
REMARK   18  A    between atoms: C_34  and  C_43 
REMARK       I    between atoms: C_43  and  N_44 
REMARK   19  A    between atoms: N_44  and  C_45 
REMARK   20  A    between atoms: C_45  and  C_47 
REMARK   21  A    between atoms: C_47  and  S_48 
REMARK   22  A    between atoms: S_48  and  C_49 
REMARK   23  A    between atoms: C_49  and  C_50 
ROOT
HETATM    1  P           1       1.215  -2.748   3.841  0.00  0.00     0.417 P 
HETATM    2  O           1       1.932  -2.668   5.421  0.00  0.00    -0.624 OA
HETATM    3  O           1       1.738  -1.652   2.975  0.00  0.00    -0.624 OA
ENDROOT
BRANCH   1   4
HETATM    4  O           1       1.894  -4.077   3.067  0.00  0.00    -0.287 OA
BRANCH   4   5
HETATM    5  C           1       2.084  -5.282   3.776  0.00  0.00     0.214 C 
BRANCH   5   6
HETATM    6  C           1       3.070  -6.208   3.039  0.00  0.00     0.155 C 
HETATM    7  O           1       4.250  -5.510   2.735  0.00  0.00    -0.356 OA
HETATM    8  C           1       5.123  -5.592   3.847  0.00  0.00     0.260 C 
HETATM    9  C           1       4.532  -6.642   4.782  0.00  0.00     0.174 C 
HETATM   10  C           1       3.562  -7.405   3.868  0.00  0.00     0.063 C 
BRANCH   8  11
HETATM   11  N           1       5.461  -4.305   4.476  0.00  0.00    -0.294 N 
HETATM   12  C           1       6.228  -4.197   5.475  0.00  0.00     0.167 A 
HETATM   13  N           1       6.908  -4.990   6.180  0.00  0.00    -0.222 NA
HETATM   14  C           1       6.264  -2.867   5.693  0.00  0.00     0.149 A 
HETATM   15  C           1       7.583  -4.422   7.086  0.00  0.00     0.237 A 
HETATM   16  N           1       7.708  -3.194   7.365  0.00  0.00    -0.222 NA
HETATM   17  C           1       7.041  -2.369   6.670  0.00  0.00     0.155 A 
HETATM   18  N           1       5.541  -2.260   4.846  0.00  0.00    -0.236 NA
HETATM   19  C           1       5.027  -3.167   4.125  0.00  0.00     0.214 A 
BRANCH  17  20
HETATM   20  N           1       7.143  -1.120   6.857  0.00  0.00    -0.382 N 
HETATM   21  H           1       7.773  -0.750   7.610  0.00  0.00     0.157 HD
HETATM   22  H           1       6.597  -0.453   6.259  0.00  0.00     0.157 HD
ENDBRANCH  17  20
ENDBRANCH   8  11
BRANCH   9  23
HETATM   23  O           1       5.508  -7.484   5.342  0.00  0.00    -0.391 OA
HETATM   24  H           1       5.092  -8.127   5.918  0.00  0.00     0.210 HD
ENDBRANCH   9  23
BRANCH  10  25
HETATM   25  C           1       4.304  -8.491   3.045  0.00  0.00     0.155 C 
BRANCH  25  26
HETATM   26  P           1       3.317  -9.778   2.161  0.00  0.00     0.260 P 
HETATM   27  O           1       3.467  -9.793   0.431  0.00  0.00    -0.640 OA
HETATM   28  O           1       3.975 -11.379   2.341  0.00  0.00    -0.640 OA
HETATM   29  O           1       1.874  -9.852   2.520  0.00  0.00    -0.640 OA
ENDBRANCH  25  26
ENDBRANCH  10  25
ENDBRANCH   5   6
ENDBRANCH   4   5
ENDBRANCH   1   4
BRANCH   1  30
HETATM   30  O           1      -0.378  -3.062   3.636  0.00  0.00    -0.180 OA
BRANCH  30  31
HETATM   31  P           1      -1.323  -1.834   3.176  0.00  0.00     0.417 P 
HETATM   32  O           1      -2.997  -2.179   2.844  0.00  0.00    -0.624 OA
HETATM   33  O           1      -1.334  -0.691   4.131  0.00  0.00    -0.624 OA
BRANCH  31  34
HETATM   34  O           1      -0.980  -1.271   1.663  0.00  0.00    -0.289 OA
BRANCH  34  35
HETATM   35  C           1      -1.514  -0.048   1.218  0.00  0.00     0.191 C 
BRANCH  35  36
HETATM   36  C           1      -0.936   0.354  -0.160  0.00  0.00    -0.014 C 
HETATM   37  C           1       0.578   0.602   0.018  0.00  0.00     0.018 C 
HETATM   38  C           1      -1.137  -0.813  -1.154  0.00  0.00     0.018 C 
BRANCH  36  39
HETATM   39  C           1      -1.701   1.605  -0.694  0.00  0.00     0.083 C 
HETATM   40  C           1      -1.539   2.881   0.152  0.00  0.00     0.020 C 
BRANCH  39  41
HETATM   41  C           1      -1.459   1.997  -2.155  0.00  0.00     0.222 C 
HETATM   42  N           1      -2.593   2.393  -2.816  0.00  0.00    -0.360 N 
HETATM   43  H           1      -3.485   2.331  -2.324  0.00  0.00     0.162 HD
HETATM   44  O           1      -0.376   2.012  -2.683  0.00  0.00    -0.273 OA
BRANCH  42  45
HETATM   45  C           1      -2.602   2.845  -4.215  0.00  0.00     0.132 C 
BRANCH  45  46
HETATM   46  C           1      -3.500   4.087  -4.343  0.00  0.00     0.122 C 
BRANCH  46  47
HETATM   47  C           1      -3.648   4.630  -5.757  0.00  0.00     0.219 C 
HETATM   48  N           1      -4.422   5.757  -5.844  0.00  0.00    -0.360 N 
HETATM   49  H           1      -4.835   6.132  -4.989  0.00  0.00     0.162 HD
HETATM   50  O           1      -3.141   4.121  -6.727  0.00  0.00    -0.274 OA
BRANCH  48  51
HETATM   51  C           1      -4.721   6.409  -7.123  0.00  0.00     0.132 C 
BRANCH  51  52
HETATM   52  C           1      -5.473   7.726  -6.875  0.00  0.00     0.094 C 
BRANCH  52  53
HETATM   53  S           1      -5.925   8.471  -8.478  0.00  0.00    -0.160 SA
BRANCH  53  54
HETATM   54  C           1      -6.454  10.105  -7.881  0.00  0.00     0.151 C 
BRANCH  54  55
HETATM   55  C           1      -6.884  10.967  -9.063  0.00  0.00     0.132 C 
HETATM   56  C           1      -8.359  10.954  -9.428  0.00  0.00     0.091 C 
HETATM   57  O           1      -6.084  11.644  -9.670  0.00  0.00    -0.298 OA
ENDBRANCH  54  55
ENDBRANCH  53  54
ENDBRANCH  52  53
ENDBRANCH  51  52
ENDBRANCH  48  51
ENDBRANCH  46  47
ENDBRANCH  45  46
ENDBRANCH  42  45
ENDBRANCH  39  41
ENDBRANCH  36  39
ENDBRANCH  35  36
ENDBRANCH  34  35
ENDBRANCH  31  34
ENDBRANCH  30  31
ENDBRANCH   1  30
TORSDOF 23
