REMARK  30 active torsions:
REMARK  status: ('A' for Active; 'I' for Inactive)
REMARK       I    between atoms: C_13  and  N_16 
REMARK       I    between atoms: N_14  and  C_17 
REMARK    1  A    between atoms: N_16  and  C_18 
REMARK    2  A    between atoms: C_17  and  C_18 
REMARK    3  A    between atoms: C_18  and  C_19 
REMARK    4  A    between atoms: C_19  and  C_20 
REMARK    5  A    between atoms: C_20  and  C_21 
REMARK    6  A    between atoms: C_21  and  C_22 
REMARK    7  A    between atoms: C_22  and  N_24 
REMARK       I    between atoms: N_24  and  C_25 
REMARK    8  A    between atoms: C_25  and  C_26 
REMARK    9  A    between atoms: C_26  and  S_27 
REMARK   10  A    between atoms: S_27  and  C_28 
REMARK   11  A    between atoms: C_28  and  C_30 
REMARK   12  A    between atoms: C_30  and  N_31 
REMARK       I    between atoms: N_31  and  C_32 
REMARK   13  A    between atoms: C_32  and  C_40 
REMARK   14  A    between atoms: C_40  and  C_41 
REMARK   15  A    between atoms: C_41  and  N_42 
REMARK       I    between atoms: N_42  and  C_43 
REMARK   16  A    between atoms: C_43  and  C_44 
REMARK   17  A    between atoms: C_44  and  C_73 
REMARK   18  A    between atoms: C_50  and  N_54 
REMARK   19  A    between atoms: N_51  and  C_55 
REMARK   20  A    between atoms: C_57  and  C_62 
REMARK   21  A    between atoms: C_58  and  C_60 
REMARK   22  A    between atoms: C_59  and  O_61 
REMARK   23  A    between atoms: C_60  and  P_64 
REMARK   24  A    between atoms: C_62  and  O_63 
REMARK   25  A    between atoms: O_63  and  P_68 
REMARK   26  A    between atoms: P_68  and  O_69 
REMARK   27  A    between atoms: O_69  and  P_70 
REMARK   28  A    between atoms: P_70  and  O_71 
REMARK   29  A    between atoms: O_71  and  C_72 
REMARK   30  A    between atoms: C_72  and  C_73 
ROOT
HETATM    1  C           1       0.843  -4.298   1.657  0.00  0.00     0.018 C 
HETATM    2  C           1       2.389  -2.700   2.843  0.00  0.00     0.018 C 
HETATM    3  C           1       0.914  -3.113   2.649  0.00  0.00    -0.014 C 
ENDROOT
BRANCH   3   4
HETATM    4  C           1       0.017  -1.946   2.119  0.00  0.00     0.083 C 
HETATM    5  C           1      -0.043  -0.716   3.047  0.00  0.00     0.020 C 
BRANCH   4   6
HETATM    6  C           1       0.267  -1.436   0.696  0.00  0.00     0.222 C 
HETATM    7  O           1       1.293  -1.578   0.079  0.00  0.00    -0.273 OA
HETATM    8  N           1      -0.793  -0.747   0.156  0.00  0.00    -0.360 N 
HETATM    9  H           1      -1.660  -0.689   0.691  0.00  0.00     0.162 HD
BRANCH   8  10
HETATM   10  C           1      -0.762  -0.197  -1.207  0.00  0.00     0.132 C 
BRANCH  10  11
HETATM   11  C           1      -1.756   0.967  -1.394  0.00  0.00     0.122 C 
BRANCH  11  12
HETATM   12  C           1      -1.693   1.578  -2.792  0.00  0.00     0.219 C 
HETATM   13  O           1      -1.026   1.109  -3.681  0.00  0.00    -0.274 OA
HETATM   14  N           1      -2.446   2.712  -2.969  0.00  0.00    -0.360 N 
HETATM   15  H           1      -2.972   3.088  -2.181  0.00  0.00     0.162 HD
BRANCH  14  16
HETATM   16  C           1      -2.421   3.446  -4.242  0.00  0.00     0.132 C 
BRANCH  16  17
HETATM   17  C           1      -3.489   4.553  -4.337  0.00  0.00     0.094 C 
BRANCH  17  18
HETATM   18  S           1      -3.263   5.356  -5.960  0.00  0.00    -0.158 SA
BRANCH  18  19
HETATM   19  C           1      -4.575   6.617  -5.957  0.00  0.00     0.176 C 
BRANCH  19  20
HETATM   20  C           1      -4.597   7.450  -7.243  0.00  0.00     0.226 C 
HETATM   21  O           1      -3.811   7.324  -8.151  0.00  0.00    -0.273 OA
HETATM   22  N           1      -5.603   8.380  -7.297  0.00  0.00    -0.360 N 
HETATM   23  H           1      -6.264   8.444  -6.523  0.00  0.00     0.162 HD
BRANCH  22  24
HETATM   24  C           1      -5.786   9.242  -8.471  0.00  0.00     0.122 C 
BRANCH  24  25
HETATM   25  C           1      -6.869  10.308  -8.237  0.00  0.00     0.020 C 
BRANCH  25  26
HETATM   26  C           1      -7.068  11.182  -9.489  0.00  0.00     0.004 C 
BRANCH  26  27
HETATM   27  C           1      -8.144  12.264  -9.299  0.00  0.00     0.035 C 
BRANCH  27  28
HETATM   28  C           1      -8.392  13.079 -10.583  0.00  0.00     0.176 C 
BRANCH  28  29
HETATM   29  N           1      -7.179  13.808 -10.984  0.00  0.00    -0.348 N 
HETATM   30  H           1      -6.755  14.434 -10.300  0.00  0.00     0.163 HD
HETATM   31  C           1      -6.685  13.808 -12.260  0.00  0.00     0.214 C 
HETATM   32  O           1      -7.171  13.163 -13.156  0.00  0.00    -0.274 OA
HETATM   33  C           1      -5.468  14.692 -12.448  0.00  0.00     0.117 C 
ENDBRANCH  28  29
BRANCH  28  34
HETATM   34  C           1      -9.522  14.082 -10.383  0.00  0.00     0.238 C 
HETATM   35  N           1     -10.775  13.557 -10.399  0.00  0.00    -0.368 N 
HETATM   36  H           1     -10.931  12.569 -10.547  0.00  0.00     0.159 HD
HETATM   37  H           1     -11.555  14.187 -10.270  0.00  0.00     0.159 HD
HETATM   38  O           1      -9.339  15.260 -10.214  0.00  0.00    -0.271 OA
ENDBRANCH  28  34
ENDBRANCH  27  28
ENDBRANCH  26  27
ENDBRANCH  25  26
ENDBRANCH  24  25
ENDBRANCH  22  24
ENDBRANCH  19  20
ENDBRANCH  18  19
ENDBRANCH  17  18
ENDBRANCH  16  17
ENDBRANCH  14  16
ENDBRANCH  11  12
ENDBRANCH  10  11
ENDBRANCH   8  10
ENDBRANCH   4   6
ENDBRANCH   3   4
BRANCH   3  39
HETATM   39  C           1       0.372  -3.588   4.018  0.00  0.00     0.191 C 
BRANCH  39  40
HETATM   40  O           1       0.999  -4.770   4.465  0.00  0.00    -0.289 OA
BRANCH  40  41
HETATM   41  P           1       0.560  -5.433   5.916  0.00  0.00     0.417 P 
HETATM   42  O           1       0.645  -4.369   6.956  0.00  0.00    -0.624 OA
HETATM   43  O           1      -1.127  -5.569   5.509  0.00  0.00    -0.624 OA
BRANCH  41  44
HETATM   44  O           1       1.332  -6.810   6.282  0.00  0.00    -0.180 OA
BRANCH  44  45
HETATM   45  P           1       2.828  -6.669   6.934  0.00  0.00     0.417 P 
HETATM   46  O           1       3.580  -5.494   6.404  0.00  0.00    -0.624 OA
HETATM   47  O           1       3.050  -6.826   8.649  0.00  0.00    -0.624 OA
BRANCH  45  48
HETATM   48  O           1       3.641  -7.922   6.154  0.00  0.00    -0.287 OA
BRANCH  48  49
HETATM   49  C           1       3.995  -9.090   6.863  0.00  0.00     0.214 C 
BRANCH  49  50
HETATM   50  C           1       5.072  -9.904   6.119  0.00  0.00     0.155 C 
HETATM   51  O           1       6.163  -9.076   5.803  0.00  0.00    -0.356 OA
HETATM   52  C           1       7.107  -9.156   6.854  0.00  0.00     0.260 C 
HETATM   53  C           1       6.600 -10.201   7.835  0.00  0.00     0.174 C 
HETATM   54  C           1       5.686 -11.054   6.947  0.00  0.00     0.063 C 
BRANCH  52  55
HETATM   55  N           1       7.513  -7.926   7.543  0.00  0.00    -0.294 N 
HETATM   56  C           1       8.581  -7.844   8.210  0.00  0.00     0.167 A 
HETATM   57  N           1       9.550  -8.606   8.484  0.00  0.00    -0.222 NA
HETATM   58  C           1       8.545  -6.577   8.666  0.00  0.00     0.149 A 
HETATM   59  C           1      10.435  -8.073   9.210  0.00  0.00     0.237 A 
HETATM   60  N           1      10.514  -6.900   9.682  0.00  0.00    -0.222 NA
HETATM   61  C           1       9.555  -6.111   9.424  0.00  0.00     0.155 A 
HETATM   62  N           1       7.499  -5.989   8.258  0.00  0.00    -0.236 NA
HETATM   63  C           1       6.856  -6.844   7.576  0.00  0.00     0.214 A 
BRANCH  61  64
HETATM   64  N           1       9.519  -4.915   9.841  0.00  0.00    -0.382 N 
HETATM   65  H           1       8.709  -4.295   9.602  0.00  0.00     0.157 HD
HETATM   66  H           1      10.302  -4.540  10.430  0.00  0.00     0.157 HD
ENDBRANCH  61  64
ENDBRANCH  52  55
BRANCH  53  67
HETATM   67  O           1       7.666 -10.913   8.409  0.00  0.00    -0.391 OA
HETATM   68  H           1       8.234 -10.301   8.883  0.00  0.00     0.210 HD
ENDBRANCH  53  67
BRANCH  54  69
HETATM   69  C           1       6.521 -12.084   6.145  0.00  0.00     0.155 C 
BRANCH  69  70
HETATM   70  P           1       5.663 -13.425   5.213  0.00  0.00     0.260 P 
HETATM   71  O           1       6.019 -13.498   3.514  0.00  0.00    -0.640 OA
HETATM   72  O           1       6.328 -15.003   5.512  0.00  0.00    -0.640 OA
HETATM   73  O           1       4.189 -13.512   5.404  0.00  0.00    -0.640 OA
ENDBRANCH  69  70
ENDBRANCH  54  69
ENDBRANCH  49  50
ENDBRANCH  48  49
ENDBRANCH  45  48
ENDBRANCH  44  45
ENDBRANCH  41  44
ENDBRANCH  40  41
ENDBRANCH  39  40
ENDBRANCH   3  39
TORSDOF 30
