REMARK  31 active torsions:
REMARK  status: ('A' for Active; 'I' for Inactive)
REMARK    1  A    between atoms: C_6  and  N_10 
REMARK    2  A    between atoms: N_7  and  C_11 
REMARK    3  A    between atoms: C_13  and  C_18 
REMARK    4  A    between atoms: C_14  and  C_16 
REMARK    5  A    between atoms: C_15  and  O_17 
REMARK    6  A    between atoms: C_16  and  P_20 
REMARK    7  A    between atoms: C_18  and  O_19 
REMARK    8  A    between atoms: O_19  and  P_24 
REMARK    9  A    between atoms: P_24  and  O_25 
REMARK   10  A    between atoms: O_25  and  P_26 
REMARK   11  A    between atoms: P_26  and  O_27 
REMARK   12  A    between atoms: O_27  and  C_28 
REMARK   13  A    between atoms: C_28  and  C_29 
REMARK   14  A    between atoms: C_29  and  C_30 
REMARK   15  A    between atoms: C_30  and  C_31 
REMARK       I    between atoms: C_31  and  N_32 
REMARK   16  A    between atoms: N_32  and  C_33 
REMARK   17  A    between atoms: C_33  and  C_34 
REMARK   18  A    between atoms: C_34  and  C_43 
REMARK       I    between atoms: C_43  and  N_44 
REMARK   19  A    between atoms: N_44  and  C_45 
REMARK   20  A    between atoms: C_45  and  C_47 
REMARK   21  A    between atoms: C_47  and  S_48 
REMARK   22  A    between atoms: S_48  and  C_49 
REMARK   23  A    between atoms: C_49  and  C_50 
REMARK   24  A    between atoms: C_50  and  C_51 
REMARK   25  A    between atoms: C_51  and  C_53 
REMARK   26  A    between atoms: C_53  and  C_54 
REMARK   27  A    between atoms: C_54  and  C_55 
REMARK   28  A    between atoms: C_55  and  C_56 
REMARK   29  A    between atoms: C_56  and  C_57 
REMARK   30  A    between atoms: C_57  and  C_58 
REMARK   31  A    between atoms: C_57  and  N_59 
REMARK       I    between atoms: C_58  and  N_61 
REMARK       I    between atoms: N_59  and  C_62 
ROOT
HETATM    1  C           1       1.471  -2.707   1.340  0.00  0.00    -0.014 C 
HETATM    2  C           1       2.944  -2.270   1.500  0.00  0.00     0.018 C 
HETATM    3  C           1       1.388  -3.891   0.346  0.00  0.00     0.018 C 
ENDROOT
BRANCH   1   4
HETATM    4  C           1       0.980  -3.206   2.722  0.00  0.00     0.191 C 
BRANCH   4   5
HETATM    5  O           1       1.676  -4.352   3.160  0.00  0.00    -0.289 OA
BRANCH   5   6
HETATM    6  P           1       1.343  -5.001   4.641  0.00  0.00     0.417 P 
HETATM    7  O           1      -0.365  -5.178   4.351  0.00  0.00    -0.624 OA
HETATM    8  O           1       1.464  -3.923   5.663  0.00  0.00    -0.624 OA
BRANCH   6   9
HETATM    9  O           1       2.115  -6.377   5.001  0.00  0.00    -0.180 OA
BRANCH   9  10
HETATM   10  P           1       3.655  -6.255   5.503  0.00  0.00     0.417 P 
HETATM   11  O           1       4.055  -6.308   7.193  0.00  0.00    -0.624 OA
HETATM   12  O           1       4.409  -5.119   4.894  0.00  0.00    -0.624 OA
BRANCH  10  13
HETATM   13  O           1       4.532  -7.540   4.887  0.00  0.00    -0.287 OA
BRANCH  13  14
HETATM   14  C           1       4.725  -8.737   5.617  0.00  0.00     0.214 C 
BRANCH  14  15
HETATM   15  C           1       5.909  -9.531   5.027  0.00  0.00     0.155 C 
HETATM   16  O           1       7.006  -8.660   4.911  0.00  0.00    -0.356 OA
HETATM   17  C           1       7.878  -8.874   6.003  0.00  0.00     0.260 C 
HETATM   18  C           1       7.218  -9.895   6.908  0.00  0.00     0.174 C 
HETATM   19  C           1       6.421 -10.713   5.883  0.00  0.00     0.063 C 
BRANCH  17  20
HETATM   20  N           1       8.321  -7.656   6.694  0.00  0.00    -0.294 N 
HETATM   21  C           1       9.530  -7.455   7.004  0.00  0.00     0.167 A 
HETATM   22  N           1      10.626  -8.066   6.882  0.00  0.00    -0.222 NA
HETATM   23  C           1       9.466  -6.249   7.595  0.00  0.00     0.149 A 
HETATM   24  C           1      11.622  -7.449   7.360  0.00  0.00     0.237 A 
HETATM   25  N           1      11.675  -6.319   7.929  0.00  0.00    -0.222 NA
HETATM   26  C           1      10.588  -5.680   8.066  0.00  0.00     0.155 A 
HETATM   27  N           1       8.277  -5.812   7.609  0.00  0.00    -0.236 NA
HETATM   28  C           1       7.568  -6.700   7.045  0.00  0.00     0.214 A 
BRANCH  26  29
HETATM   29  N           1      10.536  -4.540   8.618  0.00  0.00    -0.382 N 
HETATM   30  H           1      11.410  -4.090   8.986  0.00  0.00     0.157 HD
HETATM   31  H           1       9.616  -4.042   8.710  0.00  0.00     0.157 HD
ENDBRANCH  26  29
ENDBRANCH  17  20
BRANCH  18  32
HETATM   32  O           1       8.173 -10.643   7.624  0.00  0.00    -0.391 OA
HETATM   33  H           1       7.739 -11.196   8.276  0.00  0.00     0.210 HD
ENDBRANCH  18  32
BRANCH  19  34
HETATM   34  C           1       7.346 -11.692   5.113  0.00  0.00     0.155 C 
BRANCH  34  35
HETATM   35  P           1       6.615 -13.136   4.226  0.00  0.00     0.260 P 
HETATM   36  O           1       7.629 -13.680   2.922  0.00  0.00    -0.640 OA
HETATM   37  O           1       6.705 -14.662   5.054  0.00  0.00    -0.640 OA
HETATM   38  O           1       5.264 -12.924   3.639  0.00  0.00    -0.640 OA
ENDBRANCH  34  35
ENDBRANCH  19  34
ENDBRANCH  14  15
ENDBRANCH  13  14
ENDBRANCH  10  13
ENDBRANCH   9  10
ENDBRANCH   6   9
ENDBRANCH   5   6
ENDBRANCH   4   5
ENDBRANCH   1   4
BRANCH   1  39
HETATM   39  C           1       0.549  -1.545   0.837  0.00  0.00     0.083 C 
HETATM   40  C           1       0.465  -0.342   1.800  0.00  0.00     0.020 C 
BRANCH  39  41
HETATM   41  C           1       0.803  -0.995  -0.572  0.00  0.00     0.222 C 
HETATM   42  N           1      -0.215  -0.213  -1.069  0.00  0.00    -0.360 N 
HETATM   43  H           1      -1.071  -0.114  -0.522  0.00  0.00     0.162 HD
HETATM   44  O           1       1.800  -1.177  -1.226  0.00  0.00    -0.273 OA
BRANCH  42  45
HETATM   45  C           1      -0.143   0.395  -2.407  0.00  0.00     0.132 C 
BRANCH  45  46
HETATM   46  C           1      -1.137   1.557  -2.609  0.00  0.00     0.122 C 
BRANCH  46  47
HETATM   47  C           1      -1.009   2.213  -3.984  0.00  0.00     0.219 C 
HETATM   48  N           1      -1.839   3.283  -4.201  0.00  0.00    -0.360 N 
HETATM   49  H           1      -2.467   3.587  -3.457  0.00  0.00     0.162 HD
HETATM   50  O           1      -0.234   1.830  -4.826  0.00  0.00    -0.274 OA
BRANCH  48  51
HETATM   51  C           1      -1.798   4.029  -5.468  0.00  0.00     0.132 C 
BRANCH  51  52
HETATM   52  C           1      -2.883   5.120  -5.566  0.00  0.00     0.094 C 
BRANCH  52  53
HETATM   53  S           1      -2.686   5.941  -7.185  0.00  0.00    -0.160 SA
BRANCH  53  54
HETATM   54  C           1      -4.042   7.154  -7.128  0.00  0.00     0.152 C 
BRANCH  54  55
HETATM   55  C           1      -4.178   8.009  -8.393  0.00  0.00     0.136 C 
HETATM   56  O           1      -3.456   7.879  -9.359  0.00  0.00    -0.297 OA
BRANCH  55  57
HETATM   57  C           1      -5.260   9.085  -8.468  0.00  0.00     0.079 C 
BRANCH  57  58
HETATM   58  C           1      -6.245   9.195  -7.296  0.00  0.00     0.007 C 
BRANCH  58  59
HETATM   59  C           1      -7.288  10.303  -7.535  0.00  0.00     0.000 C 
BRANCH  59  60
HETATM   60  C           1      -8.265  10.438  -6.356  0.00  0.00     0.002 C 
BRANCH  60  61
HETATM   61  C           1      -9.320  11.533  -6.596  0.00  0.00     0.035 C 
BRANCH  61  62
HETATM   62  C           1     -10.231  11.742  -5.371  0.00  0.00     0.176 C 
BRANCH  62  63
HETATM   63  C           1     -11.277  12.842  -5.550  0.00  0.00     0.238 C 
HETATM   64  O           1     -12.408  12.757  -5.145  0.00  0.00    -0.271 OA
HETATM   65  N           1     -10.854  13.960  -6.197  0.00  0.00    -0.368 N 
HETATM   66  H           1     -11.525  14.703  -6.329  0.00  0.00     0.159 HD
HETATM   67  H           1      -9.910  14.048  -6.545  0.00  0.00     0.159 HD
ENDBRANCH  62  63
BRANCH  62  68
HETATM   68  N           1     -10.922  10.487  -5.041  0.00  0.00    -0.348 N 
HETATM   69  C           1     -10.906   9.915  -3.797  0.00  0.00     0.214 C 
HETATM   70  C           1     -11.764   8.668  -3.689  0.00  0.00     0.117 C 
HETATM   71  O           1     -10.266  10.354  -2.875  0.00  0.00    -0.274 OA
HETATM   72  H           1     -11.513  10.063  -5.756  0.00  0.00     0.163 HD
ENDBRANCH  62  68
ENDBRANCH  61  62
ENDBRANCH  60  61
ENDBRANCH  59  60
ENDBRANCH  58  59
ENDBRANCH  57  58
ENDBRANCH  55  57
ENDBRANCH  54  55
ENDBRANCH  53  54
ENDBRANCH  52  53
ENDBRANCH  51  52
ENDBRANCH  48  51
ENDBRANCH  46  47
ENDBRANCH  45  46
ENDBRANCH  42  45
ENDBRANCH  39  41
ENDBRANCH   1  39
TORSDOF 31
