REMARK  32 active torsions:
REMARK  status: ('A' for Active; 'I' for Inactive)
REMARK    1  A    between atoms: C_6  and  N_10 
REMARK    2  A    between atoms: N_7  and  C_11 
REMARK    3  A    between atoms: C_13  and  C_18 
REMARK    4  A    between atoms: C_14  and  C_16 
REMARK    5  A    between atoms: C_15  and  O_17 
REMARK    6  A    between atoms: C_16  and  P_20 
REMARK    7  A    between atoms: C_18  and  O_19 
REMARK    8  A    between atoms: O_19  and  P_24 
REMARK    9  A    between atoms: P_24  and  O_25 
REMARK   10  A    between atoms: O_25  and  P_26 
REMARK   11  A    between atoms: P_26  and  O_27 
REMARK   12  A    between atoms: O_27  and  C_28 
REMARK   13  A    between atoms: C_28  and  C_29 
REMARK   14  A    between atoms: C_29  and  C_30 
REMARK   15  A    between atoms: C_30  and  C_31 
REMARK   16  A    between atoms: C_31  and  C_32 
REMARK   17  A    between atoms: C_32  and  C_33 
REMARK   18  A    between atoms: C_33  and  C_34 
REMARK   19  A    between atoms: C_34  and  C_39 
REMARK   20  A    between atoms: C_39  and  C_40 
REMARK   21  A    between atoms: C_40  and  C_41 
REMARK   22  A    between atoms: C_41  and  C_42 
REMARK   23  A    between atoms: C_42  and  S_43 
REMARK   24  A    between atoms: S_43  and  C_44 
REMARK   25  A    between atoms: C_44  and  C_45 
REMARK       I    between atoms: C_45  and  N_46 
REMARK   26  A    between atoms: N_46  and  C_48 
REMARK   27  A    between atoms: C_48  and  C_49 
REMARK   28  A    between atoms: C_49  and  C_50 
REMARK   29  A    between atoms: C_50  and  C_51 
REMARK   30  A    between atoms: C_51  and  C_52 
REMARK   31  A    between atoms: C_52  and  C_53 
REMARK   32  A    between atoms: C_52  and  N_54 
REMARK       I    between atoms: C_53  and  N_56 
REMARK       I    between atoms: N_54  and  C_57 
ROOT
HETATM    1  P           1       1.160  -5.751   6.366  0.00  0.00     0.417 P 
HETATM    2  O           1      -0.471  -6.293   6.646  0.00  0.00    -0.624 OA
HETATM    3  O           1       1.281  -4.551   7.241  0.00  0.00    -0.624 OA
ENDROOT
BRANCH   1   4
HETATM    4  O           1       2.291  -6.873   6.627  0.00  0.00    -0.180 OA
BRANCH   4   5
HETATM    5  P           1       3.848  -6.457   6.411  0.00  0.00     0.417 P 
HETATM    6  O           1       4.932  -6.189   7.746  0.00  0.00    -0.624 OA
HETATM    7  O           1       4.064  -5.432   5.350  0.00  0.00    -0.624 OA
BRANCH   5   8
HETATM    8  O           1       4.537  -7.813   5.696  0.00  0.00    -0.287 OA
BRANCH   8   9
HETATM    9  C           1       4.664  -9.008   6.435  0.00  0.00     0.214 C 
BRANCH   9  10
HETATM   10  C           1       5.650  -9.975   5.754  0.00  0.00     0.155 C 
HETATM   11  O           1       6.881  -9.347   5.522  0.00  0.00    -0.356 OA
HETATM   12  C           1       7.659  -9.429   6.703  0.00  0.00     0.260 C 
HETATM   13  C           1       6.975 -10.471   7.585  0.00  0.00     0.174 C 
HETATM   14  C           1       6.031 -11.192   6.611  0.00  0.00     0.063 C 
BRANCH  12  15
HETATM   15  N           1       7.937  -8.131   7.338  0.00  0.00    -0.294 N 
HETATM   16  C           1       8.511  -7.998   8.456  0.00  0.00     0.167 A 
HETATM   17  N           1       9.016  -8.775   9.312  0.00  0.00    -0.222 NA
HETATM   18  C           1       8.582  -6.663   8.620  0.00  0.00     0.149 A 
HETATM   19  C           1       9.561  -8.194  10.293  0.00  0.00     0.237 A 
HETATM   20  N           1       9.696  -6.959  10.533  0.00  0.00    -0.222 NA
HETATM   21  C           1       9.198  -6.147   9.696  0.00  0.00     0.155 A 
HETATM   22  N           1       8.059  -6.074   7.628  0.00  0.00    -0.236 NA
HETATM   23  C           1       7.655  -6.993   6.856  0.00  0.00     0.214 A 
BRANCH  21  24
HETATM   24  N           1       9.338  -4.898   9.848  0.00  0.00    -0.382 N 
HETATM   25  H           1       9.849  -4.519  10.683  0.00  0.00     0.157 HD
HETATM   26  H           1       8.945  -4.229   9.143  0.00  0.00     0.157 HD
ENDBRANCH  21  24
ENDBRANCH  12  15
BRANCH  13  27
HETATM   27  O           1       7.894 -11.345   8.190  0.00  0.00    -0.391 OA
HETATM   28  H           1       7.427 -11.994   8.720  0.00  0.00     0.210 HD
ENDBRANCH  13  27
BRANCH  14  29
HETATM   29  C           1       6.766 -12.314   5.832  0.00  0.00     0.155 C 
BRANCH  29  30
HETATM   30  P           1       5.776 -13.565   4.897  0.00  0.00     0.260 P 
HETATM   31  O           1       5.933 -13.569   3.168  0.00  0.00    -0.640 OA
HETATM   32  O           1       6.424 -15.171   5.065  0.00  0.00    -0.640 OA
HETATM   33  O           1       4.325 -13.618   5.227  0.00  0.00    -0.640 OA
ENDBRANCH  29  30
ENDBRANCH  14  29
ENDBRANCH   9  10
ENDBRANCH   8   9
ENDBRANCH   5   8
ENDBRANCH   4   5
ENDBRANCH   1   4
BRANCH   1  34
HETATM   34  O           1       0.899  -5.314   4.795  0.00  0.00    -0.290 OA
BRANCH  34  35
HETATM   35  C           1       0.613  -3.970   4.486  0.00  0.00     0.181 C 
BRANCH  35  36
HETATM   36  C           1       0.374  -3.795   2.981  0.00  0.00     0.027 C 
BRANCH  36  37
HETATM   37  C           1      -0.094  -2.362   2.659  0.00  0.00     0.002 C 
BRANCH  37  38
HETATM   38  C           1      -0.302  -2.097   1.155  0.00  0.00     0.000 C 
BRANCH  38  39
HETATM   39  C           1      -0.867  -0.686   0.896  0.00  0.00     0.000 C 
BRANCH  39  40
HETATM   40  C           1      -1.052  -0.365  -0.598  0.00  0.00     0.000 C 
BRANCH  40  41
HETATM   41  C           1      -1.680   1.025  -0.810  0.00  0.00     0.000 C 
BRANCH  41  42
HETATM   42  C           1      -1.874   1.395  -2.293  0.00  0.00     0.000 C 
BRANCH  42  43
HETATM   43  C           1      -2.521   2.783  -2.458  0.00  0.00     0.001 C 
BRANCH  43  44
HETATM   44  C           1      -2.734   3.192  -3.929  0.00  0.00     0.010 C 
BRANCH  44  45
HETATM   45  C           1      -3.336   4.606  -4.032  0.00  0.00     0.074 C 
BRANCH  45  46
HETATM   46  S           1      -3.581   5.080  -5.779  0.00  0.00    -0.160 SA
BRANCH  46  47
HETATM   47  C           1      -3.974   6.840  -5.509  0.00  0.00     0.176 C 
BRANCH  47  48
HETATM   48  C           1      -4.075   7.600  -6.828  0.00  0.00     0.226 C 
HETATM   49  N           1      -5.357   7.834  -7.251  0.00  0.00    -0.360 N 
HETATM   50  H           1      -6.126   7.439  -6.709  0.00  0.00     0.162 HD
HETATM   51  O           1      -3.095   7.983  -7.419  0.00  0.00    -0.273 OA
BRANCH  49  52
HETATM   52  C           1      -5.685   8.628  -8.443  0.00  0.00     0.122 C 
BRANCH  52  53
HETATM   53  C           1      -6.704   9.719  -8.075  0.00  0.00     0.020 C 
BRANCH  53  54
HETATM   54  C           1      -7.044  10.639  -9.261  0.00  0.00     0.004 C 
BRANCH  54  55
HETATM   55  C           1      -8.073  11.721  -8.883  0.00  0.00     0.035 C 
BRANCH  55  56
HETATM   56  C           1      -8.450  12.652 -10.049  0.00  0.00     0.176 C 
BRANCH  56  57
HETATM   57  C           1      -9.535  13.636  -9.622  0.00  0.00     0.238 C 
HETATM   58  O           1      -9.326  14.807  -9.426  0.00  0.00    -0.271 OA
HETATM   59  N           1     -10.776  13.104  -9.472  0.00  0.00    -0.368 N 
HETATM   60  H           1     -11.521  13.715  -9.170  0.00  0.00     0.159 HD
HETATM   61  H           1     -10.953  12.129  -9.664  0.00  0.00     0.159 HD
ENDBRANCH  56  57
BRANCH  56  62
HETATM   62  N           1      -7.305  13.453 -10.498  0.00  0.00    -0.348 N 
HETATM   63  C           1      -6.542  13.142 -11.589  0.00  0.00     0.214 C 
HETATM   64  C           1      -5.450  14.153 -11.878  0.00  0.00     0.117 C 
HETATM   65  O           1      -6.724  12.155 -12.256  0.00  0.00    -0.274 OA
HETATM   66  H           1      -7.116  14.312  -9.980  0.00  0.00     0.163 HD
ENDBRANCH  56  62
ENDBRANCH  55  56
ENDBRANCH  54  55
ENDBRANCH  53  54
ENDBRANCH  52  53
ENDBRANCH  49  52
ENDBRANCH  47  48
ENDBRANCH  46  47
ENDBRANCH  45  46
ENDBRANCH  44  45
ENDBRANCH  43  44
ENDBRANCH  42  43
ENDBRANCH  41  42
ENDBRANCH  40  41
ENDBRANCH  39  40
ENDBRANCH  38  39
ENDBRANCH  37  38
ENDBRANCH  36  37
ENDBRANCH  35  36
ENDBRANCH  34  35
ENDBRANCH   1  34
TORSDOF 32
