REMARK  1 active torsions:
REMARK  status: ('A' for Active; 'I' for Inactive)
REMARK    1  A    between atoms: C_17  and  C_23 
REMARK       I    between atoms: C_23  and  N_36 
ROOT
HETATM    1  C           1      -3.025  -2.804   3.384  0.00  0.00     0.088 C 
HETATM    2  C           1      -2.309  -3.802   3.976  0.00  0.00     0.178 C 
HETATM    3  C           1      -0.875  -3.523   4.424  0.00  0.00     0.024 C 
HETATM    4  C           1      -0.231  -2.526   3.411  0.00  0.00     0.017 C 
HETATM    5  C           1      -1.027  -1.213   3.168  0.00  0.00     0.004 C 
HETATM    6  C           1      -2.483  -1.618   3.053  0.00  0.00     0.014 C 
HETATM    7  C           1       0.094  -3.285   2.101  0.00  0.00     0.008 C 
HETATM    8  C           1      -0.180  -2.532   0.800  0.00  0.00     0.015 C 
HETATM    9  C           1       0.225  -1.048   0.831  0.00  0.00    -0.011 C 
HETATM   10  C           1      -0.674  -0.415   1.886  0.00  0.00    -0.055 C 
HETATM   11  C           1      -0.036  -0.374  -0.575  0.00  0.00    -0.022 C 
HETATM   12  C           1       0.037   1.160  -0.419  0.00  0.00     0.074 C 
HETATM   13  C           1      -0.920   1.653   0.657  0.00  0.00     0.154 C 
HETATM   14  C           1      -1.175   0.824   1.703  0.00  0.00     0.055 C 
HETATM   15  C           1       1.023  -0.777  -1.628  0.00  0.00     0.012 C 
HETATM   16  C           1       0.935   0.020  -2.938  0.00  0.00     0.020 C 
HETATM   17  C           1       1.195   1.537  -2.743  0.00  0.00     0.046 C 
HETATM   18  C           1       0.119   2.019  -1.712  0.00  0.00     0.016 C 
HETATM   19  C           1       0.998   2.330  -4.067  0.00  0.00     0.020 C 
HETATM   20  C           1       0.340   3.705  -3.874  0.00  0.00     0.010 C 
HETATM   21  C           1      -1.098   3.591  -3.321  0.00  0.00    -0.047 C 
HETATM   22  C           1      -1.208   2.324  -2.441  0.00  0.00     0.015 C 
HETATM   23  C           1      -4.315  -2.956   3.140  0.00  0.00     0.103 C 
HETATM   24  N           1      -5.447  -3.046   2.906  0.00  0.00    -0.191 NA
HETATM   25  C           1      -1.441  -0.775  -1.093  0.00  0.00     0.017 C 
HETATM   26  C           1      -0.037  -4.826   4.541  0.00  0.00     0.024 C 
HETATM   27  C           1      -1.014  -3.023   5.881  0.00  0.00     0.024 C 
HETATM   28  C           1       1.698  -0.931   1.291  0.00  0.00     0.021 C 
HETATM   29  C           1      -1.441   4.854  -2.500  0.00  0.00     0.015 C 
HETATM   30  C           1      -2.111   3.495  -4.484  0.00  0.00     0.015 C 
HETATM   31  O           1      -2.830  -4.872   4.210  0.00  0.00    -0.291 OA
HETATM   32  O           1      -1.417   2.759   0.608  0.00  0.00    -0.293 OA
HETATM   33  C           1      -0.781  -0.220   4.334  0.00  0.00     0.025 C 
ENDROOT
BRANCH  17  34
HETATM   34  C           1       2.652   1.765  -2.238  0.00  0.00     0.238 C 
HETATM   35  O           1       2.795   2.392  -1.206  0.00  0.00    -0.272 OA
HETATM   36  N           1       3.684   1.320  -2.845  0.00  0.00    -0.285 N 
HETATM   37  C           1       3.835   0.798  -3.999  0.00  0.00     0.120 A 
HETATM   38  C           1       4.874   1.321  -2.375  0.00  0.00     0.216 A 
HETATM   39  C           1       5.130   0.500  -4.166  0.00  0.00     0.135 A 
HETATM   40  N           1       5.766   0.836  -3.130  0.00  0.00    -0.254 NA
ENDBRANCH  17  34
TORSDOF 1
