REMARK  1 active torsions:
REMARK  status: ('A' for Active; 'I' for Inactive)
REMARK    1  A    between atoms: C_1  and  O_21 
ROOT
HETATM    1  C   UNN     0      -1.794   0.269  -0.873  0.00  0.00     0.126 C 
HETATM    2  C   UNN     0      -2.078   1.752  -0.648  0.00  0.00     0.033 C 
HETATM    3  C   UNN     0      -1.359  -0.280   0.491  0.00  0.00    -0.014 C 
HETATM    4  C   UNN     0      -0.590  -1.607   0.403  0.00  0.00     0.012 C 
HETATM    5  C   UNN     0       0.804  -1.480  -0.220  0.00  0.00     0.007 C 
HETATM    6  C   UNN     0      -1.289   2.131   0.619  0.00  0.00     0.008 C 
HETATM    7  C   UNN     0      -0.490   0.876   1.038  0.00  0.00     0.001 C 
HETATM    8  C   UNN     0       1.670  -0.458   0.542  0.00  0.00    -0.002 C 
HETATM    9  C   UNN     0       0.964   0.916   0.503  0.00  0.00    -0.005 C 
HETATM   10  C   UNN     0       3.171  -0.445   0.095  0.00  0.00    -0.036 C 
HETATM   11  C   UNN     0       3.319  -0.271  -1.435  0.00  0.00     0.010 C 
HETATM   12  C   UNN     0       4.772  -0.122  -1.915  0.00  0.00     0.005 C 
HETATM   13  C   UNN     0       1.791   1.932   1.314  0.00  0.00     0.006 C 
HETATM   14  C   UNN     0       3.942   0.695   0.815  0.00  0.00    -0.006 C 
HETATM   15  C   UNN     0       5.493   1.034  -1.207  0.00  0.00    -0.018 C 
HETATM   16  C   UNN     0       3.208   2.046   0.750  0.00  0.00     0.006 C 
HETATM   17  C   UNN     0       5.393   0.868   0.318  0.00  0.00     0.009 C 
HETATM   18  C   UNN     0       6.960   1.126  -1.657  0.00  0.00     0.010 C 
HETATM   19  C   UNN     0       3.805  -1.801   0.510  0.00  0.00     0.016 C 
HETATM   20  C   UNN     0      -2.586  -0.511   1.406  0.00  0.00     0.018 C 
ENDROOT
BRANCH   1  21
HETATM   21  O   UNN     0      -2.920  -0.397  -1.387  0.00  0.00    -0.395 OA
HETATM   22  H   UNN     0      -2.700  -1.318  -1.543  0.00  0.00     0.210 HD
ENDBRANCH   1  21
TORSDOF 1
