REMARK  0 active torsions:
REMARK  status: ('A' for Active; 'I' for Inactive)
ROOT
HETATM    1  N   UNN     0      -1.886   1.358  -0.188  0.00  0.00    -0.213 N 
HETATM    2  N   UNN     0      -0.380  -0.262  -0.455  0.00  0.00     0.130 NA
HETATM    3  N   UNN     0       0.090   1.408   0.836  0.00  0.00     0.133 NA
HETATM    4  N   UNN     0       0.835  -2.060  -0.570  0.00  0.00    -0.214 N 
HETATM    5  N   UNN     0       1.616  -0.189   0.440  0.00  0.00     0.050 N 
HETATM    6  N   UNN     0       2.135   1.417   1.689  0.00  0.00     0.047 NA
HETATM    7  N   UNN     0       3.134   0.679   1.541  0.00  0.00    -0.113 NA
HETATM    8  C   UNN     0      -2.849   0.663  -1.086  0.00  0.00     0.141 C 
HETATM    9  C   UNN     0      -3.369   1.652  -2.141  0.00  0.00     0.020 C 
HETATM   10  C   UNN     0      -3.909   2.929  -1.483  0.00  0.00     0.003 C 
HETATM   11  C   UNN     0      -2.818   3.600  -0.636  0.00  0.00     0.020 C 
HETATM   12  C   UNN     0      -2.291   2.643   0.444  0.00  0.00     0.141 C 
HETATM   13  C   UNN     0       1.231   0.889   0.985  0.00  0.00     0.783 C 
HETATM   14  C   UNN     0      -0.738   0.850   0.051  0.00  0.00     0.756 C 
HETATM   15  C   UNN     0       2.862  -0.259   0.725  0.00  0.00     0.202 C 
HETATM   16  C   UNN     0       3.882  -1.048   0.305  0.00  0.00     0.013 A 
HETATM   17  C   UNN     0       3.803  -1.879  -0.755  0.00  0.00     0.015 A 
HETATM   18  C   UNN     0       4.827  -2.646  -1.163  0.00  0.00     0.001 A 
HETATM   19  C   UNN     0       6.002  -2.594  -0.525  0.00  0.00     0.000 A 
HETATM   20  C   UNN     0       5.098  -0.986   0.893  0.00  0.00     0.015 A 
HETATM   21  C   UNN     0       6.135  -1.746   0.504  0.00  0.00     0.001 A 
HETATM   22  C   UNN     0       0.729  -0.840  -0.210  0.00  0.00     0.741 C 
HETATM   23  C   UNN     0      -0.073  -2.594  -1.618  0.00  0.00     0.141 C 
HETATM   24  C   UNN     0      -1.246  -3.341  -0.968  0.00  0.00     0.020 C 
HETATM   25  C   UNN     0      -0.722  -4.398   0.017  0.00  0.00     0.003 C 
HETATM   26  C   UNN     0       0.190  -3.758   1.076  0.00  0.00     0.020 C 
HETATM   27  C   UNN     0       1.380  -3.024   0.431  0.00  0.00     0.141 C 
ENDROOT
TORSDOF 0
