REMARK  1 active torsions:
REMARK  status: ('A' for Active; 'I' for Inactive)
REMARK    1  A    between atoms: C_2  and  O_21 
ROOT
ATOM      1  C   UNN dAMED       2.943   1.018  -0.184  0.00  0.00     0.025 A 
ATOM      2  C   UNN dAMED       4.073   0.206  -0.282  0.00  0.00     0.094 A 
ATOM      3  C   UNN dAMED       1.691   0.396  -0.022  0.00  0.00     0.013 A 
ATOM      4  C   UNN dAMED       1.636  -0.996   0.038  0.00  0.00     0.040 A 
ATOM      5  C   UNN dAMED       2.763  -1.816  -0.069  0.00  0.00     0.014 A 
ATOM      6  C   UNN dAMED       3.994  -1.179  -0.233  0.00  0.00     0.025 A 
ATOM      7  C   UNN dAMED       0.344   0.881   0.058  0.00  0.00     0.012 A 
ATOM      8  C   UNN dAMED      -0.500  -0.230   0.166  0.00  0.00     0.043 A 
ATOM      9  N   UNN dAMED       0.327  -1.314   0.241  0.00  0.00    -0.230 NA
ATOM     10  C   UNN dAMED      -0.078  -2.283  -0.718  0.00  0.00     0.100 C 
ATOM     11  C   UNN dAMED      -0.228   2.167   0.001  0.00  0.00     0.001 A 
ATOM     12  C   UNN dAMED      -1.617   2.300   0.045  0.00  0.00     0.003 A 
ATOM     13  C   UNN dAMED      -2.435   1.178   0.136  0.00  0.00     0.043 A 
ATOM     14  C   UNN dAMED      -1.897  -0.111   0.201  0.00  0.00     0.053 A 
ATOM     15  C   UNN dAMED      -2.783  -1.277   0.313  0.00  0.00     0.197 A 
ATOM     16  O   UNN dAMED      -2.364  -2.423   0.378  0.00  0.00    -0.286 OA
ATOM     17  C   UNN dAMED      -4.271  -1.058   0.341  0.00  0.00     0.045 A 
ATOM     18  C   UNN dAMED      -4.784   0.169   0.271  0.00  0.00     0.045 A 
ATOM     19  C   UNN dAMED      -3.890   1.372   0.171  0.00  0.00     0.196 A 
ATOM     20  O   UNN dAMED      -4.401   2.481   0.112  0.00  0.00    -0.287 OA
ENDROOT
BRANCH   2  21
ATOM     21  O   UNN dAMED       5.294   0.794  -0.439  0.00  0.00    -0.328 OA
ATOM     22  C   UNN dAMED       5.041   2.167  -0.434  0.00  0.00     0.181 C 
ENDBRANCH   2  21
TORSDOF 1
