REMARK  6 active torsions:
REMARK  status: ('A' for Active; 'I' for Inactive)
REMARK    1  A    between atoms: C_3  and  N_6 
REMARK    2  A    between atoms: C_3  and  C_8 
REMARK    3  A    between atoms: C_9  and  N_25 
REMARK       I    between atoms: C_11  and  N_25 
REMARK    4  A    between atoms: C_11  and  C_17 
REMARK    5  A    between atoms: C_17  and  C_18 
REMARK    6  A    between atoms: C_17  and  C_28 
ROOT
HETATM    1  C           1       1.120  -0.653  -1.000  0.00  0.00     0.231 C 
HETATM    2  O           1       2.009  -1.314  -0.527  0.00  0.00    -0.272 OA
HETATM    3  N           1       0.145  -0.167  -0.174  0.00  0.00    -0.353 N 
HETATM    4  H           1       0.233  -0.421   0.812  0.00  0.00     0.163 HD
ENDROOT
BRANCH   3   5
HETATM    5  C           1      -1.081   0.545  -0.572  0.00  0.00     0.118 C 
HETATM    6  C           1      -2.227  -0.469  -0.668  0.00  0.00     0.031 C 
HETATM    7  C           1      -2.363  -1.154   0.694  0.00  0.00     0.041 C 
HETATM    8  C           1      -2.382  -0.182   1.887  0.00  0.00     0.085 C 
HETATM    9  C           1      -3.813   0.301   2.175  0.00  0.00     0.048 C 
HETATM   10  O           1      -1.509   0.900   1.751  0.00  0.00    -0.366 OA
HETATM   11  C           1      -1.397   1.565   0.530  0.00  0.00     0.075 C 
HETATM   12  C           1      -2.594   2.476   0.224  0.00  0.00     0.048 C 
HETATM   13  C           1      -0.192   2.517   0.700  0.00  0.00     0.048 C 
BRANCH   8  14
HETATM   14  C           1      -1.902  -0.953   3.148  0.00  0.00     0.309 C 
BRANCH  14  15
HETATM   15  N           1      -0.509  -1.395   3.062  0.00  0.00     0.091 N 
HETATM   16  C           1       0.442  -0.437   3.620  0.00  0.00     0.272 C 
HETATM   17  C           1       0.452  -0.660   5.143  0.00  0.00     0.032 C 
HETATM   18  C           1      -0.127  -2.073   5.320  0.00  0.00     0.032 C 
HETATM   19  C           1      -0.249  -2.577   3.875  0.00  0.00     0.272 C 
ENDBRANCH  14  15
ENDBRANCH   8  14
ENDBRANCH   3   5
BRANCH   1  20
HETATM   20  C           1       1.013  -0.313  -2.488  0.00  0.00     0.143 C 
BRANCH  20  21
HETATM   21  C           1       1.952  -1.145  -3.349  0.00  0.00    -0.041 A 
HETATM   22  C           1       1.479  -2.108  -4.162  0.00  0.00     0.008 A 
HETATM   23  C           1       2.304  -2.844  -4.923  0.00  0.00     0.001 A 
HETATM   24  C           1       3.627  -2.629  -4.881  0.00  0.00     0.000 A 
HETATM   25  C           1       4.116  -1.676  -4.074  0.00  0.00     0.001 A 
HETATM   26  C           1       3.283  -0.944  -3.317  0.00  0.00     0.008 A 
ENDBRANCH  20  21
BRANCH  20  27
HETATM   27  C           1       1.224   1.157  -2.802  0.00  0.00    -0.041 A 
HETATM   28  C           1       2.004   1.943  -2.036  0.00  0.00     0.008 A 
HETATM   29  C           1       2.181   3.241  -2.328  0.00  0.00     0.001 A 
HETATM   30  C           1       1.579   3.776  -3.401  0.00  0.00     0.000 A 
HETATM   31  C           1       0.806   3.004  -4.180  0.00  0.00     0.001 A 
HETATM   32  C           1       0.636   1.707  -3.881  0.00  0.00     0.008 A 
ENDBRANCH  20  27
ENDBRANCH   1  20
TORSDOF 6
