REMARK  3 active torsions:
REMARK  status: ('A' for Active; 'I' for Inactive)
REMARK    1  A    between atoms: C_15  and  N_29 
REMARK    2  A    between atoms: C_17  and  C_30 
REMARK    3  A    between atoms: C_25  and  C_32 
REMARK       I    between atoms: N_29  and  C_30 
ROOT
ATOM      1  N   UNN dAMED       0.251  -0.309   1.585  0.00  0.00    -0.208 NA
ATOM      2  C   UNN dAMED       1.370  -0.267   0.849  0.00  0.00     0.279 C 
ATOM      3  O   UNN dAMED       1.696   0.543  -0.017  0.00  0.00    -0.265 OA
ENDROOT
BRANCH   1   4
ATOM      4  C   UNN dAMED      -0.923  -0.133   0.936  0.00  0.00     0.086 A 
ATOM      5  C   UNN dAMED      -2.063  -0.822   1.375  0.00  0.00     0.036 A 
ATOM      6  C   UNN dAMED      -3.333  -0.562   0.842  0.00  0.00     0.060 A 
ATOM      7  N   UNN dAMED      -4.446  -1.260   1.345  0.00  0.00    -0.321 N 
ATOM      8  C   UNN dAMED      -3.512   0.397  -0.158  0.00  0.00     0.016 A 
ATOM      9  H   UNN dAMED      -4.289  -1.941   2.082  0.00  0.00     0.169 HD
ATOM     10  C   UNN dAMED      -5.748  -1.060   0.905  0.00  0.00     0.258 A 
ATOM     11  O   UNN dAMED      -6.713  -1.670   1.357  0.00  0.00    -0.267 OA
ATOM     12  C   UNN dAMED      -5.948  -0.053  -0.166  0.00  0.00     0.056 A 
ATOM     13  C   UNN dAMED      -4.851   0.653  -0.681  0.00  0.00     0.006 A 
ATOM     14  C   UNN dAMED      -7.240   0.170  -0.649  0.00  0.00     0.005 A 
ATOM     15  C   UNN dAMED      -5.089   1.589  -1.695  0.00  0.00     0.000 A 
ATOM     16  C   UNN dAMED      -6.375   1.814  -2.184  0.00  0.00     0.000 A 
ATOM     17  C   UNN dAMED      -7.451   1.104  -1.659  0.00  0.00     0.000 A 
ATOM     18  C   UNN dAMED      -2.389   1.090  -0.603  0.00  0.00     0.003 A 
ATOM     19  C   UNN dAMED      -1.132   0.843  -0.048  0.00  0.00     0.019 A 
ENDBRANCH   1   4
BRANCH   2  20
ATOM     20  C   UNN dAMED       2.430  -1.189   1.316  0.00  0.00     0.058 A 
ATOM     21  C   UNN dAMED       2.977  -2.191   0.495  0.00  0.00     0.005 A 
ATOM     22  C   UNN dAMED       4.012  -2.973   1.033  0.00  0.00     0.000 A 
ATOM     23  C   UNN dAMED       2.595  -2.438  -0.899  0.00  0.00     0.006 A 
ATOM     24  C   UNN dAMED       4.502  -2.762   2.320  0.00  0.00     0.000 A 
ATOM     25  C   UNN dAMED       3.974  -1.744   3.102  0.00  0.00     0.000 A 
ATOM     26  C   UNN dAMED       2.945  -0.955   2.600  0.00  0.00     0.005 A 
ATOM     27  C   UNN dAMED       1.486  -3.218  -1.278  0.00  0.00     0.064 A 
ATOM     28  C   UNN dAMED       3.437  -1.950  -1.914  0.00  0.00     0.000 A 
ATOM     29  C   UNN dAMED       1.259  -3.499  -2.632  0.00  0.00     0.006 A 
ATOM     30  C   UNN dAMED       2.112  -3.014  -3.618  0.00  0.00     0.000 A 
ATOM     31  C   UNN dAMED       3.202  -2.232  -3.258  0.00  0.00     0.000 A 
BRANCH  27  32
ATOM     32  C   UNN dAMED       0.514  -3.773  -0.294  0.00  0.00     0.211 C 
ATOM     33  O   UNN dAMED       0.926  -4.718   0.443  0.00  0.00    -0.644 OA
ATOM     34  O   UNN dAMED      -0.650  -3.269  -0.312  0.00  0.00    -0.644 OA
ENDBRANCH  27  32
ENDBRANCH   2  20
TORSDOF 3
