REMARK  4 active torsions:
REMARK  status: ('A' for Active; 'I' for Inactive)
REMARK    1  A    between atoms: C_1  and  C_24 
REMARK    2  A    between atoms: C_5  and  O_22 
REMARK    3  A    between atoms: N_18  and  O_19 
REMARK    4  A    between atoms: N_26  and  O_27 
ROOT
HETATM    1  C   UNN     0       3.483   1.725   0.206  0.00  0.00     0.044 C 
HETATM    2  C   UNN     0       4.122   0.517   0.940  0.00  0.00     0.011 C 
HETATM    3  C   UNN     0       1.963   1.522   0.433  0.00  0.00    -0.029 C 
HETATM    4  C   UNN     0       1.035   2.127  -0.634  0.00  0.00     0.048 C 
HETATM    5  C   UNN     0      -0.424   1.609  -0.617  0.00  0.00     0.060 C 
HETATM    6  C   UNN     0       3.018  -0.552   1.084  0.00  0.00     0.006 C 
HETATM    7  C   UNN     0       1.869  -0.001   0.234  0.00  0.00    -0.001 C 
HETATM    8  C   UNN     0      -0.503   0.050  -0.667  0.00  0.00     0.032 C 
HETATM    9  C   UNN     0       0.446  -0.558   0.409  0.00  0.00    -0.002 C 
HETATM   10  C   UNN     0      -1.913  -0.654  -0.733  0.00  0.00    -0.033 C 
HETATM   11  C   UNN     0      -2.644  -0.346  -2.079  0.00  0.00     0.016 C 
HETATM   12  C   UNN     0      -3.490  -1.487  -2.666  0.00  0.00     0.058 C 
HETATM   13  C   UNN     0       0.518  -2.090   0.359  0.00  0.00     0.006 C 
HETATM   14  C   UNN     0      -1.794  -2.208  -0.616  0.00  0.00    -0.000 C 
HETATM   15  C   UNN     0      -2.597  -2.672  -2.903  0.00  0.00     0.040 C 
HETATM   16  C   UNN     0      -0.875  -2.688   0.513  0.00  0.00     0.006 C 
HETATM   17  C   UNN     0      -1.442  -2.869  -1.962  0.00  0.00     0.062 C 
HETATM   18  N   UNN     0      -2.789  -3.503  -3.833  0.00  0.00    -0.145 NA
HETATM   19  C   UNN     0      -1.132   2.341  -1.767  0.00  0.00     0.046 C 
HETATM   20  C   UNN     0      -2.833  -0.186   0.421  0.00  0.00     0.016 C 
HETATM   21  C   UNN     0       1.624   2.018   1.856  0.00  0.00     0.016 C 
ENDROOT
BRANCH   1  22
HETATM   22  C   UNN     0       4.052   3.088   0.533  0.00  0.00     0.040 C 
HETATM   23  C   UNN     0       3.641   4.297  -0.266  0.00  0.00     0.068 C 
HETATM   24  N   UNN     0       4.874   3.199   1.486  0.00  0.00    -0.145 NA
BRANCH  24  25
HETATM   25  O   UNN     0       5.407   4.344   1.859  0.00  0.00    -0.266 OA
HETATM   26  H   UNN     0       5.926   4.216   2.632  0.00  0.00     0.247 HD
ENDBRANCH  24  25
ENDBRANCH   1  22
BRANCH   5  27
HETATM   27  O   UNN     0      -1.015   2.080   0.566  0.00  0.00    -0.390 OA
HETATM   28  H   UNN     0      -1.920   2.351   0.403  0.00  0.00     0.210 HD
ENDBRANCH   5  27
BRANCH  18  29
HETATM   29  O   UNN     0      -3.794  -3.407  -4.679  0.00  0.00    -0.266 OA
HETATM   30  H   UNN     0      -3.798  -4.150  -5.255  0.00  0.00     0.247 HD
ENDBRANCH  18  29
TORSDOF 4
