REMARK  2 active torsions:
REMARK  status: ('A' for Active; 'I' for Inactive)
REMARK    1  A    between atoms: N_9  and  C_14 
REMARK    2  A    between atoms: C_14  and  C_15 
ROOT
ATOM      1  C   UNN dAMED      -4.034  -2.150   0.062  0.00  0.00    -0.022 A 
ATOM      2  C   UNN dAMED      -4.407  -0.828  -0.168  0.00  0.00    -0.004 A 
ATOM      3  C   UNN dAMED      -2.692  -2.478   0.241  0.00  0.00    -0.004 A 
ATOM      4  C   UNN dAMED      -3.435   0.168  -0.220  0.00  0.00     0.001 A 
ATOM      5  C   UNN dAMED      -1.719  -1.481   0.189  0.00  0.00     0.001 A 
ATOM      6  C   UNN dAMED      -2.091  -0.159  -0.048  0.00  0.00     0.011 A 
ATOM      7  C   UNN dAMED      -1.051   0.929  -0.054  0.00  0.00     0.041 C 
ATOM      8  C   UNN dAMED      -1.136   2.008   1.024  0.00  0.00     0.012 C 
ATOM      9  N   UNN dAMED      -0.452   1.332  -1.336  0.00  0.00    -0.226 NA
ATOM     10  C   UNN dAMED      -0.155   2.905   1.063  0.00  0.00     0.012 C 
ATOM     11  C   UNN dAMED       0.858   1.912  -0.948  0.00  0.00     0.062 C 
ATOM     12  C   UNN dAMED       0.969   2.758   0.080  0.00  0.00     0.080 C 
ATOM     13  C   UNN dAMED      -5.083  -3.223   0.130  0.00  0.00     0.031 C 
ATOM     14  C   UNN dAMED       2.187   3.447   0.289  0.00  0.00     0.102 C 
ATOM     15  N   UNN dAMED       3.188   4.010   0.455  0.00  0.00    -0.191 NA
ENDROOT
BRANCH   9  16
ATOM     16  C   UNN dAMED       0.238   0.083  -1.747  0.00  0.00     0.108 C 
BRANCH  16  17
ATOM     17  C   UNN dAMED       1.742   0.019  -1.800  0.00  0.00    -0.005 A 
ATOM     18  C   UNN dAMED       2.449  -0.513  -0.723  0.00  0.00    -0.003 A 
ATOM     19  C   UNN dAMED       3.839  -0.431  -0.694  0.00  0.00    -0.000 A 
ATOM     20  C   UNN dAMED       4.522   0.183  -1.742  0.00  0.00    -0.000 A 
ATOM     21  C   UNN dAMED       3.817   0.708  -2.821  0.00  0.00    -0.000 A 
ATOM     22  C   UNN dAMED       2.427   0.627  -2.851  0.00  0.00    -0.003 A 
ENDBRANCH  16  17
ENDBRANCH   9  16
TORSDOF 2
