REMARK  1 active torsions:
REMARK  status: ('A' for Active; 'I' for Inactive)
REMARK    1  A    between atoms: C_23  and  O_28 
ROOT
HETATM    1  C   UNN     0      -5.284  -3.708   0.856  0.00  0.00     0.001 A 
HETATM    2  C   UNN     0      -5.283  -4.623  -0.131  0.00  0.00     0.002 A 
HETATM    3  C   UNN     0      -4.239  -2.881   1.035  0.00  0.00     0.014 A 
HETATM    4  C   UNN     0      -4.236  -4.738  -0.967  0.00  0.00     0.030 A 
HETATM    5  C   UNN     0      -3.200  -3.000   0.200  0.00  0.00    -0.001 A 
HETATM    6  C   UNN     0      -3.201  -3.912  -0.782  0.00  0.00     0.043 A 
HETATM    7  N   UNN     0      -2.107  -3.807  -1.414  0.00  0.00    -0.358 N 
HETATM    8  H   UNN     0      -1.847  -4.403  -2.233  0.00  0.00     0.166 HD
HETATM    9  C   UNN     0      -2.034  -2.346   0.110  0.00  0.00    -0.022 A 
HETATM   10  C   UNN     0      -1.372  -2.889  -0.929  0.00  0.00     0.017 A 
HETATM   11  C   UNN     0      -1.534  -1.211   0.964  0.00  0.00     0.051 C 
HETATM   12  C   UNN     0      -0.006  -2.438  -1.369  0.00  0.00     0.063 C 
HETATM   13  C   UNN     0      -0.384  -0.475   0.238  0.00  0.00    -0.032 C 
HETATM   14  C   UNN     0       0.600  -1.579  -0.248  0.00  0.00    -0.000 C 
HETATM   15  C   UNN     0       0.380   0.541   1.134  0.00  0.00    -0.001 C 
HETATM   16  C   UNN     0      -0.447   1.331   2.161  0.00  0.00     0.007 C 
HETATM   17  C   UNN     0       1.994  -1.009  -0.552  0.00  0.00     0.006 C 
HETATM   18  C   UNN     0       2.656  -0.458   0.731  0.00  0.00     0.006 C 
HETATM   19  C   UNN     0       1.613  -0.098   1.805  0.00  0.00    -0.005 C 
HETATM   20  C   UNN     0       0.343   2.527   2.743  0.00  0.00     0.012 C 
HETATM   21  C   UNN     0       1.858   2.259   2.892  0.00  0.00    -0.014 C 
HETATM   22  C   UNN     0       2.095   0.740   3.000  0.00  0.00     0.001 C 
HETATM   23  C   UNN     0       2.456   2.680   4.248  0.00  0.00     0.126 C 
HETATM   24  C   UNN     0       3.531   0.592   3.515  0.00  0.00     0.008 C 
HETATM   25  C   UNN     0       3.717   1.823   4.428  0.00  0.00     0.033 C 
HETATM   26  C   UNN     0      -1.002   0.319  -0.942  0.00  0.00     0.016 C 
HETATM   27  C   UNN     0       2.655   2.938   1.754  0.00  0.00     0.018 C 
ENDROOT
BRANCH  23  28
HETATM   28  O   UNN     0       2.750   4.053   4.307  0.00  0.00    -0.395 OA
HETATM   29  H   UNN     0       2.991   4.287   5.206  0.00  0.00     0.210 HD
ENDBRANCH  23  28
TORSDOF 1
