REMARK  4 active torsions:
REMARK  status: ('A' for Active; 'I' for Inactive)
REMARK    1  A    between atoms: C_10  and  N_37 
REMARK    2  A    between atoms: C_16  and  C_35 
REMARK    3  A    between atoms: C_17  and  C_33 
REMARK    4  A    between atoms: C_23  and  N_32 
REMARK       I    between atoms: N_32  and  C_33 
REMARK       I    between atoms: C_35  and  N_37 
ROOT
ATOM      1 CL   UNN dAMED       0.587  -0.108   0.239  0.00  0.00    -0.082 Cl
ATOM      2  C   UNN dAMED      -2.489  -2.538  -0.746  0.00  0.00     0.010 A 
ATOM      3  C   UNN dAMED      -1.828  -3.764  -0.787  0.00  0.00     0.058 A 
ATOM      4  C   UNN dAMED      -1.794  -1.363  -0.421  0.00  0.00     0.069 A 
ATOM      5  C   UNN dAMED      -0.480  -3.863  -0.463  0.00  0.00     0.006 A 
ATOM      6  C   UNN dAMED      -0.423  -1.459  -0.125  0.00  0.00     0.062 A 
ATOM      7  C   UNN dAMED       0.216  -2.704  -0.135  0.00  0.00     0.012 A 
ENDROOT
BRANCH   3   8
ATOM      8  C   UNN dAMED      -2.574  -4.970  -1.176  0.00  0.00     0.279 C 
ATOM      9  O   UNN dAMED      -3.300  -5.463  -0.316  0.00  0.00    -0.265 OA
ATOM     10  N   UNN dAMED      -2.335  -5.333  -2.439  0.00  0.00    -0.208 NA
BRANCH  10  11
ATOM     11  C   UNN dAMED      -3.022  -6.365  -2.979  0.00  0.00     0.085 A 
ATOM     12  C   UNN dAMED      -4.251  -6.862  -2.516  0.00  0.00     0.019 A 
ATOM     13  C   UNN dAMED      -4.957  -7.860  -3.186  0.00  0.00     0.004 A 
ATOM     14  C   UNN dAMED      -4.437  -8.362  -4.370  0.00  0.00     0.033 A 
ATOM     15  C   UNN dAMED      -3.229  -7.904  -4.879  0.00  0.00     0.004 A 
ATOM     16  C   UNN dAMED      -5.218  -9.317  -5.136  0.00  0.00     0.132 A 
ATOM     17  C   UNN dAMED      -2.536  -6.921  -4.174  0.00  0.00     0.019 A 
ATOM     18  N   UNN dAMED      -6.208  -8.953  -5.925  0.00  0.00    -0.253 NA
ATOM     19  N   UNN dAMED      -4.999 -10.683  -5.095  0.00  0.00    -0.357 N 
ATOM     20  C   UNN dAMED      -6.771 -10.133  -6.513  0.00  0.00     0.151 A 
ATOM     21  C   UNN dAMED      -5.961 -11.311  -5.970  0.00  0.00     0.126 A 
ATOM     22  H   UNN dAMED      -4.260 -11.103  -4.545  0.00  0.00     0.162 HD
ENDBRANCH  10  11
ENDBRANCH   3   8
BRANCH   4  23
ATOM     23  C   UNN dAMED      -2.564  -0.075  -0.389  0.00  0.00     0.280 C 
ATOM     24  N   UNN dAMED      -3.640  -0.041  -1.182  0.00  0.00    -0.208 NA
ATOM     25  O   UNN dAMED      -2.144   0.862   0.284  0.00  0.00    -0.265 OA
BRANCH  24  26
ATOM     26  C   UNN dAMED      -4.840   0.046  -0.556  0.00  0.00     0.085 A 
ATOM     27  C   UNN dAMED      -5.049  -0.033   0.834  0.00  0.00     0.019 A 
ATOM     28  C   UNN dAMED      -6.324   0.046   1.403  0.00  0.00     0.004 A 
ATOM     29  C   UNN dAMED      -7.428   0.210   0.574  0.00  0.00     0.033 A 
ATOM     30  C   UNN dAMED      -7.263   0.287  -0.804  0.00  0.00     0.004 A 
ATOM     31  C   UNN dAMED      -8.782   0.306   1.123  0.00  0.00     0.132 A 
ATOM     32  C   UNN dAMED      -5.984   0.200  -1.350  0.00  0.00     0.019 A 
ATOM     33  N   UNN dAMED      -9.071   0.769   2.398  0.00  0.00    -0.357 N 
ATOM     34  N   UNN dAMED      -9.856  -0.021   0.428  0.00  0.00    -0.253 NA
ATOM     35  H   UNN dAMED      -8.355   1.017   3.069  0.00  0.00     0.162 HD
ATOM     36  C   UNN dAMED     -10.504   0.742   2.573  0.00  0.00     0.126 A 
ATOM     37  C   UNN dAMED     -11.017   0.225   1.231  0.00  0.00     0.151 A 
ENDBRANCH  24  26
ENDBRANCH   4  23
TORSDOF 4
