REMARK  3 active torsions:
REMARK  status: ('A' for Active; 'I' for Inactive)
REMARK    1  A    between atoms: C_9  and  N_18 
REMARK    2  A    between atoms: C_10  and  O_19 
REMARK       I    between atoms: N_18  and  C_21 
REMARK    3  A    between atoms: C_21  and  C_23 
ROOT
HETATM    1  O   UNN     0       1.810   3.932   0.469  0.00  0.00    -0.342 OA
HETATM    2  O   UNN     0       2.925   4.427  -1.497  0.00  0.00    -0.354 OA
HETATM    3  O   UNN     0      -0.076   1.676   1.126  0.00  0.00    -0.293 OA
HETATM    4  O   UNN     0       2.986   0.915  -1.077  0.00  0.00    -0.348 OA
HETATM    5  C   UNN     0       2.786   4.782  -0.129  0.00  0.00     0.295 C 
HETATM    6  C   UNN     0       3.089   2.216  -0.584  0.00  0.00     0.185 C 
HETATM    7  C   UNN     0       1.709   2.673  -0.151  0.00  0.00     0.227 C 
HETATM    8  C   UNN     0       1.075   1.625   0.750  0.00  0.00     0.185 C 
HETATM    9  C   UNN     0       1.990   0.467   1.156  0.00  0.00     0.212 C 
HETATM   10  C   UNN     0       2.775  -0.050  -0.061  0.00  0.00     0.289 C 
HETATM   11  C   UNN     0       2.353   6.232  -0.004  0.00  0.00    -0.004 A 
HETATM   12  C   UNN     0       3.066   7.119   0.713  0.00  0.00     0.012 A 
HETATM   13  C   UNN     0       2.673   8.398   0.816  0.00  0.00     0.001 A 
HETATM   14  C   UNN     0       1.554   8.809   0.201  0.00  0.00     0.000 A 
HETATM   15  C   UNN     0       0.833   7.935  -0.517  0.00  0.00     0.001 A 
HETATM   16  C   UNN     0       1.233   6.658  -0.616  0.00  0.00     0.012 A 
HETATM   17  C   UNN     0       3.570   3.184  -1.655  0.00  0.00     0.206 C 
ENDROOT
BRANCH   9  18
HETATM   18  N   UNN     0       1.134  -0.571   1.756  0.00  0.00    -0.341 N 
HETATM   19  C   UNN     0       1.515  -1.800   2.227  0.00  0.00     0.252 C 
HETATM   20  O   UNN     0       0.664  -2.656   2.141  0.00  0.00    -0.268 OA
HETATM   21  H   UNN     0       0.129  -0.455   1.621  0.00  0.00     0.163 HD
BRANCH  19  22
HETATM   22  C   UNN     0       2.791  -2.113   2.593  0.00  0.00     0.032 A 
HETATM   23  C   UNN     0       3.255  -3.366   2.412  0.00  0.00     0.017 A 
HETATM   24  C   UNN     0       4.510  -3.700   2.756  0.00  0.00     0.001 A 
HETATM   25  C   UNN     0       5.322  -2.789   3.309  0.00  0.00     0.000 A 
HETATM   26  C   UNN     0       4.864  -1.548   3.528  0.00  0.00     0.001 A 
HETATM   27  C   UNN     0       3.610  -1.220   3.180  0.00  0.00     0.017 A 
ENDBRANCH  19  22
ENDBRANCH   9  18
BRANCH  10  28
HETATM   28  O   UNN     0       4.065  -0.457   0.346  0.00  0.00    -0.363 OA
HETATM   29  C   UNN     0       4.674  -1.375  -0.535  0.00  0.00     0.204 C 
ENDBRANCH  10  28
TORSDOF 3
