REMARK  2 active torsions:
REMARK  status: ('A' for Active; 'I' for Inactive)
REMARK    1  A    between atoms: C_24  and  O_27 
REMARK    2  A    between atoms: O_27  and  C_28 
ROOT
ATOM      1  H   UNN dAMED       4.545   2.148   0.116  0.00  0.00     0.157 HD
ATOM      2  O   UNN dAMED       3.866  -0.057   1.046  0.00  0.00    -0.343 OA
ATOM      3  N   UNN dAMED       5.296   1.484  -0.055  0.00  0.00    -0.376 N 
ATOM      4  C   UNN dAMED       6.394   1.829  -0.944  0.00  0.00     0.095 C 
ATOM      5  C   UNN dAMED       7.580   0.874  -0.919  0.00  0.00     0.022 C 
ATOM      6  C   UNN dAMED       7.109  -0.575  -0.949  0.00  0.00     0.006 C 
ATOM      7  C   UNN dAMED       5.873  -0.867  -0.084  0.00  0.00     0.049 C 
ATOM      8  C   UNN dAMED       4.712   0.139  -0.121  0.00  0.00     0.153 C 
ATOM      9  C   UNN dAMED       3.768   0.111  -1.339  0.00  0.00     0.047 C 
ATOM     10  C   UNN dAMED       2.394   0.450  -0.811  0.00  0.00     0.035 C 
ATOM     11  C   UNN dAMED       2.656   0.555   0.664  0.00  0.00     0.121 C 
ATOM     12  C   UNN dAMED       1.084  -0.314  -1.267  0.00  0.00     0.018 C 
ATOM     13  C   UNN dAMED      -0.132   0.001  -2.156  0.00  0.00     0.008 C 
ATOM     14  C   UNN dAMED      -1.492  -0.630  -1.858  0.00  0.00     0.022 C 
ATOM     15  C   UNN dAMED       0.344   0.221   0.267  0.00  0.00    -0.046 C 
ATOM     16  C   UNN dAMED      -2.063  -0.306  -0.486  0.00  0.00    -0.046 C 
ATOM     17  C   UNN dAMED       1.354   0.367   1.382  0.00  0.00     0.051 C 
ATOM     18  C   UNN dAMED      -1.066  -0.219   0.649  0.00  0.00    -0.033 C 
ATOM     19  C   UNN dAMED      -3.517  -0.621  -0.137  0.00  0.00     0.030 C 
ATOM     20  C   UNN dAMED      -4.467  -0.286  -1.280  0.00  0.00     0.010 C 
ATOM     21  C   UNN dAMED      -5.961  -0.380  -0.980  0.00  0.00     0.031 C 
ATOM     22  C   UNN dAMED      -1.623   0.268   1.978  0.00  0.00     0.050 C 
ATOM     23  C   UNN dAMED      -3.922   0.157   1.071  0.00  0.00    -0.043 C 
ATOM     24  C   UNN dAMED      -6.391   0.246   0.343  0.00  0.00     0.128 C 
ATOM     25  C   UNN dAMED      -3.137   0.216   2.152  0.00  0.00    -0.030 C 
ATOM     26  C   UNN dAMED      -5.371   0.177   1.477  0.00  0.00     0.052 C 
ATOM     27  C   UNN dAMED      -3.346  -2.096   0.248  0.00  0.00     0.008 C 
ATOM     28  C   UNN dAMED       0.376   0.198   0.202  0.00  0.00     0.004 C 
ATOM     29  C   UNN dAMED       4.243   0.672  -2.682  0.00  0.00     0.004 C 
ATOM     30  C   UNN dAMED       8.733   1.232   0.030  0.00  0.00     0.002 C 
ENDROOT
BRANCH  24  31
ATOM     31  O   UNN dAMED      -7.742   0.421   0.630  0.00  0.00    -0.304 OA
BRANCH  31  32
ATOM     32  C   UNN dAMED      -8.130  -0.721   1.252  0.00  0.00     0.272 C 
ATOM     33  O   UNN dAMED      -7.405  -1.698   1.376  0.00  0.00    -0.264 OA
ATOM     34  C   UNN dAMED      -9.497  -0.754   1.876  0.00  0.00     0.106 C 
ENDBRANCH  31  32
ENDBRANCH  24  31
TORSDOF 2
