REMARK  0 active torsions:
REMARK  status: ('A' for Active; 'I' for Inactive)
ROOT
ATOM      1  O   UNN dAMED       0.926   3.018  -1.099  0.00  0.00    -0.286 OA
ATOM      2  O   UNN dAMED      -0.162  -0.639   0.217  0.00  0.00    -0.303 OA
ATOM      3  C   UNN dAMED       2.034  -1.385   0.628  0.00  0.00     0.260 A 
ATOM      4  C   UNN dAMED       1.193  -0.328   0.183  0.00  0.00     0.148 A 
ATOM      5  C   UNN dAMED       3.466  -1.147   0.617  0.00  0.00     0.278 A 
ATOM      6  C   UNN dAMED       1.704   0.905  -0.253  0.00  0.00     0.107 A 
ATOM      7  C   UNN dAMED       3.998   0.147   0.156  0.00  0.00     0.276 A 
ATOM      8  C   UNN dAMED       0.681   1.898  -0.682  0.00  0.00     0.203 A 
ATOM      9  C   UNN dAMED      -2.908  -1.319   0.407  0.00  0.00     0.005 A 
ATOM     10  C   UNN dAMED      -4.270  -1.632   0.442  0.00  0.00     0.042 A 
ATOM     11  C   UNN dAMED      -2.491  -0.092  -0.094  0.00  0.00     0.023 A 
ATOM     12  C   UNN dAMED      -5.278  -0.762  -0.006  0.00  0.00     0.196 A 
ATOM     13  C   UNN dAMED      -3.448   0.804  -0.551  0.00  0.00     0.005 A 
ATOM     14  C   UNN dAMED      -1.092   0.300  -0.150  0.00  0.00     0.103 A 
ATOM     15  C   UNN dAMED      -0.756   1.505  -0.589  0.00  0.00     0.067 A 
ATOM     16  C   UNN dAMED      -4.803   0.463  -0.502  0.00  0.00     0.042 A 
ATOM     17  C   UNN dAMED       3.095   1.199  -0.289  0.00  0.00     0.243 A 
ATOM     18  O   UNN dAMED       4.276  -2.074   1.011  0.00  0.00    -0.280 OA
ATOM     19  O   UNN dAMED       5.275   0.349   0.147  0.00  0.00    -0.280 OA
ATOM     20  O   UNN dAMED      -6.515  -1.058   0.034  0.00  0.00    -0.287 OA
ATOM     21  O   UNN dAMED       3.545   2.335  -0.693  0.00  0.00    -0.283 OA
ATOM     22  O   UNN dAMED       1.533  -2.504   1.023  0.00  0.00    -0.281 OA
ENDROOT
TORSDOF 0
