REMARK  1 active torsions:
REMARK  status: ('A' for Active; 'I' for Inactive)
REMARK    1  A    between atoms: C_4  and  C_6 
ROOT
ATOM      1  C   UNN dAMED      -3.270  -1.307  -0.254  0.00  0.00     0.199 A 
ATOM      2  C   UNN dAMED      -2.297  -2.259   0.180  0.00  0.00     0.056 A 
ATOM      3  C   UNN dAMED      -2.802   0.022  -0.305  0.00  0.00     0.096 A 
ATOM      4  C   UNN dAMED      -0.939  -2.012   0.513  0.00  0.00     0.193 A 
ATOM      5  C   UNN dAMED      -1.490   0.322   0.015  0.00  0.00     0.105 A 
ATOM      6  C   UNN dAMED      -0.576  -0.672   0.379  0.00  0.00     0.051 A 
ATOM      7  O   UNN dAMED      -0.945   1.586   0.075  0.00  0.00    -0.311 OA
ATOM      8  C   UNN dAMED       0.728  -0.012   0.700  0.00  0.00     0.119 A 
ATOM      9  C   UNN dAMED       0.353   1.441   0.556  0.00  0.00     0.091 A 
ATOM     10  C   UNN dAMED       1.279   2.395   0.421  0.00  0.00     0.063 C 
ATOM     11  C   UNN dAMED       1.892  -0.302  -0.232  0.00  0.00     0.186 C 
ATOM     12  O   UNN dAMED       1.963  -1.296  -0.948  0.00  0.00    -0.290 OA
ATOM     13  C   UNN dAMED       2.741   2.011   0.416  0.00  0.00     0.201 C 
ATOM     14  C   UNN dAMED       3.025   0.662  -0.126  0.00  0.00     0.083 C 
ATOM     15  O   UNN dAMED       3.590   2.869   0.608  0.00  0.00    -0.286 OA
ATOM     16  C   UNN dAMED       4.265   0.310  -0.464  0.00  0.00     0.054 C 
ATOM     17  O   UNN dAMED      -4.456  -1.682  -0.543  0.00  0.00    -0.287 OA
ATOM     18  C   UNN dAMED      -2.781  -3.673   0.362  0.00  0.00     0.038 C 
ATOM     19  O   UNN dAMED      -0.166  -2.941   0.916  0.00  0.00    -0.287 OA
ATOM     20  C   UNN dAMED       1.131  -0.307   2.147  0.00  0.00     0.019 C 
ATOM     21  C   UNN dAMED       4.537  -1.061  -1.013  0.00  0.00     0.047 C 
ATOM     22  N   UNN dAMED       5.331   1.242  -0.330  0.00  0.00    -0.105 NA
ENDROOT
BRANCH   3  23
ATOM     23  C   UNN dAMED      -3.654   1.153  -0.716  0.00  0.00     0.178 C 
ATOM     24  O   UNN dAMED      -4.738   1.350  -0.185  0.00  0.00    -0.291 OA
ATOM     25  C   UNN dAMED      -2.990   2.300  -1.428  0.00  0.00     0.077 C 
ENDBRANCH   3  23
TORSDOF 1
