REMARK  2 active torsions:
REMARK  status: ('A' for Active; 'I' for Inactive)
REMARK    1  A    between atoms: C_6  and  C_26 
REMARK    2  A    between atoms: C_10  and  O_24 
ROOT
HETATM    1  O   UNN     0      -3.506  -4.980  -1.564  0.00  0.00    -0.293 OA
HETATM    2  F   UNN     0      -0.136  -0.695  -0.970  0.00  0.00    -0.239 F 
HETATM    3  C   UNN     0       2.203   2.568   0.891  0.00  0.00     0.063 C 
HETATM    4  C   UNN     0       3.182   1.807   1.817  0.00  0.00     0.013 C 
HETATM    5  C   UNN     0       0.851   1.848   1.131  0.00  0.00    -0.027 C 
HETATM    6  C   UNN     0      -0.185   1.980   0.000  0.00  0.00     0.045 C 
HETATM    7  C   UNN     0      -1.303   0.928   0.069  0.00  0.00     0.160 C 
HETATM    8  C   UNN     0       2.544   0.428   2.098  0.00  0.00     0.007 C 
HETATM    9  C   UNN     0       1.354   0.384   1.131  0.00  0.00     0.002 C 
HETATM   10  C   UNN     0      -0.789  -0.502   0.182  0.00  0.00     0.144 C 
HETATM   11  C   UNN     0       0.221  -0.636   1.329  0.00  0.00     0.034 C 
HETATM   12  C   UNN     0      -1.849  -1.620   0.252  0.00  0.00     0.019 C 
HETATM   13  C   UNN     0      -2.913  -1.465  -0.857  0.00  0.00     0.025 C 
HETATM   14  C   UNN     0      -3.807  -2.703  -0.994  0.00  0.00     0.084 C 
HETATM   15  C   UNN     0       0.706  -2.086   1.543  0.00  0.00     0.013 C 
HETATM   16  C   UNN     0      -1.139  -2.947   0.005  0.00  0.00    -0.065 C 
HETATM   17  C   UNN     0      -3.007  -3.993  -1.067  0.00  0.00     0.149 C 
HETATM   18  C   UNN     0       0.314  -3.051   0.420  0.00  0.00     0.036 C 
HETATM   19  C   UNN     0      -1.737  -3.994  -0.588  0.00  0.00     0.053 C 
HETATM   20  C   UNN     0      -2.577  -1.733   1.613  0.00  0.00     0.023 C 
HETATM   21  C   UNN     0       0.263   2.326   2.481  0.00  0.00     0.016 C 
ENDROOT
BRANCH   3  22
HETATM   22  C   UNN     0       2.247   4.086   0.996  0.00  0.00     0.128 C 
HETATM   23  O   UNN     0       1.252   4.770   0.919  0.00  0.00    -0.298 OA
HETATM   24  C   UNN     0       3.616   4.729   1.147  0.00  0.00     0.091 C 
ENDBRANCH   3  22
BRANCH   7  25
HETATM   25  O   UNN     0      -2.185   1.238   1.117  0.00  0.00    -0.392 OA
HETATM   26  H   UNN     0      -2.332   2.185   1.159  0.00  0.00     0.210 HD
ENDBRANCH   7  25
TORSDOF 2
