REMARK  0 active torsions:
REMARK  status: ('A' for Active; 'I' for Inactive)
ROOT
ATOM      1  N   UNN dAMED       1.601   0.997   0.061  0.00  0.00    -0.238 NA
ATOM      2  N   UNN dAMED      -1.077   1.597  -0.095  0.00  0.00    -0.224 NA
ATOM      3  N   UNN dAMED      -0.606   3.852  -0.168  0.00  0.00    -0.194 NA
ATOM      4  N   UNN dAMED       1.639   4.632  -0.025  0.00  0.00    -0.199 NA
ATOM      5  C   UNN dAMED      -0.667   0.307  -0.030  0.00  0.00     0.101 A 
ATOM      6  C   UNN dAMED       0.686   0.002   0.027  0.00  0.00     0.099 A 
ATOM      7  C   UNN dAMED       0.317   4.831  -0.136  0.00  0.00     0.240 A 
ATOM      8  C   UNN dAMED      -0.184   2.586  -0.088  0.00  0.00     0.185 A 
ATOM      9  C   UNN dAMED       1.164   2.271   0.010  0.00  0.00     0.148 A 
ATOM     10  C   UNN dAMED       2.032   3.344   0.046  0.00  0.00     0.174 A 
ATOM     11  N   UNN dAMED       3.425   3.076   0.172  0.00  0.00    -0.078 NA
ATOM     12  N   UNN dAMED      -0.148   6.175  -0.232  0.00  0.00    -0.059 NA
ATOM     13  C   UNN dAMED      -1.762  -0.663  -0.009  0.00  0.00     0.019 A 
ATOM     14  C   UNN dAMED      -2.817  -0.572  -0.927  0.00  0.00     0.003 A 
ATOM     15  C   UNN dAMED      -3.900  -1.448  -0.868  0.00  0.00     0.014 A 
ATOM     16  C   UNN dAMED      -3.933  -2.440   0.106  0.00  0.00     0.070 A 
ATOM     17  C   UNN dAMED      -2.899  -2.545   1.030  0.00  0.00     0.014 A 
ATOM     18  C   UNN dAMED      -1.835  -1.648   0.981  0.00  0.00     0.003 A 
ATOM     19  C   UNN dAMED       1.236  -1.353   0.029  0.00  0.00     0.019 A 
ATOM     20  C   UNN dAMED       1.811  -1.904   1.181  0.00  0.00     0.003 A 
ATOM     21  C   UNN dAMED       2.322  -3.204   1.176  0.00  0.00     0.014 A 
ATOM     22  C   UNN dAMED       2.259  -3.972   0.017  0.00  0.00     0.070 A 
ATOM     23  C   UNN dAMED       1.694  -3.439  -1.138  0.00  0.00     0.014 A 
ATOM     24  C   UNN dAMED       1.195  -2.137  -1.130  0.00  0.00     0.003 A 
ATOM     25  N   UNN dAMED      -5.036  -3.337   0.172  0.00  0.00    -0.101 NA
ATOM     26  N   UNN dAMED       2.777  -5.298   0.007  0.00  0.00    -0.101 NA
ENDROOT
TORSDOF 0
