REMARK  3 active torsions:
REMARK  status: ('A' for Active; 'I' for Inactive)
REMARK    1  A    between atoms: C_15  and  N_28 
REMARK    2  A    between atoms: C_16  and  C_29 
REMARK    3  A    between atoms: C_23  and  C_31 
REMARK       I    between atoms: N_28  and  C_29 
ROOT
ATOM      1  N   UNN dAMED       0.046  -0.987   0.218  0.00  0.00    -0.208 NA
ATOM      2  C   UNN dAMED       1.083  -0.157   0.380  0.00  0.00     0.279 C 
ATOM      3  O   UNN dAMED       1.109   1.073   0.435  0.00  0.00    -0.265 OA
ENDROOT
BRANCH   2   4
ATOM      4  C   UNN dAMED       2.378  -0.840   0.575  0.00  0.00     0.058 A 
ATOM      5  C   UNN dAMED       3.167  -1.327  -0.488  0.00  0.00     0.005 A 
ATOM      6  C   UNN dAMED       2.715  -1.393  -1.889  0.00  0.00     0.006 A 
ATOM      7  C   UNN dAMED       4.454  -1.785  -0.167  0.00  0.00     0.000 A 
ATOM      8  C   UNN dAMED       2.651  -2.597  -2.626  0.00  0.00     0.064 A 
ATOM      9  C   UNN dAMED       2.323  -0.212  -2.537  0.00  0.00     0.000 A 
ATOM     10  C   UNN dAMED       2.156  -2.595  -3.938  0.00  0.00     0.006 A 
ATOM     11  C   UNN dAMED       1.736  -1.414  -4.539  0.00  0.00     0.000 A 
ATOM     12  C   UNN dAMED       1.831  -0.218  -3.841  0.00  0.00     0.000 A 
ATOM     13  C   UNN dAMED       4.926  -1.801   1.145  0.00  0.00     0.000 A 
ATOM     14  C   UNN dAMED       4.120  -1.338   2.178  0.00  0.00     0.000 A 
ATOM     15  C   UNN dAMED       2.853  -0.842   1.892  0.00  0.00     0.005 A 
BRANCH   8  16
ATOM     16  C   UNN dAMED       3.148  -3.900  -2.092  0.00  0.00     0.211 C 
ATOM     17  O   UNN dAMED       2.420  -4.478  -1.231  0.00  0.00    -0.644 OA
ATOM     18  O   UNN dAMED       4.255  -4.310  -2.559  0.00  0.00    -0.644 OA
ENDBRANCH   8  16
ENDBRANCH   2   4
BRANCH   1  19
ATOM     19  C   UNN dAMED      -1.105  -0.412  -0.203  0.00  0.00     0.085 A 
ATOM     20  C   UNN dAMED      -1.170   0.459  -1.304  0.00  0.00     0.021 A 
ATOM     21  C   UNN dAMED      -2.374   0.998  -1.749  0.00  0.00     0.026 A 
ATOM     22  C   UNN dAMED      -3.550   0.610  -1.121  0.00  0.00     0.103 A 
ATOM     23  O   UNN dAMED      -4.750   1.162  -1.618  0.00  0.00    -0.273 OA
ATOM     24  C   UNN dAMED      -3.563  -0.294  -0.064  0.00  0.00     0.025 A 
ATOM     25  C   UNN dAMED      -6.004   0.830  -1.113  0.00  0.00     0.300 A 
ATOM     26  O   UNN dAMED      -7.032   1.339  -1.543  0.00  0.00    -0.259 OA
ATOM     27  C   UNN dAMED      -6.028  -0.185  -0.039  0.00  0.00     0.064 A 
ATOM     28  C   UNN dAMED      -4.843  -0.721   0.479  0.00  0.00     0.007 A 
ATOM     29  C   UNN dAMED      -7.275  -0.602   0.434  0.00  0.00     0.005 A 
ATOM     30  C   UNN dAMED      -4.945  -1.689   1.485  0.00  0.00     0.000 A 
ATOM     31  C   UNN dAMED      -6.187  -2.112   1.958  0.00  0.00     0.000 A 
ATOM     32  C   UNN dAMED      -7.354  -1.568   1.431  0.00  0.00     0.000 A 
ATOM     33  C   UNN dAMED      -2.326  -0.781   0.386  0.00  0.00     0.021 A 
ENDBRANCH   1  19
TORSDOF 3
