REMARK  3 active torsions:
REMARK  status: ('A' for Active; 'I' for Inactive)
REMARK    1  A    between atoms: S_3  and  C_9 
REMARK    2  A    between atoms: S_3  and  C_10 
REMARK    3  A    between atoms: C_12  and  C_24 
ROOT
ATOM      1  O   UNN dAMED      -0.605  -1.162   1.871  0.00  0.00    -0.286 OA
ATOM      2  O   UNN dAMED      -3.596   0.372  -2.266  0.00  0.00    -0.287 OA
ATOM      3  C   UNN dAMED       0.476   0.995   0.169  0.00  0.00     0.038 A 
ATOM      4  C   UNN dAMED      -0.774   0.339   0.014  0.00  0.00     0.048 A 
ATOM      5  C   UNN dAMED       0.875   1.952  -0.798  0.00  0.00     0.070 A 
ATOM      6  C   UNN dAMED      -1.281  -0.707   0.957  0.00  0.00     0.196 A 
ATOM      7  C   UNN dAMED      -2.641  -1.245   0.785  0.00  0.00     0.042 A 
ATOM      8  C   UNN dAMED      -3.136  -2.154   1.723  0.00  0.00     0.003 A 
ATOM      9  C   UNN dAMED      -4.417  -2.680   1.578  0.00  0.00     0.000 A 
ATOM     10  C   UNN dAMED       0.044   2.257  -1.878  0.00  0.00     0.007 A 
ATOM     11  C   UNN dAMED      -1.591   0.682  -1.076  0.00  0.00     0.043 A 
ATOM     12  C   UNN dAMED      -3.430  -0.871  -0.294  0.00  0.00     0.042 A 
ATOM     13  C   UNN dAMED      -5.206  -2.303   0.494  0.00  0.00     0.000 A 
ATOM     14  C   UNN dAMED      -1.183   1.630  -2.014  0.00  0.00     0.004 A 
ATOM     15  C   UNN dAMED      -2.920   0.079  -1.287  0.00  0.00     0.196 A 
ATOM     16  C   UNN dAMED      -4.713  -1.399  -0.445  0.00  0.00     0.003 A 
ENDROOT
BRANCH   3  17
ATOM     17  S   UNN dAMED       1.593   0.675   1.547  0.00  0.00    -0.087 SA
BRANCH  17  18
ATOM     18  C   UNN dAMED       1.055   1.859   2.763  0.00  0.00     0.029 A 
ATOM     19  C   UNN dAMED      -0.200   2.468   2.723  0.00  0.00     0.006 A 
ATOM     20  C   UNN dAMED      -0.586   3.367   3.715  0.00  0.00     0.001 A 
ATOM     21  C   UNN dAMED       0.281   3.652   4.766  0.00  0.00     0.000 A 
ATOM     22  C   UNN dAMED       1.531   3.041   4.822  0.00  0.00     0.001 A 
ATOM     23  C   UNN dAMED       1.915   2.148   3.823  0.00  0.00     0.006 A 
ENDBRANCH  17  18
ENDBRANCH   3  17
BRANCH   5  24
ATOM     24  C   UNN dAMED       2.173   2.684  -0.729  0.00  0.00     0.211 C 
ATOM     25  O   UNN dAMED       3.162   2.133  -1.300  0.00  0.00    -0.644 OA
ATOM     26  O   UNN dAMED       2.162   3.795  -0.116  0.00  0.00    -0.644 OA
ENDBRANCH   5  24
TORSDOF 3
