REMARK  1 active torsions:
REMARK  status: ('A' for Active; 'I' for Inactive)
REMARK    1  A    between atoms: C_3  and  C_22 
ROOT
HETATM    1  O   UNN     0      -5.236  -3.206  -1.256  0.00  0.00    -0.289 OA
HETATM    2  O   UNN     0      -1.589   1.862   0.620  0.00  0.00    -0.297 OA
HETATM    3  C   UNN     0       2.792   1.650  -1.447  0.00  0.00     0.064 C 
HETATM    4  C   UNN     0       1.598   1.244  -0.552  0.00  0.00    -0.023 C 
HETATM    5  C   UNN     0       3.739   0.427  -1.366  0.00  0.00     0.013 C 
HETATM    6  C   UNN     0       0.251   1.913  -0.869  0.00  0.00     0.089 C 
HETATM    7  C   UNN     0      -0.863   1.211  -0.096  0.00  0.00     0.133 C 
HETATM    8  C   UNN     0       2.885  -0.778  -0.922  0.00  0.00     0.006 C 
HETATM    9  C   UNN     0       1.449  -0.243  -0.940  0.00  0.00    -0.000 C 
HETATM   10  C   UNN     0      -0.993  -0.301  -0.307  0.00  0.00     0.076 C 
HETATM   11  C   UNN     0       0.383  -0.992  -0.126  0.00  0.00     0.003 C 
HETATM   12  C   UNN     0      -2.130  -1.040   0.450  0.00  0.00     0.008 A 
HETATM   13  C   UNN     0      -3.489  -0.505   0.050  0.00  0.00    -0.008 A 
HETATM   14  C   UNN     0      -4.465  -1.248  -0.488  0.00  0.00     0.052 A 
HETATM   15  C   UNN     0       0.322  -2.476  -0.524  0.00  0.00     0.010 C 
HETATM   16  C   UNN     0      -2.082  -2.504   0.046  0.00  0.00    -0.063 A 
HETATM   17  C   UNN     0      -4.326  -2.568  -0.767  0.00  0.00     0.171 A 
HETATM   18  C   UNN     0      -0.766  -3.213   0.265  0.00  0.00     0.036 C 
HETATM   19  C   UNN     0      -3.128  -3.148  -0.496  0.00  0.00     0.058 A 
HETATM   20  C   UNN     0      -2.031  -0.939   1.986  0.00  0.00     0.025 C 
HETATM   21  C   UNN     0       1.949   1.484   0.932  0.00  0.00     0.016 C 
ENDROOT
BRANCH   3  22
HETATM   22  C   UNN     0       3.440   3.000  -1.150  0.00  0.00     0.128 C 
HETATM   23  O   UNN     0       4.553   3.102  -0.687  0.00  0.00    -0.298 OA
HETATM   24  C   UNN     0       2.641   4.251  -1.474  0.00  0.00     0.091 C 
ENDBRANCH   3  22
TORSDOF 1
