REMARK  5 active torsions:
REMARK  status: ('A' for Active; 'I' for Inactive)
REMARK    1  A    between atoms: C_3  and  O_25 
REMARK    2  A    between atoms: C_5  and  O_24 
REMARK    3  A    between atoms: C_9  and  O_27 
REMARK    4  A    between atoms: C_12  and  O_21 
REMARK    5  A    between atoms: C_13  and  O_20 
ROOT
HETATM    1  O           1      -0.029   2.593  -1.830  0.00  0.00    -0.313 OA
HETATM    2  O           1      -0.431   2.679  -4.065  0.00  0.00    -0.262 OA
HETATM    3  C           1      -2.137  -1.835  -0.337  0.00  0.00     0.185 C 
HETATM    4  O           1      -3.169   0.275  -0.029  0.00  0.00    -0.352 OA
HETATM    5  C           1      -2.267  -0.636   0.570  0.00  0.00     0.193 C 
HETATM    6  C           1      -1.805  -1.415  -1.777  0.00  0.00     0.024 C 
HETATM    7  C           1      -0.763  -0.272  -1.791  0.00  0.00     0.044 C 
HETATM    8  C           1      -1.019   0.197   0.768  0.00  0.00     0.076 C 
HETATM    9  C           1      -0.703   0.545  -3.090  0.00  0.00     0.223 C 
HETATM   10  C           1      -0.952   0.748  -0.654  0.00  0.00     0.025 C 
HETATM   11  C           1       0.309  -0.064   1.514  0.00  0.00     0.002 C 
HETATM   12  C           1       1.344  -0.972   0.830  0.00  0.00     0.160 C 
HETATM   13  C           1       2.632  -1.108   1.612  0.00  0.00     0.170 C 
HETATM   14  C           1      -0.373   2.044  -3.033  0.00  0.00     0.288 C 
HETATM   15  C           1       0.210   1.716  -0.782  0.00  0.00     0.144 C 
HETATM   16  C           1       0.954   1.370   1.664  0.00  0.00     0.028 C 
HETATM   17  C           1       3.192   0.243   1.933  0.00  0.00     0.010 C 
HETATM   18  C           1       0.547   2.387   0.547  0.00  0.00     0.043 C 
HETATM   19  C           1       2.450   1.362   1.955  0.00  0.00    -0.080 C 
HETATM   20  C           1       3.085   2.674   2.365  0.00  0.00     0.043 C 
HETATM   21  C           1      -0.026  -0.629   2.916  0.00  0.00     0.019 C 
HETATM   22  C           1      -1.357  -2.626  -2.611  0.00  0.00     0.013 C 
HETATM   23  C           1      -2.399   1.269  -0.681  0.00  0.00     0.184 C 
ENDROOT
BRANCH   3  24
HETATM   24  O           1      -3.361  -2.534  -0.311  0.00  0.00    -0.390 OA
HETATM   25  H           1      -3.232  -3.425  -0.642  0.00  0.00     0.210 HD
ENDBRANCH   3  24
BRANCH   5  26
HETATM   26  O           1      -2.858  -1.011   1.791  0.00  0.00    -0.363 OA
HETATM   27  H           1      -3.681  -1.457   1.571  0.00  0.00     0.213 HD
ENDBRANCH   5  26
BRANCH   9  28
HETATM   28  O           1       0.210  -0.034  -4.005  0.00  0.00    -0.385 OA
HETATM   29  H           1       0.198   0.488  -4.815  0.00  0.00     0.210 HD
ENDBRANCH   9  28
BRANCH  12  30
HETATM   30  O           1       0.878  -2.275   0.596  0.00  0.00    -0.392 OA
HETATM   31  H           1       1.635  -2.808   0.335  0.00  0.00     0.210 HD
ENDBRANCH  12  30
BRANCH  13  32
HETATM   32  O           1       3.544  -1.846   0.821  0.00  0.00    -0.389 OA
HETATM   33  H           1       4.415  -1.794   1.218  0.00  0.00     0.210 HD
ENDBRANCH  13  32
TORSDOF 5
