REMARK  2 active torsions:
REMARK  status: ('A' for Active; 'I' for Inactive)
REMARK    1  A    between atoms: C_1  and  N_27 
REMARK    2  A    between atoms: C_5  and  N_26 
REMARK       I    between atoms: C_7  and  N_17 
REMARK       I    between atoms: C_7  and  N_26 
REMARK       I    between atoms: C_9  and  N_11 
REMARK       I    between atoms: C_9  and  N_27 
ROOT
HETATM    1  C           1       0.494  -1.441   1.385  0.00  0.00     0.044 A 
HETATM    2  C           1       0.837  -2.728   1.169  0.00  0.00    -0.035 A 
HETATM    3  C           1      -0.150  -3.630   1.009  0.00  0.00     0.011 A 
HETATM    4  C           1      -1.444  -3.283   1.060  0.00  0.00     0.030 A 
HETATM    5  C           1      -1.793  -2.007   1.282  0.00  0.00     0.038 A 
HETATM    6  C           1      -0.810  -1.112   1.466  0.00  0.00     0.059 A 
HETATM    7  C           1       2.258  -3.250   1.192  0.00  0.00     0.050 C 
ENDROOT
BRANCH   1   8
HETATM    8  N           1       1.329  -0.397   1.572  0.00  0.00    -0.308 N 
HETATM    9  C           1       2.657  -0.196   1.340  0.00  0.00     0.323 C 
HETATM   10  O           1       3.268   0.442   2.155  0.00  0.00    -0.247 OA
HETATM   11  N           1       3.269  -0.637   0.188  0.00  0.00    -0.331 N 
HETATM   12  C           1       4.716  -0.667   0.020  0.00  0.00     0.157 C 
HETATM   13  C           1       2.571  -0.785  -1.086  0.00  0.00     0.157 C 
HETATM   14  C           1       5.124   0.496  -0.897  0.00  0.00     0.291 C 
HETATM   15  N           1       4.439   0.406  -2.181  0.00  0.00     0.087 N 
HETATM   16  C           1       4.837   1.491  -3.064  0.00  0.00     0.310 C 
HETATM   17  C           1       2.993   0.382  -1.995  0.00  0.00     0.291 C 
HETATM   18  H           1       0.836   0.409   1.926  0.00  0.00     0.170 HD
ENDBRANCH   1   8
BRANCH   5  19
HETATM   19  N           1      -3.113  -1.736   1.338  0.00  0.00    -0.309 N 
HETATM   20  C           1      -3.827  -0.581   1.462  0.00  0.00     0.323 C 
HETATM   21  O           1      -4.893  -0.663   2.012  0.00  0.00    -0.247 OA
HETATM   22  N           1      -3.381   0.633   0.990  0.00  0.00    -0.331 N 
HETATM   23  C           1      -3.868   1.907   1.504  0.00  0.00     0.157 C 
HETATM   24  C           1      -2.662   0.788  -0.270  0.00  0.00     0.157 C 
HETATM   25  C           1      -4.809   2.535   0.465  0.00  0.00     0.291 C 
HETATM   26  N           1      -4.124   2.709  -0.809  0.00  0.00     0.087 N 
HETATM   27  C           1      -4.997   3.332  -1.792  0.00  0.00     0.310 C 
HETATM   28  C           1      -3.611   1.434  -1.294  0.00  0.00     0.291 C 
HETATM   29  H           1      -3.660  -2.583   1.315  0.00  0.00     0.170 HD
ENDBRANCH   5  19
TORSDOF 2
