REMARK  9 active torsions:
REMARK  status: ('A' for Active; 'I' for Inactive)
REMARK    1  A    between atoms: C_2  and  N_21 
REMARK    2  A    between atoms: C_7  and  N_22 
REMARK    3  A    between atoms: C_8  and  N_22 
REMARK    4  A    between atoms: C_15  and  N_29 
REMARK    5  A    between atoms: N_21  and  S_23 
REMARK    6  A    between atoms: S_23  and  C_26 
REMARK    7  A    between atoms: C_26  and  C_27 
REMARK    8  A    between atoms: C_27  and  C_28 
REMARK    9  A    between atoms: C_28  and  N_32 
ROOT
ATOM      1  N   UNN dAMED      -2.354  -2.133   0.671  0.00  0.00    -0.245 NA
ENDROOT
BRANCH   1   2
ATOM      2  C   UNN dAMED      -1.437  -2.537  -0.244  0.00  0.00     0.082 A 
ATOM      3  C   UNN dAMED      -1.107  -1.839  -1.411  0.00  0.00     0.021 A 
ATOM      4  C   UNN dAMED      -0.101  -2.273  -2.272  0.00  0.00     0.021 A 
ATOM      5  C   UNN dAMED       0.662  -3.412  -2.001  0.00  0.00     0.094 A 
ATOM      6  C   UNN dAMED       0.338  -4.115  -0.838  0.00  0.00     0.021 A 
ATOM      7  C   UNN dAMED      -0.684  -3.686   0.018  0.00  0.00     0.021 A 
BRANCH   5   8
ATOM      8  N   UNN dAMED       1.606  -3.902  -2.833  0.00  0.00    -0.162 NA
BRANCH   8   9
ATOM      9  S   UNN dAMED       2.432  -2.920  -3.777  0.00  0.00     0.265 S 
ATOM     10  O   UNN dAMED       3.335  -2.011  -3.078  0.00  0.00    -0.203 OA
ATOM     11  O   UNN dAMED       1.651  -2.302  -4.846  0.00  0.00    -0.203 OA
BRANCH   9  12
ATOM     12  C   UNN dAMED       3.526  -4.034  -4.649  0.00  0.00     0.148 C 
BRANCH  12  13
ATOM     13  C   UNN dAMED       2.940  -5.272  -5.334  0.00  0.00     0.045 C 
BRANCH  13  14
ATOM     14  C   UNN dAMED       3.663  -5.909  -6.523  0.00  0.00     0.130 C 
BRANCH  14  15
ATOM     15  N   UNN dAMED       5.108  -6.054  -6.496  0.00  0.00    -0.239 NA
ATOM     16  C   UNN dAMED       5.677  -6.810  -5.573  0.00  0.00     0.252 C 
ATOM     17  N   UNN dAMED       6.245  -8.064  -5.937  0.00  0.00    -0.059 NA
ATOM     18  N   UNN dAMED       5.223  -6.623  -4.345  0.00  0.00    -0.111 N 
ENDBRANCH  14  15
ENDBRANCH  13  14
ENDBRANCH  12  13
ENDBRANCH   9  12
ENDBRANCH   8   9
ENDBRANCH   5   8
ENDBRANCH   1   2
BRANCH   1  19
ATOM     19  C   UNN dAMED      -3.281  -1.224   0.253  0.00  0.00     0.084 A 
ATOM     20  C   UNN dAMED      -4.564  -1.633  -0.197  0.00  0.00     0.035 A 
ATOM     21  C   UNN dAMED      -4.937  -2.988  -0.301  0.00  0.00     0.003 A 
ATOM     22  C   UNN dAMED      -5.509  -0.648  -0.545  0.00  0.00     0.083 A 
ATOM     23  C   UNN dAMED      -6.205  -3.369  -0.728  0.00  0.00     0.000 A 
ATOM     24  C   UNN dAMED      -7.129  -2.391  -1.057  0.00  0.00     0.002 A 
ATOM     25  C   UNN dAMED      -6.770  -1.048  -0.965  0.00  0.00     0.019 A 
ATOM     26  N   UNN dAMED      -5.243   0.663  -0.478  0.00  0.00    -0.245 NA
ATOM     27  C   UNN dAMED      -4.041   1.071  -0.054  0.00  0.00     0.084 A 
ATOM     28  C   UNN dAMED      -3.027   0.172   0.337  0.00  0.00     0.035 A 
ATOM     29  C   UNN dAMED      -3.788   2.433   0.002  0.00  0.00     0.043 A 
ATOM     30  C   UNN dAMED      -1.790   0.690   0.785  0.00  0.00     0.005 A 
ATOM     31  C   UNN dAMED      -1.529   2.052   0.828  0.00  0.00     0.024 A 
ATOM     32  C   UNN dAMED      -2.549   2.895   0.430  0.00  0.00     0.128 A 
BRANCH  32  33
ATOM     33  N   UNN dAMED      -2.315   4.309   0.444  0.00  0.00    -0.114 N 
ATOM     34  O   UNN dAMED      -2.448   4.888   1.529  0.00  0.00    -0.532 OA
ATOM     35  O   UNN dAMED      -1.998   4.839  -0.628  0.00  0.00    -0.532 OA
ENDBRANCH  32  33
ENDBRANCH   1  19
TORSDOF 9
