REMARK  2 active torsions:
REMARK  status: ('A' for Active; 'I' for Inactive)
REMARK       I    between atoms: N_1  and  C_32 
REMARK       I    between atoms: N_2  and  C_34 
REMARK    1  A    between atoms: C_12  and  N_31 
REMARK    2  A    between atoms: C_17  and  N_36 
REMARK       I    between atoms: N_31  and  C_32 
REMARK       I    between atoms: C_34  and  N_36 
ROOT
HETATM    1  N           1       0.173   0.441   1.176  0.00  0.00    -0.331 N 
HETATM    2  N           1      -1.298   0.158  -1.227  0.00  0.00    -0.331 N 
HETATM    3  C           1      -0.596   1.409  -0.950  0.00  0.00     0.147 C 
HETATM    4  C           1       0.612   1.108  -0.051  0.00  0.00     0.147 C 
HETATM    5  C           1      -1.783  -0.480  -0.005  0.00  0.00     0.147 C 
HETATM    6  C           1      -0.592  -0.780   0.922  0.00  0.00     0.147 C 
HETATM    7  N           1       0.226   0.096   3.509  0.00  0.00    -0.309 N 
HETATM    8  C           1       0.469   0.916   2.439  0.00  0.00     0.323 C 
HETATM    9  O           1       0.958   2.006   2.579  0.00  0.00    -0.247 OA
HETATM   10  C           1      -1.433  -0.401  -2.483  0.00  0.00     0.323 C 
HETATM   11  O           1      -2.058  -1.418  -2.630  0.00  0.00    -0.247 OA
HETATM   12  N           1      -0.820   0.221  -3.538  0.00  0.00    -0.309 N 
HETATM   13  H           1      -0.052  -0.853   3.310  0.00  0.00     0.170 HD
HETATM   14  H           1      -0.222   1.006  -3.331  0.00  0.00     0.170 HD
ENDROOT
BRANCH   7  15
HETATM   15  C           1       0.300   0.265   4.847  0.00  0.00     0.037 A 
HETATM   16  C           1       0.037  -0.830   5.590  0.00  0.00     0.042 A 
HETATM   17  C           1       0.056  -0.879   6.943  0.00  0.00    -0.024 A 
HETATM   18  C           1      -0.213  -2.010   7.656  0.00  0.00    -0.026 A 
HETATM   19  C           1       0.367   0.301   7.525  0.00  0.00     0.012 A 
HETATM   20  C           1      -0.523  -3.194   7.079  0.00  0.00     0.012 A 
HETATM   21  C           1      -0.194  -2.049   9.009  0.00  0.00     0.012 A 
HETATM   22  C           1      -0.789  -4.313   7.773  0.00  0.00     0.001 A 
HETATM   23  C           1      -0.758  -4.304   9.110  0.00  0.00     0.000 A 
HETATM   24  C           1      -0.456  -3.154   9.725  0.00  0.00     0.001 A 
HETATM   25  C           1       0.629   1.415   6.825  0.00  0.00     0.003 A 
HETATM   26  C           1       0.596   1.405   5.488  0.00  0.00     0.029 A 
ENDBRANCH   7  15
BRANCH  12  27
HETATM   27  C           1      -0.810   0.004  -4.872  0.00  0.00     0.037 A 
HETATM   28  C           1      -1.515  -0.928  -5.531  0.00  0.00     0.029 A 
HETATM   29  C           1      -1.399  -1.017  -6.861  0.00  0.00     0.003 A 
HETATM   30  C           1      -0.591  -0.186  -7.536  0.00  0.00     0.012 A 
HETATM   31  C           1       0.142   0.777  -6.935  0.00  0.00    -0.024 A 
HETATM   32  C           1      -0.015   0.822  -5.591  0.00  0.00     0.042 A 
HETATM   33  C           1       0.962   1.622  -7.623  0.00  0.00    -0.026 A 
HETATM   34  C           1       1.702   2.586  -7.026  0.00  0.00     0.012 A 
HETATM   35  C           1       1.110   1.573  -8.967  0.00  0.00     0.012 A 
HETATM   36  C           1       2.513   3.422  -7.695  0.00  0.00     0.001 A 
HETATM   37  C           1       2.627   3.336  -9.025  0.00  0.00     0.000 A 
HETATM   38  C           1       1.913   2.398  -9.659  0.00  0.00     0.001 A 
ENDBRANCH  12  27
TORSDOF 2
