REMARK  1 active torsions:
REMARK  status: ('A' for Active; 'I' for Inactive)
REMARK    1  A    between atoms: C_10  and  C_14 
ROOT
HETATM    1  C           1       1.276   1.275  -1.744  0.00  0.00     0.023 C 
HETATM    2  C           1      -0.046   1.926  -2.223  0.00  0.00     0.021 C 
HETATM    3  C           1       1.189  -2.206  -0.117  0.00  0.00     0.027 C 
HETATM    4  C           1      -2.166  -3.099   3.491  0.00  0.00     0.046 C 
HETATM    5  C           1      -4.068  -2.296   2.134  0.00  0.00     0.046 C 
HETATM    6  O           1       1.310  -0.587  -5.228  0.00  0.00    -0.262 OA
HETATM    7  O           1       2.168   1.092  -3.995  0.00  0.00    -0.308 OA
HETATM    8  C           1       1.591  -0.140  -4.131  0.00  0.00     0.291 C 
HETATM    9  C           1       2.364   1.714  -2.749  0.00  0.00     0.178 C 
HETATM   10  C           1       1.362  -0.954  -2.920  0.00  0.00     0.258 A 
HETATM   11  C           1       1.127  -0.236  -1.694  0.00  0.00     0.122 A 
HETATM   12  O           1      -2.419   3.482   2.870  0.00  0.00    -0.265 OA
HETATM   13  O           1       2.501  -0.960  -2.101  0.00  0.00    -0.356 OA
HETATM   14  O           1      -1.399  -1.206  -2.119  0.00  0.00    -0.297 OA
HETATM   15  C           1       1.636   1.731  -0.319  0.00  0.00     0.016 C 
HETATM   16  C           1      -1.003  -1.440  -0.998  0.00  0.00     0.139 C 
HETATM   17  C           1       0.374  -0.936  -0.515  0.00  0.00     0.056 C 
HETATM   18  C           1       0.510   1.431   0.669  0.00  0.00     0.008 C 
HETATM   19  C           1      -1.901  -2.210  -0.028  0.00  0.00     0.087 C 
HETATM   20  C           1       0.119  -0.056   0.774  0.00  0.00     0.018 C 
HETATM   21  C           1      -1.638  -1.741   1.402  0.00  0.00     0.040 C 
HETATM   22  C           1      -1.294  -0.236   1.428  0.00  0.00     0.020 C 
HETATM   23  C           1      -2.415   0.600   0.791  0.00  0.00     0.191 C 
HETATM   24  O           1      -2.604   1.904   1.276  0.00  0.00    -0.321 OA
HETATM   25  C           1      -2.631  -1.970   2.552  0.00  0.00     0.059 C 
HETATM   26  O           1      -2.611  -0.767   3.267  0.00  0.00    -0.374 OA
HETATM   27  C           1      -1.425  -0.087   2.940  0.00  0.00     0.143 C 
HETATM   28  C           1      -1.507   1.354   3.401  0.00  0.00     0.144 C 
HETATM   29  C           1      -2.222   2.341   2.502  0.00  0.00     0.261 C 
ENDROOT
BRANCH   9  30
HETATM   30  C           1       3.815   1.647  -2.327  0.00  0.00    -0.004 A 
HETATM   31  C           1       4.769   0.791  -2.725  0.00  0.00     0.151 A 
HETATM   32  O           1       5.858   1.030  -2.206  0.00  0.00    -0.334 OA
HETATM   33  C           1       5.726   2.015  -1.482  0.00  0.00     0.142 A 
HETATM   34  C           1       4.471   2.478  -1.503  0.00  0.00     0.036 A 
ENDBRANCH   9  30
TORSDOF 1
