REMARK  0 active torsions:
REMARK  status: ('A' for Active; 'I' for Inactive)
ROOT
ATOM      1  C   UNN dAMED       1.460   2.646   2.775  0.00  0.00     0.084 A 
ATOM      2  C   UNN dAMED       0.316   2.783   1.984  0.00  0.00     0.199 A 
ATOM      3  C   UNN dAMED      -0.946   3.225  -1.064  0.00  0.00     0.199 A 
ATOM      4  C   UNN dAMED      -2.103   3.151  -1.844  0.00  0.00     0.084 A 
ATOM      5  C   UNN dAMED       2.633   1.901   2.530  0.00  0.00     0.202 A 
ATOM      6  C   UNN dAMED       0.396   2.089   0.755  0.00  0.00     0.042 A 
ATOM      7  C   UNN dAMED      -0.789   2.126  -0.190  0.00  0.00     0.042 A 
ATOM      8  C   UNN dAMED      -3.086   2.140  -1.894  0.00  0.00     0.202 A 
ATOM      9  C   UNN dAMED       1.555   1.329   0.411  0.00  0.00     0.011 A 
ATOM     10  C   UNN dAMED      -1.726   1.042  -0.188  0.00  0.00     0.011 A 
ATOM     11  C   UNN dAMED      -2.881   0.997  -1.032  0.00  0.00     0.078 A 
ATOM     12  C   UNN dAMED       2.685   1.179   1.277  0.00  0.00     0.078 A 
ATOM     13  C   UNN dAMED       1.560   0.699  -0.829  0.00  0.00     0.025 A 
ATOM     14  C   UNN dAMED       3.802   0.310   0.846  0.00  0.00     0.204 A 
ATOM     15  C   UNN dAMED      -1.475  -0.021   0.673  0.00  0.00     0.025 A 
ATOM     16  C   UNN dAMED      -3.764  -0.190  -0.969  0.00  0.00     0.204 A 
ATOM     17  C   UNN dAMED      -2.260  -1.150   0.745  0.00  0.00     0.106 A 
ATOM     18  C   UNN dAMED      -3.393  -1.234  -0.055  0.00  0.00     0.100 A 
ATOM     19  C   UNN dAMED       3.695  -0.307  -0.446  0.00  0.00     0.100 A 
ATOM     20  C   UNN dAMED       2.582  -0.116  -1.263  0.00  0.00     0.106 A 
ATOM     21  O   UNN dAMED       2.403  -0.627  -2.520  0.00  0.00    -0.311 OA
ATOM     22  C   UNN dAMED       4.770  -1.203  -0.979  0.00  0.00     0.198 C 
ATOM     23  C   UNN dAMED      -4.204  -2.476   0.075  0.00  0.00     0.198 C 
ATOM     24  O   UNN dAMED       5.911  -1.272  -0.551  0.00  0.00    -0.287 OA
ATOM     25  O   UNN dAMED      -5.390  -2.567  -0.192  0.00  0.00    -0.287 OA
ATOM     26  O   UNN dAMED      -1.871  -2.056   1.691  0.00  0.00    -0.311 OA
ATOM     27  C   UNN dAMED      -2.142  -3.344   1.230  0.00  0.00     0.077 C 
ATOM     28  C   UNN dAMED       2.952  -1.905  -2.531  0.00  0.00     0.077 C 
ATOM     29  C   UNN dAMED      -3.550  -3.629   0.750  0.00  0.00     0.036 C 
ATOM     30  C   UNN dAMED       4.424  -1.975  -2.204  0.00  0.00     0.036 C 
ATOM     31  O   UNN dAMED      -0.677   3.482   2.384  0.00  0.00    -0.286 OA
ATOM     32  O   UNN dAMED      -0.143   4.212  -1.178  0.00  0.00    -0.286 OA
ATOM     33  O   UNN dAMED       3.543   1.919   3.428  0.00  0.00    -0.286 OA
ATOM     34  O   UNN dAMED      -4.069   2.311  -2.695  0.00  0.00    -0.286 OA
ATOM     35  O   UNN dAMED       4.822   0.094   1.594  0.00  0.00    -0.286 OA
ATOM     36  O   UNN dAMED      -4.807  -0.304  -1.707  0.00  0.00    -0.286 OA
ATOM     37  C   UNN dAMED       5.227  -3.225  -2.582  0.00  0.00     0.036 C 
ATOM     38  C   UNN dAMED      -3.930  -5.050   0.315  0.00  0.00     0.036 C 
ATOM     39  C   UNN dAMED      -1.338  -4.506   1.823  0.00  0.00     0.058 C 
ATOM     40  C   UNN dAMED       2.065  -3.075  -2.087  0.00  0.00     0.058 C 
ENDROOT
TORSDOF 0
