REMARK  5 active torsions:
REMARK  status: ('A' for Active; 'I' for Inactive)
REMARK    1  A    between atoms: N_1  and  C_8 
REMARK    2  A    between atoms: N_2  and  C_9 
REMARK    3  A    between atoms: C_3  and  C_19 
REMARK    4  A    between atoms: C_14  and  C_24 
REMARK    5  A    between atoms: C_19  and  C_20 
ROOT
ATOM      1  C   UNN dAMED       1.697  -0.183  -0.272  0.00  0.00     0.142 A 
ATOM      2  C   UNN dAMED       2.451  -1.295   0.205  0.00  0.00     0.023 A 
ATOM      3  C   UNN dAMED       2.319   1.018  -0.745  0.00  0.00     0.221 A 
ATOM      4  C   UNN dAMED       1.857  -2.497   0.625  0.00  0.00     0.002 A 
ATOM      5  C   UNN dAMED       2.621  -3.573   1.073  0.00  0.00     0.000 A 
ATOM      6  C   UNN dAMED       3.741   1.033  -0.659  0.00  0.00     0.105 A 
ATOM      7  C   UNN dAMED       3.852  -1.210   0.255  0.00  0.00     0.002 A 
ATOM      8  C   UNN dAMED       4.006  -3.468   1.108  0.00  0.00     0.000 A 
ATOM      9  C   UNN dAMED       4.481  -0.051  -0.164  0.00  0.00     0.009 A 
ATOM     10  C   UNN dAMED       4.619  -2.287   0.702  0.00  0.00     0.000 A 
ATOM     11  O   UNN dAMED       1.646   2.000  -1.220  0.00  0.00    -0.285 OA
ENDROOT
BRANCH   1  12
ATOM     12  N   UNN dAMED       0.284  -0.302  -0.354  0.00  0.00    -0.145 NA
ATOM     13  N   UNN dAMED      -0.237  -0.066   0.759  0.00  0.00    -0.148 NA
BRANCH  13  14
ATOM     14  C   UNN dAMED      -1.639  -0.197   0.721  0.00  0.00     0.103 A 
ATOM     15  C   UNN dAMED      -2.313  -0.992  -0.215  0.00  0.00     0.021 A 
ATOM     16  C   UNN dAMED      -3.699  -1.134  -0.174  0.00  0.00    -0.002 A 
ATOM     17  C   UNN dAMED      -4.431  -0.494   0.821  0.00  0.00    -0.011 A 
ATOM     18  C   UNN dAMED      -3.775   0.279   1.776  0.00  0.00    -0.002 A 
ATOM     19  C   UNN dAMED      -2.390   0.429   1.720  0.00  0.00     0.021 A 
BRANCH  17  20
ATOM     20  C   UNN dAMED      -5.917  -0.736   0.923  0.00  0.00     0.124 C 
BRANCH  20  21
ATOM     21  C   UNN dAMED      -6.925   0.358   0.658  0.00  0.00     0.190 C 
ATOM     22  O   UNN dAMED      -7.138   0.656  -0.556  0.00  0.00    -0.647 OA
ATOM     23  O   UNN dAMED      -7.515   0.837   1.672  0.00  0.00    -0.647 OA
ENDBRANCH  20  21
ENDBRANCH  17  20
ENDBRANCH  13  14
ENDBRANCH   1  12
BRANCH   6  24
ATOM     24  C   UNN dAMED       4.536   2.212  -1.131  0.00  0.00     0.214 C 
ATOM     25  O   UNN dAMED       5.083   2.100  -2.270  0.00  0.00    -0.644 OA
ATOM     26  O   UNN dAMED       4.595   3.206  -0.346  0.00  0.00    -0.644 OA
ENDBRANCH   6  24
TORSDOF 5
