REMARK  2 active torsions:
REMARK  status: ('A' for Active; 'I' for Inactive)
REMARK    1  A    between atoms: C_12  and  C_26 
REMARK    2  A    between atoms: C_21  and  C_26 
ROOT
ATOM      1  C   UNN dAMED       0.209  -0.254   1.039  0.00  0.00     0.053 C 
ENDROOT
BRANCH   1   2
ATOM      2  C   UNN dAMED       0.614   0.590   2.224  0.00  0.00    -0.018 A 
ATOM      3  C   UNN dAMED       1.413   1.711   2.048  0.00  0.00    -0.003 A 
ATOM      4  C   UNN dAMED       1.805   2.455   3.160  0.00  0.00     0.011 A 
ATOM      5  C   UNN dAMED       1.417   2.114   4.467  0.00  0.00     0.033 A 
ATOM      6  N   UNN dAMED       1.985   2.853   5.514  0.00  0.00    -0.276 NA
ATOM      7  C   UNN dAMED       0.669   0.938   4.625  0.00  0.00     0.006 A 
ATOM      8  H   UNN dAMED       2.183   3.815   5.248  0.00  0.00     0.129 HD
ATOM      9  C   UNN dAMED       1.384   2.718   6.830  0.00  0.00     0.064 C 
ATOM     10  C   UNN dAMED       0.799   0.984   7.014  0.00  0.00    -0.016 C 
ATOM     11  C   UNN dAMED       0.797   0.979   7.015  0.00  0.00     0.021 C 
ATOM     12  C   UNN dAMED       0.798   0.980   7.015  0.00  0.00     0.021 C 
ATOM     13  C   UNN dAMED       0.337   0.374   5.927  0.00  0.00    -0.024 C 
ATOM     14  C   UNN dAMED      -0.525  -0.855   5.962  0.00  0.00     0.031 C 
ATOM     15  C   UNN dAMED       0.252   0.203   3.511  0.00  0.00    -0.003 A 
ENDBRANCH   1   2
BRANCH   1  16
ATOM     16  C   UNN dAMED      -1.133  -0.092   0.367  0.00  0.00    -0.018 A 
ATOM     17  C   UNN dAMED      -1.204   0.302  -0.962  0.00  0.00    -0.003 A 
ATOM     18  C   UNN dAMED      -2.448   0.422  -1.579  0.00  0.00     0.016 A 
ATOM     19  C   UNN dAMED      -3.648   0.155  -0.901  0.00  0.00     0.053 A 
ATOM     20  N   UNN dAMED      -4.838   0.447  -1.578  0.00  0.00    -0.373 N 
ATOM     21  C   UNN dAMED      -3.554  -0.173   0.460  0.00  0.00     0.011 A 
ATOM     22  C   UNN dAMED      -6.080  -0.048  -1.013  0.00  0.00     0.079 C 
ATOM     23  H   UNN dAMED      -4.764   0.340  -2.587  0.00  0.00     0.161 HD
ATOM     24  C   UNN dAMED      -5.914  -0.051   0.815  0.00  0.00    -0.011 C 
ATOM     25  C   UNN dAMED      -5.913  -0.051   0.824  0.00  0.00     0.027 C 
ATOM     26  C   UNN dAMED      -5.913  -0.051   0.825  0.00  0.00     0.027 C 
ATOM     27  C   UNN dAMED      -4.715  -0.306   1.326  0.00  0.00    -0.023 C 
ATOM     28  C   UNN dAMED      -4.507  -0.731   2.751  0.00  0.00     0.031 C 
ATOM     29  C   UNN dAMED      -2.308  -0.330   1.074  0.00  0.00    -0.003 A 
ENDBRANCH   1  16
TORSDOF 2
