REMARK  6 active torsions:
REMARK  status: ('A' for Active; 'I' for Inactive)
REMARK    1  A    between atoms: C_3  and  N_6 
REMARK    2  A    between atoms: C_3  and  C_8 
REMARK    3  A    between atoms: C_9  and  N_25 
REMARK       I    between atoms: C_11  and  N_25 
REMARK    4  A    between atoms: C_11  and  C_17 
REMARK    5  A    between atoms: C_17  and  C_18 
REMARK    6  A    between atoms: C_17  and  C_28 
ROOT
HETATM    1  C           1       0.240  -2.691  -2.759  0.00  0.00     0.231 C 
HETATM    2  O           1       0.634  -3.782  -3.087  0.00  0.00    -0.272 OA
HETATM    3  N           1       0.114  -2.417  -1.422  0.00  0.00    -0.353 N 
HETATM    4  H           1       0.415  -3.183  -0.819  0.00  0.00     0.163 HD
ENDROOT
BRANCH   3   5
HETATM    5  C           1      -0.256  -1.142  -0.795  0.00  0.00     0.118 C 
HETATM    6  C           1       1.009  -0.385  -0.373  0.00  0.00     0.031 C 
HETATM    7  C           1       0.576   0.937   0.258  0.00  0.00     0.041 C 
HETATM    8  C           1      -0.394   0.754   1.434  0.00  0.00     0.085 C 
HETATM    9  C           1      -1.084   2.120   1.657  0.00  0.00     0.048 C 
HETATM   10  O           1      -1.440  -0.108   1.066  0.00  0.00    -0.366 OA
HETATM   11  C           1      -1.146  -1.337   0.452  0.00  0.00     0.075 C 
HETATM   12  C           1      -0.575  -2.371   1.434  0.00  0.00     0.048 C 
HETATM   13  C           1      -2.521  -1.884   0.021  0.00  0.00     0.048 C 
BRANCH   8  14
HETATM   14  C           1       0.215   0.346   2.804  0.00  0.00     0.309 C 
BRANCH  14  15
HETATM   15  N           1       1.649   0.082   2.795  0.00  0.00     0.091 N 
HETATM   16  C           1       2.435   1.292   3.019  0.00  0.00     0.272 C 
HETATM   17  C           1       2.511   1.502   4.543  0.00  0.00     0.032 C 
HETATM   18  C           1       2.140   0.133   5.134  0.00  0.00     0.032 C 
HETATM   19  C           1       2.079  -0.770   3.896  0.00  0.00     0.272 C 
ENDBRANCH  14  15
ENDBRANCH   8  14
ENDBRANCH   3   5
BRANCH   1  20
HETATM   20  C           1      -0.127  -1.606  -3.784  0.00  0.00     0.143 C 
BRANCH  20  21
HETATM   21  C           1       0.766  -0.377  -3.719  0.00  0.00    -0.041 A 
HETATM   22  C           1       2.086  -0.510  -3.953  0.00  0.00     0.008 A 
HETATM   23  C           1       2.918   0.542  -3.902  0.00  0.00     0.001 A 
HETATM   24  C           1       2.440   1.760  -3.609  0.00  0.00     0.000 A 
HETATM   25  C           1       1.130   1.913  -3.369  0.00  0.00     0.001 A 
HETATM   26  C           1       0.307   0.854  -3.423  0.00  0.00     0.008 A 
ENDBRANCH  20  21
BRANCH  20  27
HETATM   27  C           1      -1.610  -1.387  -4.039  0.00  0.00    -0.041 A 
HETATM   28  C           1      -2.555  -2.119  -3.422  0.00  0.00     0.008 A 
HETATM   29  C           1      -3.862  -1.933  -3.666  0.00  0.00     0.001 A 
HETATM   30  C           1      -4.253  -1.018  -4.565  0.00  0.00     0.000 A 
HETATM   31  C           1      -3.327  -0.309  -5.225  0.00  0.00     0.001 A 
HETATM   32  C           1      -2.024  -0.504  -4.970  0.00  0.00     0.008 A 
ENDBRANCH  20  27
ENDBRANCH   1  20
TORSDOF 6
