REMARK  0 active torsions:
REMARK  status: ('A' for Active; 'I' for Inactive)
ROOT
HETATM    1  C   UNN     0      -7.483   0.036   0.178  0.00  0.00     0.084 C 
HETATM    2  C   UNN     0      -7.176  -1.070   1.185  0.00  0.00     0.012 C 
HETATM    3  C   UNN     0      -6.055  -1.932   0.609  0.00  0.00     0.040 C 
HETATM    4  C   UNN     0      -4.877  -1.070   0.214  0.00  0.00    -0.044 A 
HETATM    5  C   UNN     0      -5.015   0.222  -0.164  0.00  0.00     0.017 A 
HETATM    6  C   UNN     0      -6.239   0.825  -0.216  0.00  0.00     0.160 C 
HETATM    7  C   UNN     0      -3.652  -1.632   0.248  0.00  0.00     0.015 A 
HETATM    8  C   UNN     0      -2.575  -0.916  -0.093  0.00  0.00    -0.051 A 
HETATM    9  C   UNN     0      -2.710   0.359  -0.466  0.00  0.00    -0.050 A 
HETATM   10  C   UNN     0      -3.919   0.932  -0.504  0.00  0.00     0.023 A 
HETATM   11  C   UNN     0      -1.140  -1.359  -0.110  0.00  0.00     0.049 C 
HETATM   12  C   UNN     0      -1.384   0.985  -0.796  0.00  0.00     0.049 C 
HETATM   13  C   UNN     0      -0.404   0.000  -0.101  0.00  0.00    -0.025 C 
HETATM   14  C   UNN     0       0.981  -0.022  -0.788  0.00  0.00     0.049 C 
HETATM   15  C   UNN     0       1.697   1.066  -0.039  0.00  0.00    -0.051 A 
HETATM   16  C   UNN     0       1.100   1.351   1.120  0.00  0.00    -0.050 A 
HETATM   17  C   UNN     0      -0.119   0.501   1.342  0.00  0.00     0.049 C 
HETATM   18  C   UNN     0       2.794   1.733  -0.411  0.00  0.00     0.015 A 
HETATM   19  C   UNN     0       3.304   2.694   0.385  0.00  0.00    -0.044 A 
HETATM   20  C   UNN     0       2.701   2.984   1.562  0.00  0.00     0.017 A 
HETATM   21  C   UNN     0       1.592   2.303   1.922  0.00  0.00     0.023 A 
HETATM   22  C   UNN     0       4.547   3.412  -0.090  0.00  0.00     0.040 C 
HETATM   23  C   UNN     0       4.593   4.829   0.477  0.00  0.00     0.012 C 
HETATM   24  C   UNN     0       4.433   4.732   1.993  0.00  0.00     0.084 C 
HETATM   25  C   UNN     0       3.190   3.947   2.397  0.00  0.00     0.160 C 
HETATM   26  O   UNN     0      -6.418   1.973  -0.568  0.00  0.00    -0.292 OA
HETATM   27  O   UNN     0       2.699   4.229   3.471  0.00  0.00    -0.292 OA
ENDROOT
TORSDOF 0
