REMARK  5 active torsions:
REMARK  status: ('A' for Active; 'I' for Inactive)
REMARK    1  A    between atoms: C_3  and  O_30 
REMARK    2  A    between atoms: O_10  and  C_22 
REMARK    3  A    between atoms: O_11  and  C_25 
REMARK    4  A    between atoms: C_23  and  O_26 
REMARK    5  A    between atoms: C_32  and  O_33 
ROOT
HETATM    1  C           1       0.174  -1.589  -1.481  0.00  0.00     0.184 C 
HETATM    2  C           1       0.557  -0.008   1.274  0.00  0.00     0.002 C 
HETATM    3  C           1       1.534  -1.182   1.539  0.00  0.00     0.160 C 
HETATM    4  C           1      -0.968   2.584  -2.015  0.00  0.00     0.288 C 
HETATM    5  C           1      -0.294  -0.143  -1.261  0.00  0.00     0.025 C 
HETATM    6  C           1       0.761   0.885  -1.670  0.00  0.00     0.144 C 
HETATM    7  C           1       3.075   2.952   1.631  0.00  0.00     0.043 C 
HETATM    8  C           1       2.579   1.526   1.646  0.00  0.00    -0.080 C 
HETATM    9  O           1      -0.526  -2.395  -0.560  0.00  0.00    -0.352 OA
HETATM   10  C           1      -0.617  -0.209   0.247  0.00  0.00     0.076 C 
HETATM   11  C           1       3.174   0.584   2.391  0.00  0.00     0.010 C 
HETATM   12  O           1       0.317   2.198  -1.868  0.00  0.00    -0.313 OA
HETATM   13  C           1       1.918   0.965  -0.676  0.00  0.00     0.043 C 
HETATM   14  C           1      -1.562   0.091  -2.121  0.00  0.00     0.044 C 
HETATM   15  C           1      -2.724  -0.903  -1.884  0.00  0.00     0.024 C 
HETATM   16  C           1       1.402   1.192   0.756  0.00  0.00     0.028 C 
HETATM   17  C           1      -1.353  -1.541   0.179  0.00  0.00     0.193 C 
HETATM   18  C           1      -2.722  -1.475  -0.467  0.00  0.00     0.185 C 
HETATM   19  O           1      -1.317   3.728  -2.220  0.00  0.00    -0.262 OA
HETATM   20  C           1      -2.041   1.524  -1.929  0.00  0.00     0.223 C 
HETATM   21  C           1      -2.809  -2.017  -2.948  0.00  0.00     0.013 C 
HETATM   22  C           1      -0.072   0.425   2.630  0.00  0.00     0.019 C 
HETATM   23  C           1       2.704  -0.839   2.456  0.00  0.00     0.170 C 
ENDROOT
BRANCH   3  24
HETATM   24  O           1       0.903  -2.302   2.114  0.00  0.00    -0.392 OA
HETATM   25  H           1       0.200  -2.627   1.550  0.00  0.00     0.210 HD
ENDBRANCH   3  24
BRANCH  23  26
HETATM   26  O           1       3.804  -1.684   2.163  0.00  0.00    -0.389 OA
HETATM   27  H           1       4.533  -1.429   2.732  0.00  0.00     0.210 HD
ENDBRANCH  23  26
BRANCH  17  28
HETATM   28  O           1      -1.554  -2.106   1.451  0.00  0.00    -0.363 OA
HETATM   29  H           1      -2.427  -1.873   1.774  0.00  0.00     0.213 HD
ENDBRANCH  17  28
BRANCH  18  30
HETATM   30  O           1      -3.539  -0.690   0.369  0.00  0.00    -0.390 OA
HETATM   31  H           1      -4.450  -0.720   0.071  0.00  0.00     0.210 HD
ENDBRANCH  18  30
BRANCH  20  32
HETATM   32  O           1      -3.003   1.865  -2.916  0.00  0.00    -0.385 OA
HETATM   33  H           1      -3.058   2.827  -2.953  0.00  0.00     0.210 HD
ENDBRANCH  20  32
TORSDOF 5
