REMARK  9 active torsions:
REMARK  status: ('A' for Active; 'I' for Inactive)
REMARK    1  A    between atoms: C_2  and  C_35 
REMARK    2  A    between atoms: C_7  and  C_28 
REMARK    3  A    between atoms: C_7  and  O_31 
REMARK    4  A    between atoms: C_11  and  O_25 
REMARK    5  A    between atoms: C_14  and  C_21 
REMARK    6  A    between atoms: C_22  and  C_23 
REMARK    7  A    between atoms: C_23  and  O_25 
REMARK    8  A    between atoms: O_31  and  C_32 
REMARK    9  A    between atoms: C_32  and  C_34 
ROOT
ATOM      1  C   UNN dAMED       3.062  -6.048   5.107  0.00  0.00     0.191 C 
ATOM      2  C   UNN dAMED       2.679  -5.575   6.518  0.00  0.00     0.095 C 
ATOM      3  C   UNN dAMED       1.698  -6.370   7.393  0.00  0.00     0.136 C 
ATOM      4  C   UNN dAMED       2.857  -7.555   4.908  0.00  0.00     0.095 C 
ATOM      5  C   UNN dAMED       1.677  -7.891   7.172  0.00  0.00     0.146 C 
ATOM      6  C   UNN dAMED       2.657  -8.441   6.138  0.00  0.00     0.136 C 
ATOM      7  O   UNN dAMED       1.416  -5.873   8.638  0.00  0.00    -0.193 OA
ATOM      8  O   UNN dAMED       3.693  -9.229   6.560  0.00  0.00    -0.193 OA
ENDROOT
BRANCH   1   9
ATOM      9  C   UNN dAMED       4.522  -5.705   4.872  0.00  0.00     0.212 C 
ATOM     10  O   UNN dAMED       4.810  -4.479   4.950  0.00  0.00    -0.646 OA
ATOM     11  O   UNN dAMED       5.264  -6.707   4.678  0.00  0.00    -0.646 OA
ENDBRANCH   1   9
BRANCH   1  12
ATOM     12  O   UNN dAMED       2.290  -5.359   4.130  0.00  0.00    -0.292 OA
BRANCH  12  13
ATOM     13  C   UNN dAMED       1.254  -4.731   4.749  0.00  0.00     0.296 C 
ATOM     14  O   UNN dAMED       0.083  -4.966   4.480  0.00  0.00    -0.259 OA
BRANCH  13  15
ATOM     15  C   UNN dAMED       1.567  -3.504   5.557  0.00  0.00     0.068 C 
ATOM     16  C   UNN dAMED       2.100  -2.444   4.954  0.00  0.00     0.006 C 
BRANCH  16  17
ATOM     17  C   UNN dAMED       2.567  -1.279   5.775  0.00  0.00     0.004 A 
ATOM     18  C   UNN dAMED       2.379  -1.280   7.152  0.00  0.00     0.045 A 
ATOM     19  C   UNN dAMED       2.850  -0.268   8.022  0.00  0.00     0.234 A 
ATOM     20  C   UNN dAMED       3.591   0.813   7.418  0.00  0.00     0.234 A 
ATOM     21  O   UNN dAMED       2.604  -0.357   9.276  0.00  0.00    -0.283 OA
ATOM     22  C   UNN dAMED       3.744   0.773   6.011  0.00  0.00     0.045 A 
ATOM     23  O   UNN dAMED       4.106   1.784   8.076  0.00  0.00    -0.283 OA
ATOM     24  C   UNN dAMED       3.250  -0.237   5.191  0.00  0.00     0.004 A 
ENDBRANCH  16  17
ENDBRANCH  13  15
ENDBRANCH  12  13
ENDBRANCH   1  12
BRANCH   5  25
ATOM     25  O   UNN dAMED       0.692  -8.714   7.741  0.00  0.00    -0.269 OA
BRANCH  25  26
ATOM     26  C   UNN dAMED      -0.345  -8.688   6.862  0.00  0.00     0.300 C 
ATOM     27  O   UNN dAMED      -0.271  -9.177   5.742  0.00  0.00    -0.259 OA
BRANCH  26  28
ATOM     28  C   UNN dAMED      -1.506  -7.785   7.168  0.00  0.00     0.069 C 
ATOM     29  C   UNN dAMED      -1.263  -6.541   7.572  0.00  0.00     0.006 C 
BRANCH  29  30
ATOM     30  C   UNN dAMED      -2.370  -5.531   7.659  0.00  0.00     0.004 A 
ATOM     31  C   UNN dAMED      -2.051  -4.177   7.696  0.00  0.00     0.045 A 
ATOM     32  C   UNN dAMED      -2.943  -3.155   8.095  0.00  0.00     0.234 A 
ATOM     33  C   UNN dAMED      -4.270  -3.568   8.477  0.00  0.00     0.234 A 
ATOM     34  O   UNN dAMED      -2.536  -1.940   8.108  0.00  0.00    -0.283 OA
ATOM     35  C   UNN dAMED      -4.552  -4.955   8.409  0.00  0.00     0.045 A 
ATOM     36  O   UNN dAMED      -5.186  -2.763   8.870  0.00  0.00    -0.283 OA
ATOM     37  C   UNN dAMED      -3.638  -5.928   8.020  0.00  0.00     0.004 A 
ENDBRANCH  29  30
ENDBRANCH  26  28
ENDBRANCH  25  26
ENDBRANCH   5  25
TORSDOF 9
