REMARK  10 active torsions:
REMARK  status: ('A' for Active; 'I' for Inactive)
REMARK    1  A    between atoms: C_1  and  O_22 
REMARK    2  A    between atoms: C_2  and  O_20 
REMARK    3  A    between atoms: C_4  and  C_7 
REMARK    4  A    between atoms: C_8  and  C_9 
REMARK    5  A    between atoms: C_9  and  C_10 
REMARK    6  A    between atoms: C_11  and  C_12 
REMARK    7  A    between atoms: C_11  and  O_27 
REMARK    8  A    between atoms: C_13  and  C_14 
REMARK    9  A    between atoms: C_16  and  O_24 
REMARK   10  A    between atoms: C_17  and  O_23 
ROOT
HETATM    1  C           1       0.248  -0.328   0.034  0.00  0.00     0.091 C 
HETATM    2  C           1      -0.679  -1.302   0.181  0.00  0.00     0.069 C 
ENDROOT
BRANCH   1   3
HETATM    3  C           1       1.604  -0.485  -0.034  0.00  0.00     0.174 C 
HETATM    4  O           1       2.124  -1.579   0.036  0.00  0.00    -0.288 OA
BRANCH   3   5
HETATM    5  C           1       2.348   0.652  -0.184  0.00  0.00     0.055 C 
HETATM    6  C           1       3.693   0.671  -0.268  0.00  0.00     0.015 C 
BRANCH   6   7
HETATM    7  C           1       4.499   1.747  -0.415  0.00  0.00    -0.033 A 
HETATM    8  C           1       5.835   1.569  -0.483  0.00  0.00     0.051 A 
HETATM    9  C           1       6.729   2.570  -0.628  0.00  0.00     0.102 A 
HETATM   10  C           1       6.245   3.827  -0.711  0.00  0.00     0.099 A 
HETATM   11  C           1       4.921   4.031  -0.647  0.00  0.00     0.040 A 
HETATM   12  C           1       4.058   3.016  -0.501  0.00  0.00     0.014 A 
BRANCH   9  13
HETATM   13  O           1       8.093   2.405  -0.700  0.00  0.00    -0.353 OA
HETATM   14  C           1       8.637   1.107  -0.630  0.00  0.00     0.210 C 
ENDBRANCH   9  13
BRANCH  10  15
HETATM   15  O           1       7.084   4.890  -0.859  0.00  0.00    -0.358 OA
HETATM   16  H           1       6.558   5.705  -0.898  0.00  0.00     0.217 HD
ENDBRANCH  10  15
ENDBRANCH   6   7
ENDBRANCH   3   5
ENDBRANCH   1   3
BRANCH   2  17
HETATM   17  C           1      -1.979  -0.928   0.224  0.00  0.00     0.037 C 
HETATM   18  C           1      -3.004  -1.792   0.368  0.00  0.00     0.014 C 
BRANCH  18  19
HETATM   19  C           1      -4.325  -1.510   0.420  0.00  0.00    -0.033 A 
HETATM   20  C           1      -5.210  -2.517   0.572  0.00  0.00     0.051 A 
HETATM   21  C           1      -6.548  -2.350   0.636  0.00  0.00     0.102 A 
HETATM   22  C           1      -7.022  -1.090   0.543  0.00  0.00     0.099 A 
HETATM   23  C           1      -6.162  -0.071   0.392  0.00  0.00     0.040 A 
HETATM   24  C           1      -4.838  -0.270   0.331  0.00  0.00     0.014 A 
BRANCH  21  25
HETATM   25  O           1      -7.464  -3.367   0.791  0.00  0.00    -0.353 OA
HETATM   26  C           1      -7.009  -4.696   0.900  0.00  0.00     0.210 C 
ENDBRANCH  21  25
BRANCH  22  27
HETATM   27  O           1      -8.359  -0.839   0.600  0.00  0.00    -0.358 OA
HETATM   28  H           1      -8.505   0.117   0.516  0.00  0.00     0.217 HD
ENDBRANCH  22  27
ENDBRANCH  18  19
ENDBRANCH   2  17
BRANCH   2  29
HETATM   29  O           1      -0.359  -2.625   0.286  0.00  0.00    -0.361 OA
HETATM   30  H           1       0.589  -2.803   0.245  0.00  0.00     0.217 HD
ENDBRANCH   2  29
TORSDOF 10
