REMARK  10 active torsions:
REMARK  status: ('A' for Active; 'I' for Inactive)
REMARK    1  A    between atoms: C_1  and  O_22 
REMARK    2  A    between atoms: C_2  and  O_20 
REMARK    3  A    between atoms: C_4  and  C_7 
REMARK    4  A    between atoms: C_8  and  C_9 
REMARK    5  A    between atoms: C_9  and  C_10 
REMARK    6  A    between atoms: C_10  and  C_11 
REMARK    7  A    between atoms: C_11  and  C_12 
REMARK    8  A    between atoms: C_13  and  C_14 
REMARK    9  A    between atoms: C_16  and  O_24 
REMARK   10  A    between atoms: C_17  and  O_23 
ROOT
HETATM    1  C           1      -0.688   1.512  -1.209  0.00  0.00     0.165 C 
ENDROOT
BRANCH   1   2
HETATM    2  C           1       0.749   1.077  -1.522  0.00  0.00     0.156 C 
HETATM    3  O           1       0.893   0.142  -2.280  0.00  0.00    -0.293 OA
BRANCH   2   4
HETATM    4  C           1       1.760   1.771  -0.930  0.00  0.00     0.051 C 
HETATM    5  C           1       3.065   1.501  -1.117  0.00  0.00     0.015 C 
BRANCH   5   6
HETATM    6  C           1       4.125   2.137  -0.569  0.00  0.00    -0.033 A 
HETATM    7  C           1       5.374   1.728  -0.875  0.00  0.00     0.051 A 
HETATM    8  C           1       6.498   2.293  -0.386  0.00  0.00     0.102 A 
HETATM    9  C           1       6.352   3.331   0.463  0.00  0.00     0.099 A 
HETATM   10  C           1       5.120   3.755   0.783  0.00  0.00     0.040 A 
HETATM   11  C           1       4.023   3.175   0.280  0.00  0.00     0.014 A 
BRANCH   8  12
HETATM   12  O           1       7.779   1.888  -0.686  0.00  0.00    -0.353 OA
HETATM   13  C           1       7.972   0.795  -1.554  0.00  0.00     0.210 C 
ENDBRANCH   8  12
BRANCH   9  14
HETATM   14  O           1       7.439   3.953   1.000  0.00  0.00    -0.358 OA
HETATM   15  H           1       7.138   4.663   1.589  0.00  0.00     0.217 HD
ENDBRANCH   9  14
ENDBRANCH   5   6
ENDBRANCH   2   4
ENDBRANCH   1   2
BRANCH   1  16
HETATM   16  C           1      -1.279   0.676  -0.068  0.00  0.00     0.156 C 
HETATM   17  O           1      -0.727   0.758   1.009  0.00  0.00    -0.293 OA
BRANCH  16  18
HETATM   18  C           1      -2.369  -0.095  -0.335  0.00  0.00     0.051 C 
HETATM   19  C           1      -2.979  -0.872   0.580  0.00  0.00     0.015 C 
BRANCH  19  20
HETATM   20  C           1      -4.060  -1.662   0.396  0.00  0.00    -0.033 A 
HETATM   21  C           1      -4.545  -2.377   1.429  0.00  0.00     0.051 A 
HETATM   22  C           1      -5.616  -3.197   1.377  0.00  0.00     0.102 A 
HETATM   23  C           1      -6.241  -3.315   0.183  0.00  0.00     0.099 A 
HETATM   24  C           1      -5.775  -2.609  -0.861  0.00  0.00     0.040 A 
HETATM   25  C           1      -4.712  -1.799  -0.771  0.00  0.00     0.014 A 
BRANCH  22  26
HETATM   26  O           1      -5.947  -3.846   2.547  0.00  0.00    -0.353 OA
HETATM   27  C           1      -6.959  -4.822   2.575  0.00  0.00     0.210 C 
ENDBRANCH  22  26
BRANCH  23  28
HETATM   28  O           1      -7.329  -4.104  -0.026  0.00  0.00    -0.358 OA
HETATM   29  H           1      -7.618  -4.026  -0.949  0.00  0.00     0.217 HD
ENDBRANCH  23  28
ENDBRANCH  19  20
ENDBRANCH  16  18
ENDBRANCH   1  16
TORSDOF 10
