REMARK  6 active torsions:
REMARK  status: ('A' for Active; 'I' for Inactive)
REMARK    1  A    between atoms: C_4  and  C_7 
REMARK    2  A    between atoms: C_8  and  C_9 
REMARK    3  A    between atoms: C_9  and  C_10 
REMARK    4  A    between atoms: C_11  and  C_12 
REMARK    5  A    between atoms: C_11  and  O_27 
REMARK    6  A    between atoms: C_13  and  C_14 
ROOT
HETATM    1  C           1      -0.548  -0.467   0.879  0.00  0.00     0.091 C 
HETATM    2  C           1      -1.853  -0.828   0.884  0.00  0.00     0.069 C 
ENDROOT
BRANCH   1   3
HETATM    3  C           1       0.343  -0.589   1.908  0.00  0.00     0.174 C 
HETATM    4  O           1       0.021  -1.060   2.979  0.00  0.00    -0.288 OA
BRANCH   3   5
HETATM    5  C           1       1.618  -0.153   1.672  0.00  0.00     0.055 C 
HETATM    6  C           1       2.614  -0.201   2.579  0.00  0.00     0.015 C 
BRANCH   6   7
HETATM    7  C           1       3.892   0.208   2.422  0.00  0.00    -0.033 A 
HETATM    8  C           1       4.756   0.082   3.449  0.00  0.00     0.051 A 
HETATM    9  C           1       6.046   0.466   3.401  0.00  0.00     0.102 A 
HETATM   10  C           1       6.529   0.972   2.247  0.00  0.00     0.102 A 
HETATM   11  O           1       6.851   0.278   4.495  0.00  0.00    -0.346 OA
HETATM   12  C           1       5.676   1.122   1.219  0.00  0.00     0.040 A 
HETATM   13  O           1       7.829   1.388   2.123  0.00  0.00    -0.346 OA
HETATM   14  C           1       4.390   0.750   1.295  0.00  0.00     0.014 A 
HETATM   15  C           1       8.500   1.545   3.344  0.00  0.00     0.202 C 
HETATM   16  C           1       8.224   0.338   4.218  0.00  0.00     0.202 C 
ENDBRANCH   6   7
ENDBRANCH   3   5
ENDBRANCH   1   3
BRANCH   2  17
HETATM   17  C           1      -2.564  -0.619  -0.248  0.00  0.00     0.037 C 
HETATM   18  C           1      -3.868  -0.929  -0.383  0.00  0.00     0.014 C 
BRANCH  18  19
HETATM   19  C           1      -4.653  -0.756  -1.469  0.00  0.00    -0.033 A 
HETATM   20  C           1      -5.945  -1.130  -1.406  0.00  0.00     0.014 A 
HETATM   21  C           1      -6.761  -0.988  -2.460  0.00  0.00     0.040 A 
HETATM   22  C           1      -6.335  -0.476  -3.627  0.00  0.00     0.102 A 
HETATM   23  C           1      -5.053  -0.059  -3.705  0.00  0.00     0.102 A 
HETATM   24  O           1      -7.211  -0.332  -4.671  0.00  0.00    -0.346 OA
HETATM   25  C           1      -4.247  -0.228  -2.639  0.00  0.00     0.051 A 
HETATM   26  O           1      -4.542   0.472  -4.862  0.00  0.00    -0.346 OA
HETATM   27  C           1      -5.328   0.243  -6.000  0.00  0.00     0.202 C 
HETATM   28  C           1      -6.775   0.549  -5.670  0.00  0.00     0.202 C 
ENDBRANCH  18  19
ENDBRANCH   2  17
BRANCH   2  29
HETATM   29  O           1      -2.468  -1.384   1.968  0.00  0.00    -0.361 OA
HETATM   30  H           1      -1.888  -1.497   2.732  0.00  0.00     0.217 HD
ENDBRANCH   2  29
TORSDOF 6
