REMARK  8 active torsions:
REMARK  status: ('A' for Active; 'I' for Inactive)
REMARK    1  A    between atoms: C_1  and  O_22 
REMARK    2  A    between atoms: C_2  and  O_20 
REMARK    3  A    between atoms: C_4  and  C_7 
REMARK    4  A    between atoms: C_8  and  C_9 
REMARK    5  A    between atoms: C_9  and  C_10 
REMARK    6  A    between atoms: C_11  and  C_12 
REMARK    7  A    between atoms: C_11  and  O_24 
REMARK    8  A    between atoms: C_13  and  C_14 
ROOT
HETATM    1  C           1       0.660  -0.812   0.221  0.00  0.00     0.174 C 
HETATM    2  O           1       1.209  -1.856   0.502  0.00  0.00    -0.288 OA
ENDROOT
BRANCH   1   3
HETATM    3  C           1       1.375   0.314  -0.080  0.00  0.00     0.055 C 
HETATM    4  C           1       2.722   0.375  -0.093  0.00  0.00     0.015 C 
BRANCH   4   5
HETATM    5  C           1       3.500   1.443  -0.378  0.00  0.00    -0.033 A 
HETATM    6  C           1       4.843   1.312  -0.340  0.00  0.00     0.051 A 
HETATM    7  C           1       5.712   2.310  -0.606  0.00  0.00     0.102 A 
HETATM    8  C           1       5.195   3.514  -0.928  0.00  0.00     0.099 A 
HETATM    9  C           1       3.863   3.670  -0.971  0.00  0.00     0.040 A 
HETATM   10  C           1       3.026   2.659  -0.703  0.00  0.00     0.014 A 
BRANCH   7  11
HETATM   11  O           1       7.083   2.192  -0.572  0.00  0.00    -0.353 OA
HETATM   12  C           1       7.662   0.951  -0.241  0.00  0.00     0.210 C 
ENDBRANCH   7  11
BRANCH   8  13
HETATM   13  O           1       6.007   4.571  -1.209  0.00  0.00    -0.358 OA
HETATM   14  H           1       5.459   5.345  -1.416  0.00  0.00     0.217 HD
ENDBRANCH   8  13
ENDBRANCH   4   5
ENDBRANCH   1   3
BRANCH   1  15
HETATM   15  C           1      -0.702  -0.701   0.188  0.00  0.00     0.091 C 
HETATM   16  C           1      -1.605  -1.676   0.448  0.00  0.00     0.069 C 
BRANCH  16  17
HETATM   17  C           1      -2.917  -1.354   0.358  0.00  0.00     0.037 C 
HETATM   18  C           1      -3.920  -2.223   0.589  0.00  0.00     0.014 C 
BRANCH  18  19
HETATM   19  C           1      -5.250  -1.992   0.524  0.00  0.00    -0.036 A 
HETATM   20  C           1      -6.099  -3.006   0.795  0.00  0.00     0.011 A 
HETATM   21  C           1      -7.431  -2.849   0.750  0.00  0.00     0.001 A 
HETATM   22  C           1      -7.957  -1.659   0.429  0.00  0.00     0.000 A 
HETATM   23  C           1      -7.135  -0.636   0.156  0.00  0.00     0.001 A 
HETATM   24  C           1      -5.803  -0.804   0.204  0.00  0.00     0.011 A 
ENDBRANCH  18  19
ENDBRANCH  16  17
BRANCH  16  25
HETATM   25  O           1      -1.250  -2.949   0.790  0.00  0.00    -0.361 OA
HETATM   26  H           1      -0.296  -3.091   0.833  0.00  0.00     0.217 HD
ENDBRANCH  16  25
ENDBRANCH   1  15
TORSDOF 8
