REMARK  8 active torsions:
REMARK  status: ('A' for Active; 'I' for Inactive)
REMARK    1  A    between atoms: C_2  and  O_20 
REMARK    2  A    between atoms: C_4  and  C_7 
REMARK    3  A    between atoms: C_8  and  C_9 
REMARK    4  A    between atoms: C_9  and  C_10 
REMARK    5  A    between atoms: C_11  and  C_12 
REMARK    6  A    between atoms: C_11  and  O_25 
REMARK    7  A    between atoms: C_13  and  C_14 
REMARK    8  A    between atoms: C_16  and  O_22 
ROOT
HETATM    1  C           1       0.295  -0.227   0.073  0.00  0.00     0.091 C 
HETATM    2  C           1      -0.611  -1.197   0.334  0.00  0.00     0.069 C 
ENDROOT
BRANCH   1   3
HETATM    3  C           1       1.657  -0.342   0.109  0.00  0.00     0.174 C 
HETATM    4  O           1       2.202  -1.387   0.396  0.00  0.00    -0.288 OA
BRANCH   3   5
HETATM    5  C           1       2.377   0.781  -0.194  0.00  0.00     0.055 C 
HETATM    6  C           1       3.724   0.836  -0.206  0.00  0.00     0.015 C 
BRANCH   6   7
HETATM    7  C           1       4.508   1.900  -0.493  0.00  0.00    -0.034 A 
HETATM    8  C           1       5.851   1.755  -0.452  0.00  0.00     0.048 A 
HETATM    9  C           1       6.728   2.745  -0.719  0.00  0.00     0.069 A 
HETATM   10  C           1       6.196   3.937  -1.044  0.00  0.00     0.037 A 
HETATM   11  C           1       4.872   4.128  -1.098  0.00  0.00     0.004 A 
HETATM   12  C           1       4.036   3.116  -0.824  0.00  0.00     0.011 A 
BRANCH   9  13
HETATM   13  O           1       8.099   2.632  -0.687  0.00  0.00    -0.356 OA
HETATM   14  C           1       8.677   1.391  -0.356  0.00  0.00     0.210 C 
ENDBRANCH   9  13
ENDBRANCH   6   7
ENDBRANCH   3   5
ENDBRANCH   1   3
BRANCH   2  15
HETATM   15  C           1      -1.922  -0.871   0.239  0.00  0.00     0.037 C 
HETATM   16  C           1      -2.929  -1.736   0.470  0.00  0.00     0.014 C 
BRANCH  16  17
HETATM   17  C           1      -4.257  -1.499   0.398  0.00  0.00    -0.034 A 
HETATM   18  C           1      -5.117  -2.504   0.667  0.00  0.00     0.048 A 
HETATM   19  C           1      -6.461  -2.393   0.630  0.00  0.00     0.069 A 
HETATM   20  C           1      -6.949  -1.183   0.298  0.00  0.00     0.037 A 
HETATM   21  C           1      -6.132  -0.157   0.022  0.00  0.00     0.004 A 
HETATM   22  C           1      -4.801  -0.312   0.072  0.00  0.00     0.011 A 
BRANCH  19  23
HETATM   23  O           1      -7.222  -3.500   0.928  0.00  0.00    -0.356 OA
HETATM   24  C           1      -8.626  -3.388   0.892  0.00  0.00     0.210 C 
ENDBRANCH  19  23
ENDBRANCH  16  17
ENDBRANCH   2  15
BRANCH   2  25
HETATM   25  O           1      -0.261  -2.470   0.682  0.00  0.00    -0.361 OA
HETATM   26  H           1       0.692  -2.615   0.726  0.00  0.00     0.217 HD
ENDBRANCH   2  25
TORSDOF 8
