REMARK  12 active torsions:
REMARK  status: ('A' for Active; 'I' for Inactive)
REMARK    1  A    between atoms: C_1  and  C_2 
REMARK    2  A    between atoms: C_3  and  C_4 
REMARK    3  A    between atoms: C_4  and  C_5 
REMARK    4  A    between atoms: C_6  and  C_7 
REMARK    5  A    between atoms: C_6  and  O_11 
REMARK    6  A    between atoms: C_8  and  C_9 
REMARK    7  A    between atoms: C_12  and  C_13 
REMARK    8  A    between atoms: C_14  and  C_15 
REMARK    9  A    between atoms: C_18  and  O_28 
REMARK   10  A    between atoms: C_19  and  O_26 
REMARK   11  A    between atoms: C_22  and  O_30 
REMARK   12  A    between atoms: C_23  and  O_29 
ROOT
HETATM    1  C           1       0.854  -0.485  -0.069  0.00  0.00     0.091 C 
HETATM    2  C           1       1.641   0.577  -0.354  0.00  0.00     0.069 C 
ENDROOT
BRANCH   1   3
HETATM    3  C           1       1.260  -1.771   0.151  0.00  0.00     0.174 C 
HETATM    4  O           1       2.429  -2.093   0.109  0.00  0.00    -0.288 OA
BRANCH   3   5
HETATM    5  C           1       0.280  -2.683   0.422  0.00  0.00     0.055 C 
HETATM    6  C           1       0.509  -3.989   0.660  0.00  0.00     0.004 C 
BRANCH   6   7
HETATM    7  C           1      -0.478  -4.867   0.923  0.00  0.00     0.001 C 
HETATM    8  C           1      -0.250  -6.173   1.159  0.00  0.00     0.011 C 
BRANCH   8   9
HETATM    9  C           1      -1.160  -7.133   1.431  0.00  0.00    -0.033 A 
HETATM   10  C           1      -2.485  -6.924   1.512  0.00  0.00     0.014 A 
HETATM   11  C           1      -3.315  -7.940   1.781  0.00  0.00     0.040 A 
HETATM   12  C           1      -2.883  -9.197   1.982  0.00  0.00     0.099 A 
HETATM   13  C           1      -1.554  -9.445   1.921  0.00  0.00     0.102 A 
HETATM   14  C           1      -0.748  -8.399   1.639  0.00  0.00     0.051 A 
BRANCH  12  15
HETATM   15  O           1      -3.817 -10.148   2.250  0.00  0.00    -0.358 OA
HETATM   16  H           1      -4.700  -9.746   2.265  0.00  0.00     0.217 HD
ENDBRANCH  12  15
BRANCH  13  17
HETATM   17  O           1      -0.937 -10.665   2.089  0.00  0.00    -0.353 OA
HETATM   18  C           1      -1.689 -11.848   2.205  0.00  0.00     0.210 C 
ENDBRANCH  13  17
ENDBRANCH   8   9
ENDBRANCH   6   7
ENDBRANCH   3   5
ENDBRANCH   1   3
BRANCH   2  19
HETATM   19  C           1       1.035   1.771  -0.539  0.00  0.00     0.036 C 
HETATM   20  C           1       1.694   2.909  -0.829  0.00  0.00     0.003 C 
BRANCH  20  21
HETATM   21  C           1       1.070   4.089  -1.011  0.00  0.00     0.001 C 
HETATM   22  C           1       1.731   5.225  -1.302  0.00  0.00     0.011 C 
BRANCH  22  23
HETATM   23  C           1       1.209   6.454  -1.505  0.00  0.00    -0.033 A 
HETATM   24  C           1       2.027   7.486  -1.788  0.00  0.00     0.051 A 
HETATM   25  C           1       1.631   8.757  -2.015  0.00  0.00     0.102 A 
HETATM   26  C           1       0.304   9.009  -1.936  0.00  0.00     0.099 A 
HETATM   27  C           1      -0.530   7.993  -1.656  0.00  0.00     0.040 A 
HETATM   28  C           1      -0.102   6.741  -1.444  0.00  0.00     0.014 A 
BRANCH  25  29
HETATM   29  O           1       2.627   9.670  -2.282  0.00  0.00    -0.353 OA
HETATM   30  C           1       2.343  11.043  -2.394  0.00  0.00     0.210 C 
ENDBRANCH  25  29
BRANCH  26  31
HETATM   31  O           1      -0.245  10.238  -2.134  0.00  0.00    -0.358 OA
HETATM   32  H           1      -1.210  10.183  -2.046  0.00  0.00     0.217 HD
ENDBRANCH  26  31
ENDBRANCH  22  23
ENDBRANCH  20  21
ENDBRANCH   2  19
BRANCH   2  33
HETATM   33  O           1       2.999   0.494  -0.461  0.00  0.00    -0.361 OA
HETATM   34  H           1       3.348  -0.395  -0.315  0.00  0.00     0.217 HD
ENDBRANCH   2  33
TORSDOF 12
