REMARK  8 active torsions:
REMARK  status: ('A' for Active; 'I' for Inactive)
REMARK    1  A    between atoms: C_1  and  O_22 
REMARK    2  A    between atoms: C_2  and  O_20 
REMARK    3  A    between atoms: C_4  and  C_7 
REMARK    4  A    between atoms: C_8  and  C_9 
REMARK    5  A    between atoms: C_11  and  C_12 
REMARK    6  A    between atoms: C_13  and  C_14 
REMARK    7  A    between atoms: C_16  and  O_24 
REMARK    8  A    between atoms: C_17  and  O_23 
ROOT
HETATM    1  C           1      -1.330   1.836  -0.432  0.00  0.00    -0.033 A 
HETATM    2  C           1      -0.931   0.580  -0.143  0.00  0.00     0.043 A 
HETATM    3  C           1      -1.800  -0.400   0.185  0.00  0.00     0.057 A 
HETATM    4  C           1      -2.658   2.041  -0.367  0.00  0.00     0.030 A 
HETATM    5  N           1      -3.042  -0.149   0.230  0.00  0.00    -0.261 NA
HETATM    6  C           1      -3.455   1.016  -0.033  0.00  0.00     0.118 A 
ENDROOT
BRANCH   1   7
HETATM    7  C           1      -0.415   2.776  -0.756  0.00  0.00     0.012 C 
HETATM    8  C           1      -0.641   4.066  -1.073  0.00  0.00     0.012 C 
BRANCH   8   9
HETATM    9  C           1       0.270   5.009  -1.400  0.00  0.00    -0.033 A 
HETATM   10  C           1      -0.144   6.258  -1.694  0.00  0.00     0.051 A 
HETATM   11  C           1       0.658   7.290  -2.031  0.00  0.00     0.102 A 
HETATM   12  C           1       1.986   7.039  -2.095  0.00  0.00     0.099 A 
HETATM   13  C           1       2.423   5.803  -1.802  0.00  0.00     0.040 A 
HETATM   14  C           1       1.597   4.805  -1.461  0.00  0.00     0.014 A 
BRANCH  11  15
HETATM   15  O           1       0.034   8.487  -2.307  0.00  0.00    -0.353 OA
HETATM   16  C           1       0.745   9.562  -2.870  0.00  0.00     0.210 C 
ENDBRANCH  11  15
BRANCH  12  17
HETATM   17  O           1       2.916   7.975  -2.426  0.00  0.00    -0.358 OA
HETATM   18  H           1       3.803   7.584  -2.383  0.00  0.00     0.217 HD
ENDBRANCH  12  17
ENDBRANCH   8   9
ENDBRANCH   1   7
BRANCH   3  19
HETATM   19  C           1      -1.343  -1.642   0.463  0.00  0.00     0.032 C 
HETATM   20  C           1      -2.107  -2.700   0.801  0.00  0.00     0.014 C 
BRANCH  20  21
HETATM   21  C           1      -1.699  -3.956   1.085  0.00  0.00    -0.033 A 
HETATM   22  C           1      -2.612  -4.895   1.403  0.00  0.00     0.051 A 
HETATM   23  C           1      -2.338  -6.181   1.708  0.00  0.00     0.102 A 
HETATM   24  C           1      -1.037  -6.554   1.682  0.00  0.00     0.099 A 
HETATM   25  C           1      -0.109  -5.634   1.369  0.00  0.00     0.040 A 
HETATM   26  C           1      -0.418  -4.364   1.075  0.00  0.00     0.014 A 
BRANCH  23  27
HETATM   27  O           1      -3.419  -6.984   2.002  0.00  0.00    -0.353 OA
HETATM   28  C           1      -3.256  -8.357   2.261  0.00  0.00     0.210 C 
ENDBRANCH  23  27
BRANCH  24  29
HETATM   29  O           1      -0.606  -7.814   1.962  0.00  0.00    -0.358 OA
HETATM   30  H           1       0.362  -7.851   1.892  0.00  0.00     0.217 HD
ENDBRANCH  24  29
ENDBRANCH  20  21
ENDBRANCH   3  19
TORSDOF 8
