REMARK  4 active torsions:
REMARK  status: ('A' for Active; 'I' for Inactive)
REMARK    1  A    between atoms: C_1  and  O_12 
REMARK    2  A    between atoms: C_2  and  O_10 
REMARK    3  A    between atoms: C_4  and  C_7 
REMARK    4  A    between atoms: C_8  and  C_9 
ROOT
HETATM    1  C           1       1.352   2.086  -0.459  0.00  0.00     0.099 A 
HETATM    2  C           1       1.819   0.868  -0.103  0.00  0.00     0.102 A 
HETATM    3  C           1       0.902  -0.093   0.140  0.00  0.00     0.051 A 
HETATM    4  C           1      -0.433   0.063   0.043  0.00  0.00    -0.033 A 
HETATM    5  C           1      -0.858   1.283  -0.323  0.00  0.00     0.014 A 
HETATM    6  C           1       0.024   2.262  -0.565  0.00  0.00     0.040 A 
ENDROOT
BRANCH   4   7
HETATM    7  C           1      -1.247  -0.981   0.310  0.00  0.00     0.014 C 
HETATM    8  C           1      -2.592  -1.000   0.264  0.00  0.00     0.042 C 
BRANCH   8   9
HETATM    9  C           1      -3.330  -2.105   0.552  0.00  0.00     0.258 C 
HETATM   10  O           1      -4.540  -2.128   0.511  0.00  0.00    -0.302 OA
ENDBRANCH   8   9
ENDBRANCH   4   7
BRANCH   2  11
HETATM   11  O           1       3.139   0.508   0.062  0.00  0.00    -0.353 OA
HETATM   12  C           1       4.167   1.466  -0.011  0.00  0.00     0.210 C 
ENDBRANCH   2  11
BRANCH   1  13
HETATM   13  O           1       2.152   3.152  -0.731  0.00  0.00    -0.358 OA
HETATM   14  H           1       1.608   3.915  -0.983  0.00  0.00     0.217 HD
ENDBRANCH   1  13
TORSDOF 4
