REMARK  11 active torsions:
REMARK  status: ('A' for Active; 'I' for Inactive)
REMARK    1  A    between atoms: C_1  and  O_26 
REMARK    2  A    between atoms: C_3  and  O_25 
REMARK    3  A    between atoms: C_8  and  O_12 
REMARK    4  A    between atoms: O_12  and  C_13 
REMARK    5  A    between atoms: C_13  and  C_14 
REMARK    6  A    between atoms: C_16  and  O_31 
REMARK    7  A    between atoms: C_17  and  O_32 
REMARK    8  A    between atoms: C_18  and  O_33 
REMARK    9  A    between atoms: C_21  and  O_28 
REMARK   10  A    between atoms: C_22  and  O_29 
REMARK   11  A    between atoms: C_23  and  O_30 
ROOT
HETATM    1  C           1      -2.971   1.451   3.549  0.00  0.00     0.070 A 
HETATM    2  C           1      -3.557   0.278   3.266  0.00  0.00     0.073 A 
HETATM    3  C           1      -2.877  -0.772   2.776  0.00  0.00     0.076 A 
HETATM    4  C           1      -1.552  -0.644   2.560  0.00  0.00     0.004 A 
HETATM    5  C           1      -0.942   0.524   2.837  0.00  0.00     0.040 A 
HETATM    6  C           1      -1.652   1.555   3.324  0.00  0.00     0.066 A 
HETATM    7  C           1      -0.770  -1.809   1.992  0.00  0.00     0.079 C 
HETATM    8  C           1       0.556  -1.415   1.342  0.00  0.00     0.163 C 
HETATM    9  C           1       1.239  -0.290   2.122  0.00  0.00     0.145 C 
HETATM   10  N           1       0.300   0.712   2.649  0.00  0.00    -0.378 N 
HETATM   11  C           1       2.340   0.391   1.338  0.00  0.00    -0.028 A 
HETATM   12  C           1       3.592  -0.096   1.346  0.00  0.00     0.049 A 
HETATM   13  C           1       4.583   0.489   0.653  0.00  0.00     0.102 A 
HETATM   14  C           1       4.313   1.588  -0.072  0.00  0.00     0.132 A 
HETATM   15  C           1       3.067   2.092  -0.104  0.00  0.00     0.102 A 
HETATM   16  C           1       2.098   1.487   0.600  0.00  0.00     0.049 A 
HETATM   17  H           1       0.676   1.663   2.887  0.00  0.00     0.160 HD
ENDROOT
BRANCH   8  18
HETATM   18  O           1       0.496  -1.200  -0.043  0.00  0.00    -0.309 OA
BRANCH  18  19
HETATM   19  C           1      -0.516  -0.532  -0.684  0.00  0.00     0.294 C 
HETATM   20  O           1      -1.192   0.267  -0.071  0.00  0.00    -0.259 OA
BRANCH  19  21
HETATM   21  C           1      -0.803  -0.791  -1.998  0.00  0.00     0.045 A 
HETATM   22  C           1      -0.077  -1.687  -2.691  0.00  0.00     0.057 A 
HETATM   23  C           1      -0.337  -1.966  -3.979  0.00  0.00     0.102 A 
HETATM   24  C           1      -1.349  -1.333  -4.597  0.00  0.00     0.132 A 
HETATM   25  C           1      -2.088  -0.430  -3.931  0.00  0.00     0.102 A 
HETATM   26  C           1      -1.807  -0.169  -2.644  0.00  0.00     0.057 A 
BRANCH  23  27
HETATM   27  O           1       0.399  -2.876  -4.673  0.00  0.00    -0.358 OA
HETATM   28  H           1       0.047  -2.931  -5.577  0.00  0.00     0.217 HD
ENDBRANCH  23  27
BRANCH  24  29
HETATM   29  O           1      -1.632  -1.601  -5.899  0.00  0.00    -0.356 OA
HETATM   30  H           1      -2.389  -1.059  -6.175  0.00  0.00     0.218 HD
ENDBRANCH  24  29
BRANCH  25  31
HETATM   31  O           1      -3.110   0.205  -4.565  0.00  0.00    -0.358 OA
HETATM   32  H           1      -3.553   0.813  -3.952  0.00  0.00     0.217 HD
ENDBRANCH  25  31
ENDBRANCH  19  21
ENDBRANCH  18  19
ENDBRANCH   8  18
BRANCH   3  33
HETATM   33  O           1      -3.535  -1.933   2.508  0.00  0.00    -0.360 OA
HETATM   34  H           1      -4.475  -1.822   2.725  0.00  0.00     0.217 HD
ENDBRANCH   3  33
BRANCH  13  35
HETATM   35  O           1       5.849  -0.007   0.667  0.00  0.00    -0.358 OA
HETATM   36  H           1       6.404   0.557   0.104  0.00  0.00     0.217 HD
ENDBRANCH  13  35
BRANCH  15  37
HETATM   37  O           1       2.801   3.200  -0.844  0.00  0.00    -0.358 OA
HETATM   38  H           1       1.866   3.439  -0.752  0.00  0.00     0.217 HD
ENDBRANCH  15  37
BRANCH   1  39
HETATM   39  O           1      -3.683   2.501   4.041  0.00  0.00    -0.361 OA
HETATM   40  H           1      -3.088   3.260   4.156  0.00  0.00     0.217 HD
ENDBRANCH   1  39
BRANCH  14  41
HETATM   41  O           1       5.299   2.198  -0.782  0.00  0.00    -0.356 OA
HETATM   42  H           1       4.925   2.967  -1.242  0.00  0.00     0.218 HD
ENDBRANCH  14  41
TORSDOF 11
