REMARK  9 active torsions:
REMARK  status: ('A' for Active; 'I' for Inactive)
REMARK    1  A    between atoms: C_8  and  O_12 
REMARK    2  A    between atoms: O_12  and  C_13 
REMARK    3  A    between atoms: C_13  and  C_14 
REMARK    4  A    between atoms: C_16  and  O_29 
REMARK    5  A    between atoms: C_17  and  O_30 
REMARK    6  A    between atoms: C_18  and  O_31 
REMARK    7  A    between atoms: C_21  and  O_26 
REMARK    8  A    between atoms: C_22  and  O_27 
REMARK    9  A    between atoms: C_23  and  O_28 
ROOT
HETATM    1  C           1      -2.293  -5.504   0.398  0.00  0.00     0.003 A 
HETATM    2  C           1      -1.003  -5.639   0.066  0.00  0.00     0.001 A 
HETATM    3  C           1      -0.206  -4.562   0.093  0.00  0.00     0.010 A 
HETATM    4  C           1      -0.679  -3.354   0.451  0.00  0.00    -0.022 A 
HETATM    5  C           1      -1.974  -3.206   0.804  0.00  0.00     0.076 A 
HETATM    6  C           1      -2.760  -4.299   0.754  0.00  0.00     0.037 A 
HETATM    7  C           1       0.259  -2.171   0.464  0.00  0.00     0.077 C 
HETATM    8  C           1      -0.332  -1.043   1.306  0.00  0.00     0.170 C 
HETATM    9  C           1      -1.789  -0.835   0.904  0.00  0.00     0.192 C 
HETATM   10  O           1      -2.535  -2.004   1.154  0.00  0.00    -0.338 OA
HETATM   11  C           1      -1.958  -0.285  -0.508  0.00  0.00    -0.021 A 
HETATM   12  C           1      -1.835   1.036  -0.729  0.00  0.00     0.049 A 
HETATM   13  C           1      -1.961   1.577  -1.951  0.00  0.00     0.102 A 
HETATM   14  C           1      -2.224   0.773  -2.995  0.00  0.00     0.132 A 
HETATM   15  C           1      -2.360  -0.551  -2.810  0.00  0.00     0.102 A 
HETATM   16  C           1      -2.227  -1.058  -1.574  0.00  0.00     0.049 A 
ENDROOT
BRANCH   8  17
HETATM   17  O           1       0.375   0.150   1.121  0.00  0.00    -0.309 OA
BRANCH  17  18
HETATM   18  C           1       1.618   0.324   1.680  0.00  0.00     0.294 C 
HETATM   19  O           1       2.073  -0.540   2.406  0.00  0.00    -0.259 OA
BRANCH  18  20
HETATM   20  C           1       2.347   1.451   1.412  0.00  0.00     0.045 A 
HETATM   21  C           1       1.852   2.402   0.599  0.00  0.00     0.057 A 
HETATM   22  C           1       2.541   3.520   0.315  0.00  0.00     0.102 A 
HETATM   23  C           1       3.757   3.697   0.858  0.00  0.00     0.132 A 
HETATM   24  C           1       4.277   2.764   1.674  0.00  0.00     0.102 A 
HETATM   25  C           1       3.568   1.655   1.941  0.00  0.00     0.057 A 
BRANCH  22  26
HETATM   26  O           1       2.034   4.476  -0.509  0.00  0.00    -0.358 OA
HETATM   27  H           1       2.683   5.196  -0.578  0.00  0.00     0.217 HD
ENDBRANCH  22  26
BRANCH  23  28
HETATM   28  O           1       4.471   4.821   0.585  0.00  0.00    -0.356 OA
HETATM   29  H           1       5.317   4.780   1.060  0.00  0.00     0.218 HD
ENDBRANCH  23  28
BRANCH  24  30
HETATM   30  O           1       5.508   2.954   2.217  0.00  0.00    -0.358 OA
HETATM   31  H           1       5.741   2.200   2.781  0.00  0.00     0.217 HD
ENDBRANCH  24  30
ENDBRANCH  18  20
ENDBRANCH  17  18
ENDBRANCH   8  17
BRANCH  13  32
HETATM   32  O           1      -1.827   2.915  -2.154  0.00  0.00    -0.358 OA
HETATM   33  H           1      -1.937   3.092  -3.103  0.00  0.00     0.217 HD
ENDBRANCH  13  32
BRANCH  15  34
HETATM   34  O           1      -2.631  -1.358  -3.869  0.00  0.00    -0.358 OA
HETATM   35  H           1      -2.718  -2.277  -3.568  0.00  0.00     0.217 HD
ENDBRANCH  15  34
BRANCH  14  36
HETATM   36  O           1      -2.356   1.293  -4.244  0.00  0.00    -0.356 OA
HETATM   37  H           1      -2.552   0.572  -4.864  0.00  0.00     0.218 HD
ENDBRANCH  14  36
TORSDOF 9
