REMARK  7 active torsions:
REMARK  status: ('A' for Active; 'I' for Inactive)
REMARK    1  A    between atoms: C_1  and  O_19 
REMARK    2  A    between atoms: C_9  and  C_11 
REMARK    3  A    between atoms: C_14  and  O_20 
REMARK    4  A    between atoms: C_15  and  O_21 
REMARK    5  A    between atoms: C_16  and  O_22 
REMARK    6  A    between atoms: C_26  and  O_30 
REMARK    7  A    between atoms: C_27  and  O_31 
ROOT
HETATM    1  C           1      -3.074   1.901   1.134  0.00  0.00     0.071 A 
HETATM    2  C           1      -3.127   0.573   1.339  0.00  0.00     0.074 A 
HETATM    3  C           1      -2.042  -0.222   1.423  0.00  0.00     0.088 A 
HETATM    4  C           1      -0.864   0.455   1.301  0.00  0.00     0.012 A 
HETATM    5  C           1      -0.736   1.761   1.011  0.00  0.00     0.081 A 
HETATM    6  C           1      -1.873   2.471   0.939  0.00  0.00     0.074 A 
HETATM    7  C           1       0.475  -0.198   1.360  0.00  0.00     0.079 C 
HETATM    8  C           1       1.669   0.104   0.480  0.00  0.00     0.160 C 
HETATM    9  C           1       1.392   1.516  -0.073  0.00  0.00     0.191 C 
HETATM   10  O           1       0.503   2.296   0.734  0.00  0.00    -0.338 OA
HETATM   11  O           1       1.839  -0.873  -0.559  0.00  0.00    -0.378 OA
HETATM   12  O           1      -2.241  -1.605   1.573  0.00  0.00    -0.307 OA
HETATM   13  C           1       1.984  -2.271  -0.203  0.00  0.00     0.207 C 
HETATM   14  C           1       0.948  -2.866   0.765  0.00  0.00    -0.029 C 
HETATM   15  C           1      -1.126  -2.413   1.659  0.00  0.00     0.112 C 
HETATM   16  C           1      -0.733  -2.926   2.843  0.00  0.00     0.133 C 
HETATM   17  C           1       0.468  -3.522   2.959  0.00  0.00     0.102 C 
HETATM   18  C           1       1.333  -3.389   1.941  0.00  0.00     0.049 C 
HETATM   19  C           1      -0.367  -2.649   0.564  0.00  0.00     0.049 C 
ENDROOT
BRANCH   9  20
HETATM   20  C           1       0.990   1.537  -1.544  0.00  0.00    -0.021 A 
HETATM   21  C           1       1.800   2.080  -2.470  0.00  0.00     0.049 A 
HETATM   22  C           1       1.484   2.104  -3.775  0.00  0.00     0.102 A 
HETATM   23  C           1       0.319   1.567  -4.176  0.00  0.00     0.132 A 
HETATM   24  C           1      -0.512   1.013  -3.278  0.00  0.00     0.102 A 
HETATM   25  C           1      -0.163   1.003  -1.983  0.00  0.00     0.049 A 
BRANCH  22  26
HETATM   26  O           1       2.317   2.656  -4.699  0.00  0.00    -0.358 OA
HETATM   27  H           1       1.902   2.566  -5.573  0.00  0.00     0.217 HD
ENDBRANCH  22  26
BRANCH  23  28
HETATM   28  O           1      -0.025   1.576  -5.491  0.00  0.00    -0.356 OA
HETATM   29  H           1      -0.888   1.143  -5.590  0.00  0.00     0.218 HD
ENDBRANCH  23  28
BRANCH  24  30
HETATM   30  O           1      -1.688   0.467  -3.687  0.00  0.00    -0.358 OA
HETATM   31  H           1      -2.166   0.109  -2.922  0.00  0.00     0.217 HD
ENDBRANCH  24  30
ENDBRANCH   9  20
BRANCH   1  32
HETATM   32  O           1      -4.211   2.644   1.045  0.00  0.00    -0.361 OA
HETATM   33  H           1      -3.976   3.557   0.814  0.00  0.00     0.217 HD
ENDBRANCH   1  32
BRANCH  17  34
HETATM   34  O           1       0.880  -3.999   4.164  0.00  0.00    -0.358 OA
HETATM   35  H           1       1.843  -4.117   4.159  0.00  0.00     0.217 HD
ENDBRANCH  17  34
BRANCH  16  36
HETATM   36  O           1      -1.511  -2.800   3.952  0.00  0.00    -0.356 OA
HETATM   37  H           1      -1.041  -3.190   4.708  0.00  0.00     0.218 HD
ENDBRANCH  16  36
TORSDOF 7
