REMARK  11 active torsions:
REMARK  status: ('A' for Active; 'I' for Inactive)
REMARK    1  A    between atoms: C_1  and  C_2 
REMARK    2  A    between atoms: C_1  and  O_4 
REMARK    3  A    between atoms: C_2  and  C_3 
REMARK    4  A    between atoms: O_4  and  C_5 
REMARK    5  A    between atoms: C_5  and  C_6 
REMARK    6  A    between atoms: C_8  and  O_21 
REMARK    7  A    between atoms: C_9  and  O_22 
REMARK    8  A    between atoms: C_10  and  O_23 
REMARK    9  A    between atoms: C_13  and  O_18 
REMARK   10  A    between atoms: C_14  and  O_19 
REMARK   11  A    between atoms: C_15  and  O_20 
ROOT
HETATM    1  O           1       0.908   2.098  -0.162  0.00  0.00    -0.317 OA
ENDROOT
BRANCH   1   2
HETATM    2  C           1      -0.045   1.078  -0.153  0.00  0.00     0.183 C 
BRANCH   2   3
HETATM    3  C           1      -1.437   1.713  -0.222  0.00  0.00     0.065 C 
BRANCH   3   4
HETATM    4  C           1      -2.615   0.758  -0.179  0.00  0.00    -0.051 A 
HETATM    5  C           1      -2.484  -0.579  -0.142  0.00  0.00     0.046 A 
HETATM    6  C           1      -3.549  -1.396  -0.101  0.00  0.00     0.102 A 
HETATM    7  C           1      -4.784  -0.865  -0.097  0.00  0.00     0.132 A 
HETATM    8  C           1      -4.947   0.468  -0.133  0.00  0.00     0.102 A 
HETATM    9  C           1      -3.862   1.258  -0.174  0.00  0.00     0.046 A 
BRANCH   6  10
HETATM   10  O           1      -3.405  -2.749  -0.063  0.00  0.00    -0.358 OA
HETATM   11  H           1      -4.289  -3.150  -0.036  0.00  0.00     0.217 HD
ENDBRANCH   6  10
BRANCH   7  12
HETATM   12  O           1      -5.876  -1.673  -0.056  0.00  0.00    -0.356 OA
HETATM   13  H           1      -6.675  -1.121  -0.059  0.00  0.00     0.218 HD
ENDBRANCH   7  12
BRANCH   8  14
HETATM   14  O           1      -6.199   0.999  -0.128  0.00  0.00    -0.358 OA
HETATM   15  H           1      -6.147   1.967  -0.157  0.00  0.00     0.217 HD
ENDBRANCH   8  14
ENDBRANCH   3   4
ENDBRANCH   2   3
ENDBRANCH   1   2
BRANCH   1  16
HETATM   16  C           1       2.271   1.952   0.004  0.00  0.00     0.293 C 
HETATM   17  O           1       2.852   3.027   0.021  0.00  0.00    -0.259 OA
BRANCH  16  18
HETATM   18  C           1       3.033   0.812   0.144  0.00  0.00     0.044 A 
HETATM   19  C           1       4.369   0.910   0.326  0.00  0.00     0.057 A 
HETATM   20  C           1       5.180  -0.151   0.473  0.00  0.00     0.102 A 
HETATM   21  C           1       4.656  -1.386   0.436  0.00  0.00     0.132 A 
HETATM   22  C           1       3.336  -1.537   0.253  0.00  0.00     0.102 A 
HETATM   23  C           1       2.560  -0.449   0.112  0.00  0.00     0.057 A 
BRANCH  20  24
HETATM   24  O           1       6.521  -0.007   0.659  0.00  0.00    -0.358 OA
HETATM   25  H           1       6.915  -0.891   0.741  0.00  0.00     0.217 HD
ENDBRANCH  20  24
BRANCH  21  26
HETATM   26  O           1       5.450  -2.479   0.579  0.00  0.00    -0.356 OA
HETATM   27  H           1       4.900  -3.278   0.520  0.00  0.00     0.218 HD
ENDBRANCH  21  26
BRANCH  22  28
HETATM   28  O           1       2.807  -2.790   0.209  0.00  0.00    -0.358 OA
HETATM   29  H           1       1.849  -2.746   0.067  0.00  0.00     0.217 HD
ENDBRANCH  22  28
ENDBRANCH  16  18
ENDBRANCH   1  16
TORSDOF 11
