REMARK  9 active torsions:
REMARK  status: ('A' for Active; 'I' for Inactive)
REMARK    1  A    between atoms: C_4  and  O_8 
REMARK    2  A    between atoms: O_8  and  C_9 
REMARK    3  A    between atoms: C_9  and  C_10 
REMARK    4  A    between atoms: C_12  and  O_25 
REMARK    5  A    between atoms: C_13  and  O_26 
REMARK    6  A    between atoms: C_14  and  O_27 
REMARK    7  A    between atoms: C_17  and  O_22 
REMARK    8  A    between atoms: C_18  and  O_23 
REMARK    9  A    between atoms: C_19  and  O_24 
ROOT
HETATM    1  C           1       1.660  -3.799   1.255  0.00  0.00     0.029 C 
HETATM    2  C           1       2.252  -2.830   2.268  0.00  0.00     0.168 C 
HETATM    3  C           1       0.639  -3.050   0.395  0.00  0.00     0.037 C 
HETATM    4  C           1       1.251  -1.769  -0.189  0.00  0.00     0.165 C 
HETATM    5  C           1       1.993  -0.949   0.875  0.00  0.00     0.184 C 
HETATM    6  O           1       2.889  -1.778   1.594  0.00  0.00    -0.379 OA
HETATM    7  C           1       1.225  -0.045   1.832  0.00  0.00    -0.021 A 
HETATM    8  C           1      -0.111  -0.038   1.969  0.00  0.00     0.049 A 
HETATM    9  C           1      -0.738   0.781   2.830  0.00  0.00     0.102 A 
HETATM   10  C           1      -0.011   1.622   3.586  0.00  0.00     0.132 A 
HETATM   11  C           1       1.327   1.641   3.475  0.00  0.00     0.102 A 
HETATM   12  C           1       1.919   0.812   2.602  0.00  0.00     0.049 A 
ENDROOT
BRANCH   4  13
HETATM   13  O           1       0.240  -1.153  -0.942  0.00  0.00    -0.309 OA
BRANCH  13  14
HETATM   14  C           1       0.258   0.123  -1.444  0.00  0.00     0.294 C 
HETATM   15  O           1       1.134   0.900  -1.127  0.00  0.00    -0.259 OA
BRANCH  14  16
HETATM   16  C           1      -0.694   0.513  -2.349  0.00  0.00     0.045 A 
HETATM   17  C           1      -1.648  -0.350  -2.745  0.00  0.00     0.057 A 
HETATM   18  C           1      -2.588  -0.009  -3.642  0.00  0.00     0.102 A 
HETATM   19  C           1      -2.583   1.232  -4.157  0.00  0.00     0.132 A 
HETATM   20  C           1      -1.650   2.119  -3.774  0.00  0.00     0.102 A 
HETATM   21  C           1      -0.718   1.750  -2.879  0.00  0.00     0.057 A 
BRANCH  18  22
HETATM   22  O           1      -3.541  -0.892  -4.044  0.00  0.00    -0.358 OA
HETATM   23  H           1      -4.115  -0.449  -4.692  0.00  0.00     0.217 HD
ENDBRANCH  18  22
BRANCH  19  24
HETATM   24  O           1      -3.523   1.599  -5.067  0.00  0.00    -0.356 OA
HETATM   25  H           1      -3.371   2.523  -5.323  0.00  0.00     0.218 HD
ENDBRANCH  19  24
BRANCH  20  26
HETATM   26  O           1      -1.657   3.374  -4.298  0.00  0.00    -0.358 OA
HETATM   27  H           1      -0.930   3.895  -3.923  0.00  0.00     0.217 HD
ENDBRANCH  20  26
ENDBRANCH  14  16
ENDBRANCH  13  14
ENDBRANCH   4  13
BRANCH   9  28
HETATM   28  O           1      -2.092   0.777   2.956  0.00  0.00    -0.358 OA
HETATM   29  H           1      -2.337   1.435   3.627  0.00  0.00     0.217 HD
ENDBRANCH   9  28
BRANCH  11  30
HETATM   30  O           1       2.060   2.492   4.240  0.00  0.00    -0.358 OA
HETATM   31  H           1       3.002   2.394   4.031  0.00  0.00     0.217 HD
ENDBRANCH  11  30
BRANCH  10  32
HETATM   32  O           1      -0.623   2.458   4.465  0.00  0.00    -0.356 OA
HETATM   33  H           1       0.055   2.988   4.916  0.00  0.00     0.218 HD
ENDBRANCH  10  32
TORSDOF 9
