REMARK  11 active torsions:
REMARK  status: ('A' for Active; 'I' for Inactive)
REMARK    1  A    between atoms: C_1  and  O_26 
REMARK    2  A    between atoms: C_3  and  O_25 
REMARK    3  A    between atoms: C_8  and  O_12 
REMARK    4  A    between atoms: O_12  and  C_13 
REMARK    5  A    between atoms: C_13  and  C_14 
REMARK    6  A    between atoms: C_16  and  O_31 
REMARK    7  A    between atoms: C_17  and  O_32 
REMARK    8  A    between atoms: C_18  and  O_33 
REMARK    9  A    between atoms: C_21  and  O_28 
REMARK   10  A    between atoms: C_22  and  O_29 
REMARK   11  A    between atoms: C_23  and  O_30 
ROOT
HETATM    1  C           1      -3.302  -0.389   2.083  0.00  0.00     0.071 A 
HETATM    2  C           1      -3.246  -1.408   1.213  0.00  0.00     0.073 A 
HETATM    3  C           1      -2.550  -1.333   0.068  0.00  0.00     0.077 A 
HETATM    4  C           1      -1.927  -0.175  -0.235  0.00  0.00     0.011 A 
HETATM    5  C           1      -1.899   0.853   0.640  0.00  0.00     0.081 A 
HETATM    6  C           1      -2.595   0.712   1.783  0.00  0.00     0.074 A 
HETATM    7  C           1      -1.180  -0.026  -1.537  0.00  0.00     0.080 C 
HETATM    8  C           1       0.072   0.823  -1.322  0.00  0.00     0.170 C 
HETATM    9  C           1      -0.384   2.143  -0.706  0.00  0.00     0.192 C 
HETATM   10  O           1      -1.171   2.004   0.456  0.00  0.00    -0.338 OA
HETATM   11  C           1       0.761   3.123  -0.517  0.00  0.00    -0.021 A 
HETATM   12  C           1       1.081   3.997  -1.487  0.00  0.00     0.049 A 
HETATM   13  C           1       2.082   4.881  -1.348  0.00  0.00     0.102 A 
HETATM   14  C           1       2.791   4.889  -0.206  0.00  0.00     0.132 A 
HETATM   15  C           1       2.501   4.021   0.778  0.00  0.00     0.102 A 
HETATM   16  C           1       1.491   3.152   0.611  0.00  0.00     0.049 A 
ENDROOT
BRANCH   8  17
HETATM   17  O           1       1.099   0.125  -0.657  0.00  0.00    -0.309 OA
BRANCH  17  18
HETATM   18  C           1       0.732  -0.692   0.388  0.00  0.00     0.294 C 
HETATM   19  O           1       0.569  -0.179   1.480  0.00  0.00    -0.259 OA
BRANCH  18  20
HETATM   20  C           1       0.533  -2.038   0.223  0.00  0.00     0.045 A 
HETATM   21  C           1       0.050  -2.804   1.219  0.00  0.00     0.057 A 
HETATM   22  C           1      -0.247  -4.101   1.034  0.00  0.00     0.102 A 
HETATM   23  C           1      -0.043  -4.658  -0.170  0.00  0.00     0.132 A 
HETATM   24  C           1       0.471  -3.928  -1.173  0.00  0.00     0.102 A 
HETATM   25  C           1       0.752  -2.632  -0.965  0.00  0.00     0.057 A 
BRANCH  22  26
HETATM   26  O           1      -0.776  -4.857   2.033  0.00  0.00    -0.358 OA
HETATM   27  H           1      -0.941  -5.751   1.689  0.00  0.00     0.217 HD
ENDBRANCH  22  26
BRANCH  23  28
HETATM   28  O           1      -0.354  -5.963  -0.382  0.00  0.00    -0.356 OA
HETATM   29  H           1      -0.140  -6.197  -1.300  0.00  0.00     0.218 HD
ENDBRANCH  23  28
BRANCH  24  30
HETATM   30  O           1       0.674  -4.503  -2.388  0.00  0.00    -0.358 OA
HETATM   31  H           1       1.033  -3.854  -3.011  0.00  0.00     0.217 HD
ENDBRANCH  24  30
ENDBRANCH  18  20
ENDBRANCH  17  18
ENDBRANCH   8  17
BRANCH   3  32
HETATM   32  O           1      -2.507  -2.408  -0.769  0.00  0.00    -0.360 OA
HETATM   33  H           1      -1.660  -2.862  -0.593  0.00  0.00     0.217 HD
ENDBRANCH   3  32
BRANCH  13  34
HETATM   34  O           1       2.391   5.767  -2.333  0.00  0.00    -0.358 OA
HETATM   35  H           1       3.128   6.320  -2.024  0.00  0.00     0.217 HD
ENDBRANCH  13  34
BRANCH  15  36
HETATM   36  O           1       3.225   4.033   1.928  0.00  0.00    -0.358 OA
HETATM   37  H           1       2.882   3.362   2.538  0.00  0.00     0.217 HD
ENDBRANCH  15  36
BRANCH   1  38
HETATM   38  O           1      -3.996  -0.499   3.247  0.00  0.00    -0.361 OA
HETATM   39  H           1      -4.343  -1.403   3.323  0.00  0.00     0.217 HD
ENDBRANCH   1  38
BRANCH  14  40
HETATM   40  O           1       3.808   5.776  -0.040  0.00  0.00    -0.356 OA
HETATM   41  H           1       4.197   5.643   0.840  0.00  0.00     0.218 HD
ENDBRANCH  14  40
TORSDOF 11
