REMARK  11 active torsions:
REMARK  status: ('A' for Active; 'I' for Inactive)
REMARK    1  A    between atoms: C_1  and  O_26 
REMARK    2  A    between atoms: C_3  and  O_25 
REMARK    3  A    between atoms: C_8  and  O_12 
REMARK    4  A    between atoms: O_12  and  C_13 
REMARK    5  A    between atoms: C_13  and  C_14 
REMARK    6  A    between atoms: C_16  and  O_31 
REMARK    7  A    between atoms: C_17  and  O_32 
REMARK    8  A    between atoms: C_18  and  O_33 
REMARK    9  A    between atoms: C_21  and  O_28 
REMARK   10  A    between atoms: C_22  and  O_29 
REMARK   11  A    between atoms: C_23  and  O_30 
ROOT
HETATM    1  C           1      -2.112  -0.482   3.012  0.00  0.00     0.071 A 
HETATM    2  C           1      -1.430  -1.635   3.028  0.00  0.00     0.073 A 
HETATM    3  C           1      -0.701  -2.049   1.979  0.00  0.00     0.077 A 
HETATM    4  C           1      -0.641  -1.270   0.881  0.00  0.00     0.011 A 
HETATM    5  C           1      -1.282  -0.082   0.836  0.00  0.00     0.081 A 
HETATM    6  C           1      -2.016   0.271   1.906  0.00  0.00     0.074 A 
HETATM    7  C           1       0.166  -1.719  -0.319  0.00  0.00     0.080 C 
HETATM    8  C           1       0.523  -0.530  -1.203  0.00  0.00     0.170 C 
HETATM    9  C           1      -0.773   0.239  -1.465  0.00  0.00     0.192 C 
HETATM   10  O           1      -1.260   0.757  -0.250  0.00  0.00    -0.338 OA
HETATM   11  C           1      -1.805  -0.561  -2.254  0.00  0.00    -0.021 A 
HETATM   12  C           1      -1.555  -0.885  -3.535  0.00  0.00     0.049 A 
HETATM   13  C           1      -2.421  -1.591  -4.280  0.00  0.00     0.102 A 
HETATM   14  C           1      -3.582  -1.986  -3.731  0.00  0.00     0.132 A 
HETATM   15  C           1      -3.866  -1.675  -2.455  0.00  0.00     0.102 A 
HETATM   16  C           1      -2.978  -0.968  -1.738  0.00  0.00     0.049 A 
ENDROOT
BRANCH   8  17
HETATM   17  O           1       1.499   0.379  -0.755  0.00  0.00    -0.309 OA
BRANCH  17  18
HETATM   18  C           1       2.140   0.405   0.460  0.00  0.00     0.294 C 
HETATM   19  O           1       2.037  -0.512   1.248  0.00  0.00    -0.259 OA
BRANCH  18  20
HETATM   20  C           1       2.892   1.498   0.805  0.00  0.00     0.045 A 
HETATM   21  C           1       3.020   2.530  -0.050  0.00  0.00     0.057 A 
HETATM   22  C           1       3.751   3.616   0.252  0.00  0.00     0.102 A 
HETATM   23  C           1       4.371   3.679   1.441  0.00  0.00     0.132 A 
HETATM   24  C           1       4.261   2.666   2.316  0.00  0.00     0.102 A 
HETATM   25  C           1       3.526   1.590   1.989  0.00  0.00     0.057 A 
BRANCH  22  26
HETATM   26  O           1       3.877   4.652  -0.621  0.00  0.00    -0.358 OA
HETATM   27  H           1       4.440   5.331  -0.212  0.00  0.00     0.217 HD
ENDBRANCH  22  26
BRANCH  23  28
HETATM   28  O           1       5.115   4.769   1.768  0.00  0.00    -0.356 OA
HETATM   29  H           1       5.483   4.645   2.658  0.00  0.00     0.218 HD
ENDBRANCH  23  28
BRANCH  24  30
HETATM   30  O           1       4.892   2.741   3.518  0.00  0.00    -0.358 OA
HETATM   31  H           1       4.712   1.942   4.038  0.00  0.00     0.217 HD
ENDBRANCH  24  30
ENDBRANCH  18  20
ENDBRANCH  17  18
ENDBRANCH   8  17
BRANCH   3  32
HETATM   32  O           1      -0.003  -3.214   2.056  0.00  0.00    -0.360 OA
HETATM   33  H           1       0.767  -3.151   1.469  0.00  0.00     0.217 HD
ENDBRANCH   3  32
BRANCH  13  34
HETATM   34  O           1      -2.150  -1.912  -5.574  0.00  0.00    -0.358 OA
HETATM   35  H           1      -2.904  -2.413  -5.927  0.00  0.00     0.217 HD
ENDBRANCH  13  34
BRANCH  15  36
HETATM   36  O           1      -5.043  -2.075  -1.907  0.00  0.00    -0.358 OA
HETATM   37  H           1      -5.103  -1.764  -0.990  0.00  0.00     0.217 HD
ENDBRANCH  15  36
BRANCH   1  38
HETATM   38  O           1      -2.853  -0.091   4.083  0.00  0.00    -0.361 OA
HETATM   39  H           1      -2.766  -0.755   4.787  0.00  0.00     0.217 HD
ENDBRANCH   1  38
BRANCH  14  40
HETATM   40  O           1      -4.477  -2.701  -4.462  0.00  0.00    -0.356 OA
HETATM   41  H           1      -5.253  -2.890  -3.910  0.00  0.00     0.218 HD
ENDBRANCH  14  40
TORSDOF 11
