REMARK  14 active torsions:
REMARK  status: ('A' for Active; 'I' for Inactive)
REMARK    1  A    between atoms: C_1  and  C_9 
REMARK    2  A    between atoms: C_2  and  O_43 
REMARK    3  A    between atoms: C_3  and  C_11 
REMARK    4  A    between atoms: C_5  and  C_17 
REMARK    5  A    between atoms: C_7  and  C_21 
REMARK    6  A    between atoms: C_9  and  C_10 
REMARK    7  A    between atoms: C_11  and  C_12 
REMARK    8  A    between atoms: C_12  and  C_13 
REMARK    9  A    between atoms: C_12  and  C_25 
REMARK   10  A    between atoms: C_13  and  C_14 
REMARK   11  A    between atoms: C_17  and  C_18 
REMARK   12  A    between atoms: C_21  and  C_22 
REMARK   13  A    between atoms: C_29  and  O_37 
REMARK   14  A    between atoms: C_30  and  O_38 
ROOT
HETATM    1  C           1      -1.322   1.154  -1.351  0.00  0.00     0.092 C 
HETATM    2  C           1      -0.223   0.369  -1.430  0.00  0.00     0.077 C 
HETATM    3  C           1       0.518  -0.164  -0.201  0.00  0.00     0.072 C 
HETATM    4  C           1      -0.217  -1.402   0.349  0.00  0.00     0.030 C 
HETATM    5  C           1      -1.608  -1.131   0.950  0.00  0.00    -0.000 C 
HETATM    6  C           1      -1.587   0.079   1.940  0.00  0.00    -0.021 C 
HETATM    7  C           1      -1.019   1.322   1.162  0.00  0.00     0.097 C 
HETATM    8  C           1      -1.816   1.553  -0.138  0.00  0.00     0.183 C 
HETATM    9  C           1       0.429   0.970   0.808  0.00  0.00     0.159 C 
HETATM   10  O           1       1.394   1.548   1.257  0.00  0.00    -0.295 OA
HETATM   11  C           1      -3.021   0.309   2.475  0.00  0.00     0.017 C 
HETATM   12  C           1      -0.699  -0.179   3.183  0.00  0.00     0.017 C 
HETATM   13  O           1      -2.909   2.077  -0.043  0.00  0.00    -0.291 OA
ENDROOT
BRANCH   1  14
HETATM   14  C           1      -1.973   1.549  -2.494  0.00  0.00     0.198 C 
HETATM   15  O           1      -2.323   2.715  -2.558  0.00  0.00    -0.286 OA
BRANCH  14  16
HETATM   16  C           1      -2.277   0.662  -3.494  0.00  0.00     0.018 A 
HETATM   17  C           1      -2.759   1.103  -4.673  0.00  0.00     0.054 A 
HETATM   18  C           1      -3.070   0.279  -5.689  0.00  0.00     0.099 A 
HETATM   19  C           1      -2.913  -1.047  -5.535  0.00  0.00     0.098 A 
HETATM   20  C           1      -2.464  -1.507  -4.359  0.00  0.00     0.040 A 
HETATM   21  C           1      -2.158  -0.673  -3.354  0.00  0.00     0.018 A 
BRANCH  18  22
HETATM   22  O           1      -3.540   0.758  -6.873  0.00  0.00    -0.358 OA
HETATM   23  H           1      -3.712   0.005  -7.463  0.00  0.00     0.217 HD
ENDBRANCH  18  22
BRANCH  19  24
HETATM   24  O           1      -3.227  -1.897  -6.549  0.00  0.00    -0.358 OA
HETATM   25  H           1      -3.094  -2.815  -6.265  0.00  0.00     0.217 HD
ENDBRANCH  19  24
ENDBRANCH  14  16
ENDBRANCH   1  14
BRANCH   2  26
HETATM   26  O           1       0.356   0.041  -2.623  0.00  0.00    -0.363 OA
HETATM   27  H           1      -0.094   0.451  -3.379  0.00  0.00     0.217 HD
ENDBRANCH   2  26
BRANCH   3  28
HETATM   28  C           1       1.996  -0.501  -0.540  0.00  0.00     0.033 C 
BRANCH  28  29
HETATM   29  C           1       2.910  -1.059   0.580  0.00  0.00     0.018 C 
BRANCH  29  30
HETATM   30  C           1       4.395  -0.728   0.314  0.00  0.00     0.036 C 
BRANCH  30  31
HETATM   31  C           1       4.659   0.759   0.355  0.00  0.00    -0.024 C 
HETATM   32  C           1       4.903   1.581  -0.682  0.00  0.00    -0.091 C 
HETATM   33  C           1       5.125   3.060  -0.461  0.00  0.00     0.042 C 
HETATM   34  C           1       4.959   1.158  -2.131  0.00  0.00     0.042 C 
ENDBRANCH  30  31
ENDBRANCH  29  30
BRANCH  29  35
HETATM   35  C           1       2.804  -2.559   0.817  0.00  0.00    -0.089 C 
HETATM   36  C           1       2.777  -3.003   2.262  0.00  0.00     0.043 C 
HETATM   37  C           1       2.832  -3.461  -0.178  0.00  0.00     0.014 C 
ENDBRANCH  29  35
ENDBRANCH  28  29
ENDBRANCH   3  28
BRANCH   7  38
HETATM   38  C           1      -1.043   2.672   1.935  0.00  0.00     0.054 C 
BRANCH  38  39
HETATM   39  C           1      -0.640   3.836   1.053  0.00  0.00    -0.023 C 
HETATM   40  C           1      -1.406   4.852   0.615  0.00  0.00    -0.091 C 
HETATM   41  C           1      -0.833   5.908  -0.305  0.00  0.00     0.042 C 
HETATM   42  C           1      -2.866   5.059   0.938  0.00  0.00     0.042 C 
ENDBRANCH  38  39
ENDBRANCH   7  38
BRANCH   5  43
HETATM   43  C           1      -2.305  -2.446   1.374  0.00  0.00     0.033 C 
BRANCH  43  44
HETATM   44  C           1      -1.682  -3.221   2.507  0.00  0.00    -0.024 C 
HETATM   45  C           1      -0.878  -4.296   2.426  0.00  0.00    -0.091 C 
HETATM   46  C           1      -0.378  -4.985   3.676  0.00  0.00     0.042 C 
HETATM   47  C           1      -0.417  -4.942   1.142  0.00  0.00     0.042 C 
ENDBRANCH  43  44
ENDBRANCH   5  43
TORSDOF 14
