REMARK  1 active torsions:
REMARK  status: ('A' for Active; 'I' for Inactive)
REMARK    1  A    between atoms: C_7  and  O_14 
ROOT
HETATM    1  C           1       1.905  -0.137   0.020  0.00  0.00    -0.007 A 
HETATM    2  C           1       1.353  -1.357  -0.003  0.00  0.00     0.066 A 
HETATM    3  C           1       0.015  -1.583  -0.021  0.00  0.00     0.186 A 
HETATM    4  C           1      -0.806  -0.492  -0.015  0.00  0.00     0.061 A 
HETATM    5  C           1      -0.257   0.747   0.007  0.00  0.00     0.031 A 
HETATM    6  C           1       1.095   0.955   0.025  0.00  0.00     0.189 A 
HETATM    7  C           1      -2.157  -0.636  -0.032  0.00  0.00     0.080 A 
HETATM    8  C           1      -2.921   0.472  -0.026  0.00  0.00     0.037 A 
HETATM    9  C           1      -2.394   1.699  -0.004  0.00  0.00     0.004 A 
HETATM   10  C           1      -1.063   1.828   0.012  0.00  0.00     0.017 A 
HETATM   11  O           1      -0.351  -2.740  -0.040  0.00  0.00    -0.287 OA
HETATM   12  O           1       1.594   2.065   0.046  0.00  0.00    -0.287 OA
HETATM   13  C           1       3.417  -0.041   0.038  0.00  0.00     0.052 C 
ENDROOT
BRANCH   7  14
HETATM   14  O           1      -2.838  -1.820  -0.055  0.00  0.00    -0.360 OA
HETATM   15  H           1      -2.300  -2.619  -0.064  0.00  0.00     0.217 HD
ENDBRANCH   7  14
TORSDOF 1
