REMARK  4 active torsions:
REMARK  status: ('A' for Active; 'I' for Inactive)
REMARK    1  A    between atoms: N_4  and  C_7 
REMARK    2  A    between atoms: C_17  and  C_23 
REMARK    3  A    between atoms: C_22  and  C_32 
REMARK    4  A    between atoms: C_23  and  C_26 
ROOT
HETATM    1  C           1       0.348   1.597  -2.874  0.00  0.00     0.055 C 
ENDROOT
BRANCH   1   2
HETATM    2  C           1      -0.637   0.845  -2.328  0.00  0.00     0.077 A 
HETATM    3  O           1      -0.771   0.294  -1.184  0.00  0.00    -0.310 OA
HETATM    4  C           1      -1.813  -0.431  -1.307  0.00  0.00     0.088 A 
HETATM    5  C           1      -2.602  -1.075  -0.400  0.00  0.00     0.024 A 
HETATM    6  C           1      -2.285  -0.310  -2.567  0.00  0.00     0.041 A 
HETATM    7  C           1      -3.876  -1.484  -0.663  0.00  0.00     0.085 A 
HETATM    8  C           1      -2.209  -1.410   0.848  0.00  0.00     0.023 A 
HETATM    9  C           1      -4.632  -2.175   0.226  0.00  0.00     0.036 A 
HETATM   10  C           1      -4.202  -2.514   1.451  0.00  0.00    -0.054 A 
HETATM   11  C           1      -5.170  -3.288   2.342  0.00  0.00     0.049 C 
HETATM   12  C           1      -2.956  -2.098   1.744  0.00  0.00    -0.055 A 
HETATM   13  C           1      -2.422  -2.456   3.113  0.00  0.00     0.049 C 
HETATM   14  C           1      -1.581   0.583  -3.237  0.00  0.00     0.040 A 
BRANCH   7  15
HETATM   15  N           1      -4.397  -1.270  -1.787  0.00  0.00     0.036 NA
HETATM   16  O           1      -4.772  -2.361  -2.474  0.00  0.00    -0.084 OA
HETATM   17  O           1      -5.439  -0.438  -1.784  0.00  0.00    -0.084 OA
ENDBRANCH   7  15
ENDBRANCH   1   2
BRANCH   1  18
HETATM   18  C           1       1.479   1.797  -2.214  0.00  0.00     0.048 A 
HETATM   19  C           1       1.630   1.195  -1.038  0.00  0.00     0.214 A 
HETATM   20  N           1       2.813   1.572  -0.678  0.00  0.00    -0.208 N 
HETATM   21  O           1       0.614   0.313  -0.661  0.00  0.00    -0.169 OA
HETATM   22  N           1       3.315   2.291  -1.577  0.00  0.00    -0.169 NA
HETATM   23  C           1       3.530   1.416   0.368  0.00  0.00     0.061 A 
HETATM   24  C           1       2.560   2.485  -2.548  0.00  0.00     0.066 A 
HETATM   25  C           1       2.851   3.280  -3.771  0.00  0.00     0.073 C 
HETATM   26  C           1       3.066   0.674   1.394  0.00  0.00     0.033 A 
HETATM   27  C           1       4.742   1.999   0.580  0.00  0.00     0.033 A 
HETATM   28  C           1       3.787   0.460   2.506  0.00  0.00     0.021 A 
HETATM   29  C           1       5.006   1.006   2.688  0.00  0.00     0.041 A 
HETATM   30  C           1       5.465   1.794   1.695  0.00  0.00     0.021 A 
BRANCH  29  31
HETATM   31  C           1       5.692   0.788   3.844  0.00  0.00     0.209 C 
HETATM   32  O           1       5.192   0.048   4.722  0.00  0.00    -0.644 OA
HETATM   33  O           1       6.829   1.281   4.008  0.00  0.00    -0.644 OA
ENDBRANCH  29  31
ENDBRANCH   1  18
TORSDOF 4
