REMARK  3 active torsions:
REMARK  status: ('A' for Active; 'I' for Inactive)
REMARK    1  A    between atoms: C_2  and  C_13 
REMARK    2  A    between atoms: C_12  and  C_18 
REMARK    3  A    between atoms: C_24  and  N_31 
ROOT
HETATM    1  C           1       5.153  -1.794   1.831  0.00  0.00     0.021 A 
HETATM    2  C           1       4.288  -2.790   2.093  0.00  0.00     0.041 A 
HETATM    3  C           1       3.073  -2.722   1.522  0.00  0.00     0.021 A 
HETATM    4  C           1       2.737  -1.692   0.729  0.00  0.00     0.033 A 
HETATM    5  C           1       3.574  -0.667   0.475  0.00  0.00     0.062 A 
HETATM    6  C           1       4.790  -0.764   1.053  0.00  0.00     0.033 A 
HETATM    7  N           1       3.258   0.364  -0.217  0.00  0.00    -0.197 N 
HETATM    8  C           1       2.185   0.621  -0.864  0.00  0.00     0.281 C 
HETATM    9  C           1       2.115   1.967  -1.029  0.00  0.00     0.062 C 
HETATM   10  C           1       3.369   2.348  -0.753  0.00  0.00     0.067 C 
HETATM   11  N           1       4.015   1.341  -0.349  0.00  0.00    -0.168 NA
HETATM   12  C           1       1.105   2.771  -1.393  0.00  0.00     0.056 C 
HETATM   13  C           1       4.047   3.686  -0.834  0.00  0.00     0.073 C 
HETATM   14  O           1       1.528  -0.194  -1.485  0.00  0.00    -0.265 OA
ENDROOT
BRANCH  12  15
HETATM   15  C           1      -0.207   2.506  -1.367  0.00  0.00     0.077 A 
HETATM   16  C           1      -1.161   3.414  -1.618  0.00  0.00     0.040 A 
HETATM   17  C           1      -2.296   2.779  -1.311  0.00  0.00     0.041 A 
HETATM   18  C           1      -1.918   1.561  -0.888  0.00  0.00     0.088 A 
HETATM   19  O           1      -0.691   1.439  -0.984  0.00  0.00    -0.310 OA
HETATM   20  C           1      -2.692   0.550  -0.430  0.00  0.00     0.031 C 
HETATM   21  C           1      -2.222  -0.594   0.134  0.00  0.00     0.116 C 
HETATM   22  C           1      -4.029   0.669  -0.585  0.00  0.00     0.024 C 
HETATM   23  C           1      -3.108  -1.610   0.264  0.00  0.00     0.044 C 
HETATM   24  C           1      -4.430  -1.509   0.029  0.00  0.00    -0.054 C 
HETATM   25  C           1      -5.346  -2.693   0.256  0.00  0.00     0.049 C 
HETATM   26  C           1      -4.913  -0.309  -0.336  0.00  0.00    -0.055 C 
HETATM   27  C           1      -6.390  -0.011  -0.506  0.00  0.00     0.049 C 
BRANCH  21  28
HETATM   28  N           1      -1.045  -0.786   0.556  0.00  0.00    -0.115 N 
HETATM   29  O           1      -0.648  -1.931   1.077  0.00  0.00    -0.532 OA
HETATM   30  O           1      -0.216   0.183   0.920  0.00  0.00    -0.532 OA
ENDBRANCH  21  28
ENDBRANCH  12  15
BRANCH   2  31
HETATM   31  C           1       4.628  -3.823   2.912  0.00  0.00     0.209 C 
HETATM   32  O           1       3.785  -4.717   3.150  0.00  0.00    -0.644 OA
HETATM   33  O           1       5.774  -3.869   3.418  0.00  0.00    -0.644 OA
ENDBRANCH   2  31
TORSDOF 3
