REMARK  4 active torsions:
REMARK  status: ('A' for Active; 'I' for Inactive)
REMARK    1  A    between atoms: C_7  and  C_29 
REMARK    2  A    between atoms: C_17  and  N_18 
REMARK    3  A    between atoms: C_24  and  C_30 
REMARK    4  A    between atoms: C_30  and  C_32 
ROOT
HETATM    1  C           1      -2.813  -0.243  -1.824  0.00  0.00     0.056 C 
ENDROOT
BRANCH   1   2
HETATM    2  C           1      -1.647  -0.043  -2.468  0.00  0.00     0.077 A 
HETATM    3  C           1      -1.513  -0.158  -3.794  0.00  0.00     0.040 A 
HETATM    4  C           1      -0.214   0.064  -4.006  0.00  0.00     0.041 A 
HETATM    5  C           1       0.339   0.297  -2.804  0.00  0.00     0.088 A 
HETATM    6  C           1       1.627   0.600  -2.481  0.00  0.00     0.024 A 
HETATM    7  O           1      -0.556   0.215  -1.953  0.00  0.00    -0.310 OA
HETATM    8  C           1       2.632   0.754  -3.372  0.00  0.00     0.085 A 
HETATM    9  C           1       1.992   0.774  -1.183  0.00  0.00     0.023 A 
HETATM   10  C           1       3.873   1.075  -2.967  0.00  0.00     0.036 A 
HETATM   11  C           1       4.208   1.244  -1.682  0.00  0.00    -0.054 A 
HETATM   12  C           1       3.239   1.090  -0.761  0.00  0.00    -0.055 A 
HETATM   13  C           1       5.653   1.601  -1.380  0.00  0.00     0.049 C 
HETATM   14  C           1       3.581   1.275   0.706  0.00  0.00     0.049 C 
BRANCH   8  15
HETATM   15  N           1       2.626   0.660  -4.622  0.00  0.00     0.036 NA
HETATM   16  O           1       2.411  -0.538  -5.104  0.00  0.00    -0.084 OA
HETATM   17  O           1       1.942   1.568  -5.270  0.00  0.00    -0.084 OA
ENDBRANCH   8  15
ENDBRANCH   1   2
BRANCH   1  18
HETATM   18  C           1      -3.071  -0.322  -0.504  0.00  0.00     0.062 C 
HETATM   19  C           1      -2.235  -0.109   0.543  0.00  0.00     0.281 C 
HETATM   20  O           1      -1.152   0.414   0.464  0.00  0.00    -0.265 OA
HETATM   21  N           1      -2.758  -0.546   1.624  0.00  0.00    -0.197 N 
HETATM   22  C           1      -2.175  -0.733   2.761  0.00  0.00     0.062 A 
HETATM   23  N           1      -3.951  -0.788   1.361  0.00  0.00    -0.168 NA
HETATM   24  C           1      -2.780  -1.452   3.729  0.00  0.00     0.033 A 
HETATM   25  C           1      -0.936  -0.303   3.091  0.00  0.00     0.033 A 
HETATM   26  C           1      -2.175  -1.751   4.892  0.00  0.00     0.021 A 
HETATM   27  C           1      -0.943  -1.306   5.184  0.00  0.00     0.041 A 
HETATM   28  C           1      -0.338  -0.551   4.262  0.00  0.00     0.021 A 
HETATM   29  C           1      -4.209  -0.652   0.126  0.00  0.00     0.067 C 
HETATM   30  C           1      -5.594  -0.827  -0.404  0.00  0.00     0.073 C 
BRANCH  27  31
HETATM   31  C           1      -0.296  -1.606   6.343  0.00  0.00     0.209 C 
HETATM   32  O           1      -0.868  -2.315   7.199  0.00  0.00    -0.644 OA
HETATM   33  O           1       0.850  -1.144   6.545  0.00  0.00    -0.644 OA
ENDBRANCH  27  31
ENDBRANCH   1  18
TORSDOF 4
