REMARK  4 active torsions:
REMARK  status: ('A' for Active; 'I' for Inactive)
REMARK    1  A    between atoms: N_4  and  C_5 
REMARK    2  A    between atoms: C_15  and  C_21 
REMARK    3  A    between atoms: C_20  and  C_31 
REMARK    4  A    between atoms: C_21  and  C_24 
ROOT
HETATM    1  C           1       1.208  -0.033  -2.226  0.00  0.00     0.055 C 
ENDROOT
BRANCH   1   2
HETATM    2  C           1       0.208   0.001  -1.316  0.00  0.00     0.077 C 
HETATM    3  C           1       0.207   0.677  -0.160  0.00  0.00     0.040 C 
HETATM    4  C           1      -1.038   0.587   0.257  0.00  0.00     0.041 C 
HETATM    5  C           1      -1.809  -0.012  -0.683  0.00  0.00     0.088 C 
HETATM    6  C           1      -3.187  -0.038  -0.743  0.00  0.00     0.024 A 
HETATM    7  O           1      -0.878  -0.494  -1.421  0.00  0.00    -0.310 OA
HETATM    8  C           1      -3.879   0.403   0.341  0.00  0.00     0.085 A 
HETATM    9  C           1      -4.059  -0.343  -1.751  0.00  0.00     0.023 A 
HETATM   10  C           1      -5.221   0.422   0.431  0.00  0.00     0.036 A 
HETATM   11  C           1      -6.043   0.030  -0.540  0.00  0.00    -0.054 A 
HETATM   12  C           1      -7.552   0.047  -0.205  0.00  0.00     0.049 C 
HETATM   13  C           1      -5.415  -0.305  -1.679  0.00  0.00    -0.055 A 
HETATM   14  C           1      -6.363  -0.693  -2.824  0.00  0.00     0.049 C 
BRANCH   8  15
HETATM   15  N           1      -3.242   0.824   1.339  0.00  0.00     0.036 NA
HETATM   16  O           1      -3.271  -0.011   2.356  0.00  0.00    -0.084 OA
HETATM   17  O           1      -3.665   2.024   1.726  0.00  0.00    -0.084 OA
ENDBRANCH   8  15
ENDBRANCH   1   2
BRANCH   1  18
HETATM   18  C           1       2.370   0.105  -1.634  0.00  0.00     0.048 A 
HETATM   19  C           1       3.549   0.659  -1.922  0.00  0.00     0.066 A 
HETATM   20  C           1       3.864   1.469  -3.129  0.00  0.00     0.073 C 
HETATM   21  N           1       4.293   0.466  -0.921  0.00  0.00    -0.169 NA
HETATM   22  N           1       3.729  -0.168  -0.023  0.00  0.00    -0.208 N 
HETATM   23  C           1       2.555  -0.492  -0.445  0.00  0.00     0.214 A 
HETATM   24  C           1       4.416  -0.323   1.087  0.00  0.00     0.061 A 
HETATM   25  O           1       1.418  -1.238  -0.086  0.00  0.00    -0.169 OA
HETATM   26  C           1       3.971  -1.044   2.122  0.00  0.00     0.033 A 
HETATM   27  C           1       5.639   0.212   1.351  0.00  0.00     0.033 A 
HETATM   28  C           1       4.696  -1.287   3.242  0.00  0.00     0.021 A 
HETATM   29  C           1       5.917  -0.775   3.458  0.00  0.00     0.041 A 
HETATM   30  C           1       6.376   0.001   2.467  0.00  0.00     0.021 A 
BRANCH  29  31
HETATM   31  C           1       6.622  -1.015   4.617  0.00  0.00     0.209 C 
HETATM   32  O           1       6.129  -1.756   5.505  0.00  0.00    -0.644 OA
HETATM   33  O           1       7.774  -0.553   4.819  0.00  0.00    -0.644 OA
ENDBRANCH  29  31
ENDBRANCH   1  18
TORSDOF 4
