REMARK  4 active torsions:
REMARK  status: ('A' for Active; 'I' for Inactive)
REMARK    1  A    between atoms: C_2  and  C_24 
REMARK    2  A    between atoms: C_9  and  C_12 
REMARK    3  A    between atoms: C_12  and  C_13 
REMARK    4  A    between atoms: C_19  and  N_31 
ROOT
HETATM    1  C           1       2.422  -0.158  -0.482  0.00  0.00     0.055 C 
ENDROOT
BRANCH   1   2
HETATM    2  C           1       2.486   1.172  -0.661  0.00  0.00     0.048 A 
HETATM    3  C           1       1.779   2.096   0.011  0.00  0.00     0.214 A 
HETATM    4  N           1       2.031   3.267  -0.452  0.00  0.00    -0.208 N 
HETATM    5  O           1       1.004   1.760   1.075  0.00  0.00    -0.169 OA
HETATM    6  C           1       1.497   4.395  -0.147  0.00  0.00     0.061 A 
HETATM    7  N           1       2.918   3.136  -1.318  0.00  0.00    -0.169 NA
HETATM    8  C           1       1.834   5.524  -0.805  0.00  0.00     0.033 A 
HETATM    9  C           1       0.558   4.565   0.806  0.00  0.00     0.033 A 
HETATM   10  C           1       1.283   6.721  -0.538  0.00  0.00     0.021 A 
HETATM   11  C           1       0.360   6.865   0.428  0.00  0.00     0.041 A 
HETATM   12  C           1       0.008   5.756   1.100  0.00  0.00     0.021 A 
HETATM   13  C           1       3.245   1.922  -1.463  0.00  0.00     0.066 A 
HETATM   14  C           1       4.265   1.491  -2.470  0.00  0.00     0.073 C 
BRANCH  11  15
HETATM   15  C           1      -0.194   8.080   0.704  0.00  0.00     0.209 C 
HETATM   16  O           1       0.174   9.080   0.047  0.00  0.00    -0.644 OA
HETATM   17  O           1      -1.041   8.217   1.616  0.00  0.00    -0.644 OA
ENDBRANCH  11  15
ENDBRANCH   1   2
BRANCH   1  18
HETATM   18  C           1       1.232  -0.730  -0.226  0.00  0.00     0.077 A 
HETATM   19  O           1       0.954  -1.903   0.022  0.00  0.00    -0.310 OA
HETATM   20  C           1      -0.262  -2.144   0.043  0.00  0.00     0.088 A 
HETATM   21  C           1      -0.869  -1.005  -0.334  0.00  0.00     0.041 A 
HETATM   22  C           1      -0.927  -3.292   0.326  0.00  0.00     0.024 A 
HETATM   23  C           1       0.087  -0.101  -0.522  0.00  0.00     0.040 A 
HETATM   24  C           1      -0.366  -4.485   0.637  0.00  0.00     0.085 A 
HETATM   25  C           1      -2.277  -3.260   0.294  0.00  0.00     0.023 A 
HETATM   26  C           1      -1.179  -5.543   0.882  0.00  0.00     0.036 A 
HETATM   27  C           1      -2.521  -5.479   0.842  0.00  0.00    -0.054 A 
HETATM   28  C           1      -3.357  -6.702   1.135  0.00  0.00     0.049 C 
HETATM   29  C           1      -3.087  -4.300   0.536  0.00  0.00    -0.055 A 
HETATM   30  C           1      -4.583  -4.073   0.451  0.00  0.00     0.049 C 
BRANCH  24  31
HETATM   31  N           1       0.901  -4.556   0.679  0.00  0.00     0.036 NA
HETATM   32  O           1       1.174  -5.536  -0.180  0.00  0.00    -0.084 OA
HETATM   33  O           1       1.183  -5.313   1.739  0.00  0.00    -0.084 OA
ENDBRANCH  24  31
ENDBRANCH   1  18
TORSDOF 4
