REMARK  19 active torsions:
REMARK  status: ('A' for Active; 'I' for Inactive)
REMARK    1  A    between atoms: C_2  and  O_3 
REMARK    2  A    between atoms: O_3  and  C_4 
REMARK    3  A    between atoms: C_4  and  C_5 
REMARK    4  A    between atoms: C_5  and  C_6 
REMARK    5  A    between atoms: C_6  and  O_7 
REMARK    6  A    between atoms: O_7  and  C_8 
REMARK    7  A    between atoms: C_10  and  C_11 
REMARK    8  A    between atoms: C_11  and  C_12 
REMARK    9  A    between atoms: C_12  and  C_13 
REMARK   10  A    between atoms: C_13  and  C_14 
REMARK   11  A    between atoms: C_14  and  C_15 
REMARK   12  A    between atoms: C_15  and  C_16 
REMARK   13  A    between atoms: C_16  and  C_17 
REMARK   14  A    between atoms: C_17  and  C_18 
REMARK   15  A    between atoms: C_18  and  C_19 
REMARK   16  A    between atoms: C_19  and  C_20 
REMARK   17  A    between atoms: C_20  and  C_21 
REMARK   18  A    between atoms: C_21  and  C_22 
REMARK   19  A    between atoms: C_22  and  C_23 
ROOT
HETATM    1  C           1      -2.735  -1.684  -2.338  0.00  0.00     0.028 C 
ENDROOT
BRANCH   1   2
HETATM    2  C           1      -4.068  -2.404  -2.367  0.00  0.00    -0.003 C 
HETATM    3  C           1      -4.839  -2.783  -3.415  0.00  0.00     0.110 C 
BRANCH   3   4
HETATM    4  C           1      -6.016  -3.428  -3.090  0.00  0.00     0.299 C 
HETATM    5  O           1      -6.810  -3.828  -3.920  0.00  0.00    -0.259 OA
BRANCH   4   6
HETATM    6  O           1      -6.347  -3.651  -1.769  0.00  0.00    -0.318 OA
BRANCH   6   7
HETATM    7  C           1      -7.546  -4.305  -1.447  0.00  0.00     0.174 C 
HETATM    8  C           1      -7.650  -4.410   0.072  0.00  0.00     0.034 C 
ENDBRANCH   6   7
ENDBRANCH   4   6
ENDBRANCH   3   4
BRANCH   3   9
HETATM    9  C           1      -4.426  -2.517  -4.704  0.00  0.00     0.299 C 
HETATM   10  O           1      -5.076  -2.832  -5.682  0.00  0.00    -0.259 OA
BRANCH   9  11
HETATM   11  O           1      -3.240  -1.870  -4.949  0.00  0.00    -0.318 OA
BRANCH  11  12
HETATM   12  C           1      -2.830  -1.608  -6.264  0.00  0.00     0.174 C 
HETATM   13  C           1      -1.485  -0.889  -6.213  0.00  0.00     0.034 C 
ENDBRANCH  11  12
ENDBRANCH   9  11
ENDBRANCH   3   9
ENDBRANCH   1   2
BRANCH   1  14
HETATM   14  C           1      -2.214  -1.442  -0.909  0.00  0.00     0.004 C 
BRANCH  14  15
HETATM   15  C           1      -0.864  -0.704  -0.910  0.00  0.00     0.000 C 
BRANCH  15  16
HETATM   16  C           1      -0.346  -0.452   0.515  0.00  0.00     0.000 C 
BRANCH  16  17
HETATM   17  C           1       0.997   0.297   0.516  0.00  0.00     0.000 C 
BRANCH  17  18
HETATM   18  C           1       1.508   0.559   1.942  0.00  0.00     0.000 C 
BRANCH  18  19
HETATM   19  C           1       2.844   1.319   1.945  0.00  0.00     0.000 C 
BRANCH  19  20
HETATM   20  C           1       3.348   1.591   3.372  0.00  0.00     0.000 C 
BRANCH  20  21
HETATM   21  C           1       4.678   2.361   3.376  0.00  0.00     0.000 C 
BRANCH  21  22
HETATM   22  C           1       5.175   2.641   4.804  0.00  0.00     0.000 C 
BRANCH  22  23
HETATM   23  C           1       6.501   3.419   4.810  0.00  0.00     0.000 C 
BRANCH  23  24
HETATM   24  C           1       6.994   3.703   6.238  0.00  0.00    -0.000 C 
BRANCH  24  25
HETATM   25  C           1       8.318   4.484   6.244  0.00  0.00    -0.005 C 
HETATM   26  C           1       8.806   4.768   7.671  0.00  0.00     0.005 C 
ENDBRANCH  24  25
ENDBRANCH  23  24
ENDBRANCH  22  23
ENDBRANCH  21  22
ENDBRANCH  20  21
ENDBRANCH  19  20
ENDBRANCH  18  19
ENDBRANCH  17  18
ENDBRANCH  16  17
ENDBRANCH  15  16
ENDBRANCH  14  15
ENDBRANCH   1  14
TORSDOF 19
