as.mol
  ChemDraw07211515343D

 56 58  0  0  1  0  0  0  0  0999 V2000
   -0.8199   -1.8099    2.6551 O   0  0  0  0  0  0  0  0  0  0  0  0
   -1.5406   -3.0582    4.0816 O   0  0  0  0  0  0  0  0  0  0  0  0
   -1.1803   -2.4340    3.0847 P   0  0  0  0  0  0  0  0  0  0  0  0
   -1.9010   -2.4340    2.8276 O   0  0  0  0  0  0  0  0  0  0  0  0
   -2.2613   -1.8099    2.5973 P   0  0  0  0  0  0  0  0  0  0  0  0
   -1.5406   -1.8099    3.2070 O   0  0  0  0  0  0  0  0  0  0  0  0
   -2.9820   -1.8099    2.3479 O   0  0  0  0  0  0  0  0  0  0  0  0
   -1.9010   -1.1857    1.7280 O   0  0  0  0  0  0  0  0  0  0  0  0
   -2.2613   -0.5616    1.4709 C   0  0  0  0  0  0  0  0  0  0  0  0
   -1.9010    0.0626    0.6589 C   0  0  0  0  0  0  0  0  0  0  0  0
   -1.2768   -0.2978    0.0641 C   0  0  0  0  0  0  0  0  0  0  0  0
   -1.2768    0.4229    0.7884 C   0  0  0  0  0  0  0  0  0  0  0  0
   -2.2613    0.6867    0.3368 C   0  0  0  0  0  0  0  0  0  0  0  0
   -2.9820    0.6867    0.8862 C   0  0  0  0  0  0  0  0  0  0  0  0
   -1.9010    1.3108   -0.5122 C   0  0  0  0  0  0  0  0  0  0  0  0
   -1.1803    1.3108   -0.8654 O   0  0  0  0  0  0  0  0  0  0  0  0
   -2.2613    1.9350   -0.8510 N   0  0  0  0  0  0  0  0  0  0  0  0
   -2.9820    1.9350   -0.5426 H   0  0  0  0  0  0  0  0  0  0  0  0
   -1.9010    2.5591   -1.6642 C   0  0  0  0  0  0  0  0  0  0  0  0
   -2.2613    3.1833   -1.7728 C   0  0  0  0  0  0  0  0  0  0  0  0
   -1.9010    3.8074   -2.6020 C   0  0  0  0  0  0  0  0  0  0  0  0
   -1.1803    3.8074   -3.1372 O   0  0  0  0  0  0  0  0  0  0  0  0
   -2.2613    4.4316   -2.6957 N   0  0  0  0  0  0  0  0  0  0  0  0
   -2.9820    4.4316   -2.2202 H   0  0  0  0  0  0  0  0  0  0  0  0
   -1.9010    5.0557   -3.4510 C   0  0  0  0  0  0  0  0  0  0  0  0
   -2.2613    5.6799   -3.4492 C   0  0  0  0  0  0  0  0  0  0  0  0
   -1.9010    6.3040   -4.4067 S   0  0  0  0  0  0  0  0  0  0  0  0
   -2.2613    6.9282   -4.4372 C   0  0  0  0  0  0  0  0  0  0  0  0
   -2.9820    6.9282   -3.8799 O   0  0  0  0  0  0  0  0  0  0  0  0
   -1.9010    7.5523   -5.2121 C   0  0  0  0  0  0  0  0  0  0  0  0
   -0.8199   -3.0582    2.6522 O   0  0  0  0  0  0  0  0  0  0  0  0
   -1.1803   -3.6823    3.0889 C   0  0  0  0  0  0  0  0  0  0  0  0
   -0.8199   -4.3065    2.6957 C   0  0  0  0  0  0  0  0  0  0  0  0
   -1.1130   -4.9649    3.2177 C   0  0  0  0  0  0  0  0  0  0  0  0
   -0.5775   -5.4471    3.7827 C   0  0  0  0  0  0  0  0  0  0  0  0
    0.0467   -5.0868    3.2159 C   0  0  0  0  0  0  0  0  0  0  0  0
   -0.1032   -4.3818    2.5543 O   0  0  0  0  0  0  0  0  0  0  0  0
   -1.8180   -5.1147    2.7637 C   0  0  0  0  0  0  0  0  0  0  0  0
   -2.3002   -4.5791    2.1606 P   0  0  0  0  0  0  0  0  0  0  0  0
   -2.5230   -5.2646    2.2536 O   0  0  0  0  0  0  0  0  0  0  0  0
   -3.0052   -4.7290    2.3151 O   0  0  0  0  0  0  0  0  0  0  0  0
   -2.0775   -3.8937    1.1505 O   0  0  0  0  0  0  0  0  0  0  0  0
   -0.6528   -6.1639    4.1866 O   0  0  0  0  0  0  0  0  0  0  0  0
   -1.3112   -6.4570    4.6382 H   0  0  0  0  0  0  0  0  0  0  0  0
    0.7051   -5.3799    3.6085 N   0  0  0  0  0  0  0  0  0  0  0  0
    1.3292   -5.0196    3.6192 C   0  0  0  0  0  0  0  0  0  0  0  0
    1.8648   -5.5018    4.0017 N   0  0  0  0  0  0  0  0  0  0  0  0
    1.5717   -6.1602    4.2331 C   0  0  0  0  0  0  0  0  0  0  0  0
    1.8648   -6.8186    4.6567 C   0  0  0  0  0  0  0  0  0  0  0  0
    0.8549   -6.0849    3.9838 C   0  0  0  0  0  0  0  0  0  0  0  0
    1.4412   -7.4017    4.8029 N   0  0  0  0  0  0  0  0  0  0  0  0
    0.7245   -7.3263    4.5416 C   0  0  0  0  0  0  0  0  0  0  0  0
    0.4313   -6.6679    4.1401 N   0  0  0  0  0  0  0  0  0  0  0  0
    2.5816   -6.8939    4.8846 N   0  0  0  0  0  0  0  0  0  0  0  0
    3.0052   -6.3109    4.7474 H   0  0  0  0  0  0  0  0  0  0  0  0
    2.8747   -7.5523    5.2121 H   0  0  0  0  0  0  0  0  0  0  0  0
  1  3  2  0      
  3 31  1  0      
  3  2  1  1      
  4  3  1  0      
  5  8  1  0      
  5  4  1  0      
  5  6  1  1      
  7  5  2  0      
  9  8  1  0      
 10 12  1  0      
 10  9  1  0      
 11 10  1  0      
 13 15  1  0      
 13 10  1  0      
 13 14  1  6      
 16 15  2  0      
 17 18  1  0      
 17 15  1  0      
 19 17  1  0      
 20 19  1  0      
 21 20  1  0      
 22 21  2  0      
 23 21  1  0      
 23 24  1  0      
 25 26  1  0      
 25 23  1  0      
 27 26  1  0      
 28 27  1  0      
 28 29  2  0      
 30 28  1  0      
 31 32  1  0      
 33 32  1  1      
 33 34  1  0      
 34 38  1  6      
 34 35  1  0      
 35 43  1  6      
 36 45  1  1      
 36 35  1  0      
 37 33  1  0      
 37 36  1  0      
 39 40  1  0      
 39 41  1  0      
 39 38  1  0      
 42 39  2  0      
 43 44  1  0      
 45 46  1  0      
 45 50  1  0      
 46 47  2  0      
 47 48  1  0      
 48 49  2  0      
 49 51  1  0      
 49 54  1  0      
 50 53  2  0      
 50 48  1  0      
 52 51  2  0      
 53 52  1  0      
 54 56  1  0      
 55 54  1  0      
M  END
