pdbs/blv1so2.pdb
 OpenBabel07211501453D

 73 75  0  0  1  0  0  0  0  0999 V2000
    0.9550   -4.5300    1.7500 C   0  0  0  0  0  0  0  0  0  0  0  0
    2.5380   -3.0000    2.9770 C   0  0  0  0  0  0  0  0  0  0  0  0
    1.0520   -3.3680    2.7670 C   0  0  0  0  0  0  0  0  0  0  0  0
    0.1910   -2.1680    2.2590 C   0  0  1  0  0  0  0  0  0  0  0  0
    0.1830   -0.9440    3.1960 C   0  0  0  0  0  0  0  0  0  0  0  0
    0.4560   -1.6630    0.8390 C   0  0  0  0  0  0  0  0  0  0  0  0
    1.4920   -1.8060    0.2390 O   0  0  0  0  0  0  0  0  0  0  0  0
   -0.6010   -0.9860    0.2830 N   0  0  0  0  0  0  0  0  0  0  0  0
   -1.4730   -0.9280    0.8090 H   0  0  0  0  0  0  0  0  0  0  0  0
   -0.5590   -0.4500   -1.0830 C   0  0  0  0  0  0  0  0  0  0  0  0
   -1.5530    0.7120   -1.2650 C   0  0  0  0  0  0  0  0  0  0  0  0
   -1.4990    1.3210   -2.6610 C   0  0  0  0  0  0  0  0  0  0  0  0
   -0.8390    0.8550   -3.5580 O   0  0  0  0  0  0  0  0  0  0  0  0
   -2.2540    2.4520   -2.8290 N   0  0  0  0  0  0  0  0  0  0  0  0
   -2.7760    2.8240   -2.0360 H   0  0  0  0  0  0  0  0  0  0  0  0
   -2.2530    3.1800   -4.1040 C   0  0  0  0  0  0  0  0  0  0  0  0
   -3.3000    4.3080   -4.1540 C   0  0  0  0  0  0  0  0  0  0  0  0
   -3.1300    5.1040   -5.7830 S   0  0  0  0  0  0  0  0  0  0  0  0
   -4.4190    6.3750   -5.7040 C   0  0  0  0  0  0  0  0  0  0  0  0
   -4.3250    7.2000   -7.2850 S   0  0  0  0  0  0  0  0  0  0  0  0
   -4.9290    6.4940   -8.4040 O   0  0  0  0  0  0  0  0  0  0  0  0
   -3.2390    8.1560   -7.4380 O   0  0  0  0  0  0  0  0  0  0  0  0
   -5.6830    8.4210   -7.0030 C   0  0  0  0  0  0  0  0  0  0  0  0
   -5.9040    9.3250   -8.2310 C   0  0  0  0  0  0  0  0  0  0  0  0
   -7.0140   10.3700   -8.0250 C   0  0  0  0  0  0  0  0  0  0  0  0
   -7.2190   11.2180   -9.2930 C   0  0  0  0  0  0  0  0  0  0  0  0
   -8.3070   12.2910   -9.1230 C   0  0  0  0  0  0  0  0  0  0  0  0
   -8.5370   13.0930  -10.4160 C   0  0  2  0  0  0  0  0  0  0  0  0
   -7.3140   13.8080  -10.8070 N   0  0  0  0  0  0  0  0  0  0  0  0
   -6.8250   14.3450  -10.0910 H   0  0  0  0  0  0  0  0  0  0  0  0
   -6.8880   13.9090  -12.1030 C   0  0  0  0  0  0  0  0  0  0  0  0
   -7.4600   13.3860  -13.0260 O   0  0  0  0  0  0  0  0  0  0  0  0
   -5.6290   14.7380  -12.2750 C   0  0  0  0  0  0  0  0  0  0  0  0
   -9.6650   14.1010  -10.2330 C   0  0  0  0  0  0  0  0  0  0  0  0
  -10.9170   13.6100  -10.4250 N   0  0  0  0  0  0  0  0  0  0  0  0
  -11.0670   12.6470  -10.6870 H   0  0  0  0  0  0  0  0  0  0  0  0
  -11.6960   14.2430  -10.3100 H   0  0  0  0  0  0  0  0  0  0  0  0
   -9.4820   15.2510   -9.9290 O   0  0  0  0  0  0  0  0  0  0  0  0
    0.4940   -3.8540    4.1240 C   0  0  0  0  0  0  0  0  0  0  0  0
    1.1010   -5.0590    4.5200 O   0  0  0  0  0  0  0  0  0  0  0  0
    0.7310   -5.7440    5.9740 P   0  0  1  0  0  0  0  0  0  0  0  0
    0.7060   -4.6670    7.0040 O   0  0  0  0  0  0  0  0  0  0  0  0
   -0.9270   -6.0900    5.5700 O   0  0  0  0  0  0  0  0  0  0  0  0
    1.7190   -6.9740    6.3230 O   0  0  0  0  0  0  0  0  0  0  0  0
    3.2830   -6.5950    6.6220 P   0  0  1  0  0  0  0  0  0  0  0  0
    3.8280   -5.5300    5.7310 O   0  0  0  0  0  0  0  0  0  0  0  0
    3.8610   -6.4110    8.2480 O   0  0  0  0  0  0  0  0  0  0  0  0
    4.0310   -7.9400    5.9570 O   0  0  0  0  0  0  0  0  0  0  0  0
    4.1820   -9.1140    6.7250 C   0  0  0  0  0  0  0  0  0  0  0  0
    5.3150   -9.9850    6.1560 C   0  0  2  0  0  0  0  0  0  0  0  0
    5.7260  -11.1630    7.0590 C   0  0  2  0  0  0  0  0  0  0  0  0
    6.5780  -10.3740    8.0630 C   0  0  2  0  0  0  0  0  0  0  0  0
    7.2980   -9.3880    7.1580 C   0  0  1  0  0  0  0  0  0  0  0  0
    6.4750   -9.2000    6.0230 O   0  0  0  0  0  0  0  0  0  0  0  0
    6.5500  -12.2620    6.3400 C   0  0  0  0  0  0  0  0  0  0  0  0
    5.6440  -13.5250    5.3410 P   0  0  0  0  0  0  0  0  0  0  0  0
    4.1800  -13.6180    5.5910 O   0  0  0  0  0  0  0  0  0  0  0  0
    6.2890  -15.1300    5.5420 O   0  0  0  0  0  0  0  0  0  0  0  0
    5.9350  -13.5060    3.6290 O   0  0  0  0  0  0  0  0  0  0  0  0
    7.4760  -11.1710    8.7930 O   0  0  0  0  0  0  0  0  0  0  0  0
    6.9960  -11.7110    9.4240 H   0  0  0  0  0  0  0  0  0  0  0  0
    7.7260   -8.1610    7.8490 N   0  0  0  0  0  0  0  0  0  0  0  0
    7.0600   -7.0850    7.9280 C   0  0  0  0  0  0  0  0  0  0  0  0
    7.7350   -6.2270    8.5740 N   0  0  0  0  0  0  0  0  0  0  0  0
    8.8130   -6.8010    8.9090 C   0  0  0  0  0  0  0  0  0  0  0  0
    9.8600   -6.3160    9.6000 C   0  0  0  0  0  0  0  0  0  0  0  0
    8.8340   -8.0650    8.4450 C   0  0  0  0  0  0  0  0  0  0  0  0
   10.8440   -7.0950    9.7890 N   0  0  0  0  0  0  0  0  0  0  0  0
   10.7520   -8.2620    9.3100 C   0  0  0  0  0  0  0  0  0  0  0  0
    9.8300   -8.8140    8.6460 N   0  0  0  0  0  0  0  0  0  0  0  0
    9.8550   -5.1230   10.0270 N   0  0  0  0  0  0  0  0  0  0  0  0
    9.0270   -4.5040    9.8480 H   0  0  0  0  0  0  0  0  0  0  0  0
   10.6790   -4.7500   10.5580 H   0  0  0  0  0  0  0  0  0  0  0  0
  1  3  1  0  0  0  0
  3  2  1  0  0  0  0
  3 39  1  0  0  0  0
  4  6  1  1  0  0  0
  4  3  1  0  0  0  0
  4  5  1  0  0  0  0
  7  6  2  0  0  0  0
  8  9  1  0  0  0  0
  8  6  1  0  0  0  0
 10  8  1  0  0  0  0
 11 10  1  0  0  0  0
 12 11  1  0  0  0  0
 13 12  2  0  0  0  0
 14 12  1  0  0  0  0
 14 15  1  0  0  0  0
 16 14  1  0  0  0  0
 17 16  1  0  0  0  0
 18 19  1  0  0  0  0
 18 17  1  0  0  0  0
 20 23  1  0  0  0  0
 20 19  1  0  0  0  0
 21 20  2  0  0  0  0
 22 20  2  0  0  0  0
 24 25  1  0  0  0  0
 24 23  1  0  0  0  0
 26 27  1  0  0  0  0
 26 25  1  0  0  0  0
 28 29  1  1  0  0  0
 28 34  1  0  0  0  0
 28 27  1  0  0  0  0
 29 30  1  0  0  0  0
 31 29  1  0  0  0  0
 32 31  2  0  0  0  0
 33 31  1  0  0  0  0
 34 38  2  0  0  0  0
 35 37  1  0  0  0  0
 35 34  1  0  0  0  0
 36 35  1  0  0  0  0
 39 40  1  0  0  0  0
 41 40  1  6  0  0  0
 41 44  1  0  0  0  0
 41 42  1  0  0  0  0
 43 41  2  0  0  0  0
 44 45  1  0  0  0  0
 45 46  2  6  0  0  0
 45 47  1  0  0  0  0
 48 45  1  0  0  0  0
 48 49  1  0  0  0  0
 50 49  1  1  0  0  0
 50 51  1  0  0  0  0
 51 55  1  6  0  0  0
 51 52  1  0  0  0  0
 52 60  1  6  0  0  0
 53 62  1  1  0  0  0
 53 52  1  0  0  0  0
 54 50  1  0  0  0  0
 54 53  1  0  0  0  0
 56 58  1  0  0  0  0
 56 57  1  0  0  0  0
 56 55  1  0  0  0  0
 59 56  2  0  0  0  0
 60 61  1  0  0  0  0
 62 63  1  0  0  0  0
 62 67  1  0  0  0  0
 63 64  2  0  0  0  0
 64 65  1  0  0  0  0
 65 66  2  0  0  0  0
 66 68  1  0  0  0  0
 66 71  1  0  0  0  0
 67 70  2  0  0  0  0
 67 65  1  0  0  0  0
 69 68  2  0  0  0  0
 70 69  1  0  0  0  0
 71 73  1  0  0  0  0
 72 71  1  0  0  0  0
M  END
