pdbs/blv1soc.pdb
 OpenBabel07211501453D

 72 74  0  0  1  0  0  0  0  0999 V2000
    1.2720   -3.7110    2.2330 C   0  0  0  0  0  0  0  0  0  0  0  0
    2.8060   -3.5930    2.3700 C   0  0  0  0  0  0  0  0  0  0  0  0
    0.9400   -4.8080    1.1940 C   0  0  0  0  0  0  0  0  0  0  0  0
    0.7110   -4.1490    3.6070 C   0  0  0  0  0  0  0  0  0  0  0  0
    1.0910   -5.4640    3.9360 O   0  0  0  0  0  0  0  0  0  0  0  0
    0.6580   -6.0970    5.3990 P   0  0  2  0  0  0  0  0  0  0  0  0
   -0.6000   -7.1130    4.7410 O   0  0  0  0  0  0  0  0  0  0  0  0
   -0.0800   -5.0660    6.1820 O   0  0  0  0  0  0  0  0  0  0  0  0
    1.8630   -6.7520    6.2770 O   0  0  0  0  0  0  0  0  0  0  0  0
    3.3410   -6.0340    6.4010 P   0  0  2  0  0  0  0  0  0  0  0  0
    4.1470   -5.6960    7.9080 O   0  0  0  0  0  0  0  0  0  0  0  0
    3.5770   -4.8930    5.4710 O   0  0  0  0  0  0  0  0  0  0  0  0
    4.3270   -7.2320    5.7530 O   0  0  0  0  0  0  0  0  0  0  0  0
    4.3690   -8.5010    6.3680 C   0  0  0  0  0  0  0  0  0  0  0  0
    5.4430   -9.3900    5.7240 C   0  0  1  0  0  0  0  0  0  0  0  0
    6.6620   -8.7000    5.6640 O   0  0  0  0  0  0  0  0  0  0  0  0
    7.4850   -9.1020    6.7410 C   0  0  2  0  0  0  0  0  0  0  0  0
    6.6850  -10.1020    7.5560 C   0  0  1  0  0  0  0  0  0  0  0  0
    5.7280  -10.6830    6.5090 C   0  0  2  0  0  0  0  0  0  0  0  0
    8.0110   -7.9920    7.5480 N   0  0  0  0  0  0  0  0  0  0  0  0
    9.1620   -8.0000    8.0690 C   0  0  0  0  0  0  0  0  0  0  0  0
   10.1410   -8.7940    8.1120 N   0  0  0  0  0  0  0  0  0  0  0  0
    9.2070   -6.8030    8.6870 C   0  0  0  0  0  0  0  0  0  0  0  0
   11.1330   -8.3660    8.7720 C   0  0  0  0  0  0  0  0  0  0  0  0
   11.2780   -7.2660    9.3830 N   0  0  0  0  0  0  0  0  0  0  0  0
   10.3130   -6.4430    9.3610 C   0  0  0  0  0  0  0  0  0  0  0  0
    8.1240   -6.1670    8.5120 N   0  0  0  0  0  0  0  0  0  0  0  0
    7.3940   -6.9170    7.8010 C   0  0  0  0  0  0  0  0  0  0  0  0
   10.3500   -5.3130    9.9340 N   0  0  0  0  0  0  0  0  0  0  0  0
   11.2080   -5.0170   10.4610 H   0  0  0  0  0  0  0  0  0  0  0  0
    9.5250   -4.6670    9.8820 H   0  0  0  0  0  0  0  0  0  0  0  0
    7.5150  -11.0640    8.1550 O   0  0  0  0  0  0  0  0  0  0  0  0
    7.0040  -11.6150    8.7510 H   0  0  0  0  0  0  0  0  0  0  0  0
    6.3750  -11.8000    5.6600 C   0  0  0  0  0  0  0  0  0  0  0  0
    5.2490  -12.7720    4.5660 P   0  0  0  0  0  0  0  0  0  0  0  0
    5.9550  -13.3120    3.0730 O   0  0  0  0  0  0  0  0  0  0  0  0
    4.9340  -14.3850    5.1340 O   0  0  0  0  0  0  0  0  0  0  0  0
    3.9300  -12.1450    4.2740 O   0  0  0  0  0  0  0  0  0  0  0  0
    0.5920   -2.3700    1.8030 C   0  0  1  0  0  0  0  0  0  0  0  0
    0.8490   -1.1890    2.7570 C   0  0  0  0  0  0  0  0  0  0  0  0
    0.8380   -1.8840    0.3700 C   0  0  0  0  0  0  0  0  0  0  0  0
   -0.1580   -1.0800   -0.1250 N   0  0  0  0  0  0  0  0  0  0  0  0
   -0.9810   -0.9160    0.4550 H   0  0  0  0  0  0  0  0  0  0  0  0
    1.8170   -2.1590   -0.2770 O   0  0  0  0  0  0  0  0  0  0  0  0
   -0.1510   -0.5700   -1.5010 C   0  0  0  0  0  0  0  0  0  0  0  0
   -0.9840    0.7200   -1.6280 C   0  0  0  0  0  0  0  0  0  0  0  0
   -1.0610    1.2510   -3.0570 C   0  0  0  0  0  0  0  0  0  0  0  0
   -1.6300    2.4910   -3.1770 N   0  0  0  0  0  0  0  0  0  0  0  0
   -1.9190    2.9810   -2.3310 H   0  0  0  0  0  0  0  0  0  0  0  0
   -0.6540    0.6170   -4.0000 O   0  0  0  0  0  0  0  0  0  0  0  0
   -1.7600    3.1680   -4.4730 C   0  0  0  0  0  0  0  0  0  0  0  0
   -2.6610    4.4110   -4.3560 C   0  0  0  0  0  0  0  0  0  0  0  0
   -2.7910    5.1790   -6.0070 S   0  0  0  0  0  0  0  0  0  0  0  0
   -3.9090    6.5560   -5.6110 C   0  0  0  0  0  0  0  0  0  0  0  0
   -4.3970    7.3450   -7.1650 S   0  0  2  0  0  0  0  0  0  0  0  0
   -3.2970    8.4610   -7.7160 O   0  0  0  0  0  0  0  0  0  0  0  0
   -5.8530    8.2910   -6.6040 C   0  0  0  0  0  0  0  0  0  0  0  0
   -6.3780    9.1790   -7.7440 C   0  0  0  0  0  0  0  0  0  0  0  0
   -7.5390   10.0910   -7.3160 C   0  0  0  0  0  0  0  0  0  0  0  0
   -7.9600   11.0190   -8.4680 C   0  0  0  0  0  0  0  0  0  0  0  0
   -9.0360   12.0290   -8.0440 C   0  0  0  0  0  0  0  0  0  0  0  0
   -9.4240   12.9860   -9.1850 C   0  0  1  0  0  0  0  0  0  0  0  0
  -10.5130   13.9490   -8.7280 C   0  0  0  0  0  0  0  0  0  0  0  0
  -10.3060   15.0700   -8.3390 O   0  0  0  0  0  0  0  0  0  0  0  0
  -11.7760   13.4510   -8.7800 N   0  0  0  0  0  0  0  0  0  0  0  0
  -12.5300   14.0550   -8.4860 H   0  0  0  0  0  0  0  0  0  0  0  0
  -11.9550   12.5140   -9.1150 H   0  0  0  0  0  0  0  0  0  0  0  0
   -8.2490   13.7310   -9.6580 N   0  0  0  0  0  0  0  0  0  0  0  0
   -8.2220   14.3560  -10.8730 C   0  0  0  0  0  0  0  0  0  0  0  0
   -6.9160   15.0640  -11.1740 C   0  0  0  0  0  0  0  0  0  0  0  0
   -9.1590   14.3500  -11.6320 O   0  0  0  0  0  0  0  0  0  0  0  0
   -7.4590   13.8540   -9.0260 H   0  0  0  0  0  0  0  0  0  0  0  0
  1  2  1  0  0  0  0
  1  4  1  0  0  0  0
  3  1  1  0  0  0  0
  4  5  1  0  0  0  0
  6  5  1  6  0  0  0
  6  8  1  0  0  0  0
  6  9  1  0  0  0  0
  7  6  2  0  0  0  0
  9 10  1  0  0  0  0
 10 12  2  6  0  0  0
 10 11  1  0  0  0  0
 13 14  1  0  0  0  0
 13 10  1  0  0  0  0
 15 14  1  1  0  0  0
 15 19  1  0  0  0  0
 16 15  1  0  0  0  0
 16 17  1  0  0  0  0
 17 20  1  1  0  0  0
 17 18  1  0  0  0  0
 18 32  1  6  0  0  0
 19 34  1  6  0  0  0
 19 18  1  0  0  0  0
 20 28  1  0  0  0  0
 20 21  1  0  0  0  0
 21 22  2  0  0  0  0
 21 23  1  0  0  0  0
 22 24  1  0  0  0  0
 23 26  2  0  0  0  0
 24 25  2  0  0  0  0
 26 25  1  0  0  0  0
 26 29  1  0  0  0  0
 27 23  1  0  0  0  0
 28 27  2  0  0  0  0
 29 30  1  0  0  0  0
 31 29  1  0  0  0  0
 32 33  1  0  0  0  0
 35 37  1  0  0  0  0
 35 34  1  0  0  0  0
 36 35  2  0  0  0  0
 38 35  1  0  0  0  0
 39 41  1  6  0  0  0
 39  1  1  0  0  0  0
 39 40  1  0  0  0  0
 42 41  1  0  0  0  0
 42 43  1  0  0  0  0
 44 41  2  0  0  0  0
 45 42  1  0  0  0  0
 46 45  1  0  0  0  0
 47 46  1  0  0  0  0
 48 47  1  0  0  0  0
 48 49  1  0  0  0  0
 50 47  2  0  0  0  0
 51 52  1  0  0  0  0
 51 48  1  0  0  0  0
 53 54  1  0  0  0  0
 53 52  1  0  0  0  0
 55 56  1  1  0  0  0
 55 57  1  0  0  0  0
 55 54  1  0  0  0  0
 58 59  1  0  0  0  0
 58 57  1  0  0  0  0
 60 61  1  0  0  0  0
 60 59  1  0  0  0  0
 62 68  1  1  0  0  0
 62 63  1  0  0  0  0
 62 61  1  0  0  0  0
 63 64  2  0  0  0  0
 65 63  1  0  0  0  0
 65 66  1  0  0  0  0
 67 65  1  0  0  0  0
 68 72  1  0  0  0  0
 69 68  1  0  0  0  0
 70 69  1  0  0  0  0
 71 69  2  0  0  0  0
M  END
