pdbs/nck.pdb
 OpenBabel07211501453D

 29 30  0  0  0  0  0  0  0  0999 V2000
   -0.6880    1.5120   -1.2090 C   0  0  0  0  0  0  0  0  0  0  0  0
    0.7490    1.0770   -1.5220 C   0  0  0  0  0  0  0  0  0  0  0  0
    0.8930    0.1420   -2.2800 O   0  0  0  0  0  0  0  0  0  0  0  0
    1.7600    1.7710   -0.9300 C   0  0  0  0  0  0  0  0  0  0  0  0
    3.0650    1.5010   -1.1170 C   0  0  0  0  0  0  0  0  0  0  0  0
    4.1250    2.1370   -0.5690 C   0  0  0  0  0  0  0  0  0  0  0  0
    5.3740    1.7280   -0.8750 C   0  0  0  0  0  0  0  0  0  0  0  0
    6.4980    2.2930   -0.3860 C   0  0  0  0  0  0  0  0  0  0  0  0
    6.3520    3.3310    0.4630 C   0  0  0  0  0  0  0  0  0  0  0  0
    5.1200    3.7550    0.7830 C   0  0  0  0  0  0  0  0  0  0  0  0
    4.0230    3.1750    0.2800 C   0  0  0  0  0  0  0  0  0  0  0  0
    7.7790    1.8880   -0.6860 O   0  0  0  0  0  0  0  0  0  0  0  0
    7.9720    0.7950   -1.5540 C   0  0  0  0  0  0  0  0  0  0  0  0
    7.4390    3.9530    1.0000 O   0  0  0  0  0  0  0  0  0  0  0  0
    7.1380    4.6630    1.5890 H   0  0  0  0  0  0  0  0  0  0  0  0
   -1.2790    0.6760   -0.0680 C   0  0  0  0  0  0  0  0  0  0  0  0
   -0.7270    0.7580    1.0090 O   0  0  0  0  0  0  0  0  0  0  0  0
   -2.3690   -0.0950   -0.3350 C   0  0  0  0  0  0  0  0  0  0  0  0
   -2.9790   -0.8720    0.5800 C   0  0  0  0  0  0  0  0  0  0  0  0
   -4.0600   -1.6620    0.3960 C   0  0  0  0  0  0  0  0  0  0  0  0
   -4.5450   -2.3770    1.4290 C   0  0  0  0  0  0  0  0  0  0  0  0
   -5.6160   -3.1970    1.3770 C   0  0  0  0  0  0  0  0  0  0  0  0
   -6.2410   -3.3150    0.1830 C   0  0  0  0  0  0  0  0  0  0  0  0
   -5.7750   -2.6090   -0.8610 C   0  0  0  0  0  0  0  0  0  0  0  0
   -4.7120   -1.7990   -0.7710 C   0  0  0  0  0  0  0  0  0  0  0  0
   -5.9470   -3.8460    2.5470 O   0  0  0  0  0  0  0  0  0  0  0  0
   -6.9590   -4.8220    2.5750 C   0  0  0  0  0  0  0  0  0  0  0  0
   -7.3290   -4.1040   -0.0260 O   0  0  0  0  0  0  0  0  0  0  0  0
   -7.6180   -4.0260   -0.9490 H   0  0  0  0  0  0  0  0  0  0  0  0
  1 16  1  0  0  0  0
  2  1  1  0  0  0  0
  2  4  1  0  0  0  0
  3  2  2  0  0  0  0
  5  4  2  0  0  0  0
  5  6  1  0  0  0  0
  6 11  1  0  0  0  0
  7  6  2  0  0  0  0
  7  8  1  0  0  0  0
  8  9  2  0  0  0  0
  9 10  1  0  0  0  0
  9 14  1  0  0  0  0
 11 10  2  0  0  0  0
 12  8  1  0  0  0  0
 13 12  1  0  0  0  0
 14 15  1  0  0  0  0
 16 17  2  0  0  0  0
 18 16  1  0  0  0  0
 18 19  2  0  0  0  0
 20 19  1  0  0  0  0
 20 21  2  0  0  0  0
 22 21  1  0  0  0  0
 22 26  1  0  0  0  0
 23 22  2  0  0  0  0
 24 25  2  0  0  0  0
 24 23  1  0  0  0  0
 25 20  1  0  0  0  0
 26 27  1  0  0  0  0
 28 23  1  0  0  0  0
 29 28  1  0  0  0  0
M  END
