pdbs/ncv3c.pdb
 OpenBabel07211501453D

 29 30  0  0  0  0  0  0  0  0999 V2000
    0.3970   -0.6260    0.1720 C   0  0  0  0  0  0  0  0  0  0  0  0
   -0.5690   -1.5730    0.2780 C   0  0  0  0  0  0  0  0  0  0  0  0
   -0.2600   -3.0570    0.3350 C   0  0  0  0  0  0  0  0  0  0  0  0
    1.7500   -0.6560    0.2770 C   0  0  0  0  0  0  0  0  0  0  0  0
    2.4060   -1.7010    0.8190 C   0  0  0  0  0  0  0  0  0  0  0  0
    2.4270    0.4550   -0.1140 C   0  0  0  0  0  0  0  0  0  0  0  0
    3.7530    0.6990   -0.0850 C   0  0  0  0  0  0  0  0  0  0  0  0
    4.4030    1.8170   -0.4840 C   0  0  0  0  0  0  0  0  0  0  0  0
    5.7490    1.8700   -0.3810 C   0  0  0  0  0  0  0  0  0  0  0  0
    6.5010    2.9300   -0.7460 C   0  0  0  0  0  0  0  0  0  0  0  0
    5.8580    4.0040   -1.2480 C   0  0  0  0  0  0  0  0  0  0  0  0
    4.5210    3.9780   -1.3610 C   0  0  0  0  0  0  0  0  0  0  0  0
    3.8030    2.9100   -0.9890 C   0  0  0  0  0  0  0  0  0  0  0  0
    7.8730    2.9950   -0.6490 O   0  0  0  0  0  0  0  0  0  0  0  0
    8.5840    1.8860   -0.1520 C   0  0  0  0  0  0  0  0  0  0  0  0
    6.5460    5.1120   -1.6410 O   0  0  0  0  0  0  0  0  0  0  0  0
    5.9170    5.7750   -1.9690 H   0  0  0  0  0  0  0  0  0  0  0  0
   -1.8600   -1.1560    0.2660 C   0  0  0  0  0  0  0  0  0  0  0  0
   -2.9640   -1.9180    0.3980 C   0  0  0  0  0  0  0  0  0  0  0  0
   -4.2550   -1.5170    0.3870 C   0  0  0  0  0  0  0  0  0  0  0  0
   -5.2340   -2.4300    0.5490 C   0  0  0  0  0  0  0  0  0  0  0  0
   -6.5580   -2.1670    0.5570 C   0  0  0  0  0  0  0  0  0  0  0  0
   -6.9280   -0.8770    0.3880 C   0  0  0  0  0  0  0  0  0  0  0  0
   -5.9700    0.0510    0.2240 C   0  0  0  0  0  0  0  0  0  0  0  0
   -4.6650   -0.2480    0.2210 C   0  0  0  0  0  0  0  0  0  0  0  0
   -7.3940   -3.2470    0.7380 O   0  0  0  0  0  0  0  0  0  0  0  0
   -8.7920   -3.0900    0.7580 C   0  0  0  0  0  0  0  0  0  0  0  0
   -8.2220   -0.4570    0.3720 O   0  0  0  0  0  0  0  0  0  0  0  0
   -8.2520    0.5040    0.2380 H   0  0  0  0  0  0  0  0  0  0  0  0
  1  4  1  0  0  0  0
  1  2  2  0  0  0  0
  2  3  1  0  0  0  0
  4  5  2  0  0  0  0
  6  7  2  0  0  0  0
  6  4  1  0  0  0  0
  8  9  1  0  0  0  0
  8  7  1  0  0  0  0
 10 14  1  0  0  0  0
 10  9  2  0  0  0  0
 11 10  1  0  0  0  0
 12 11  2  0  0  0  0
 12 13  1  0  0  0  0
 13  8  2  0  0  0  0
 14 15  1  0  0  0  0
 16 11  1  0  0  0  0
 17 16  1  0  0  0  0
 18  2  1  0  0  0  0
 18 19  2  0  0  0  0
 20 19  1  0  0  0  0
 20 21  2  0  0  0  0
 21 22  1  0  0  0  0
 22 26  1  0  0  0  0
 23 22  2  0  0  0  0
 24 23  1  0  0  0  0
 25 24  2  0  0  0  0
 25 20  1  0  0  0  0
 26 27  1  0  0  0  0
 28 23  1  0  0  0  0
 29 28  1  0  0  0  0
M  END
