pdbs/ncv4c.pdb
 OpenBabel07211501453D

 14 14  0  0  0  0  0  0  0  0999 V2000
    1.6120    2.1860   -0.5070 C   0  0  0  0  0  0  0  0  0  0  0  0
    2.0690    0.9650   -0.1450 C   0  0  0  0  0  0  0  0  0  0  0  0
    1.1450    0.0130    0.1010 C   0  0  0  0  0  0  0  0  0  0  0  0
   -0.1890    0.1780   -0.0020 C   0  0  0  0  0  0  0  0  0  0  0  0
   -0.6040    1.4000   -0.3750 C   0  0  0  0  0  0  0  0  0  0  0  0
    0.2850    2.3720   -0.6180 C   0  0  0  0  0  0  0  0  0  0  0  0
   -1.0110   -0.8590    0.2680 C   0  0  0  0  0  0  0  0  0  0  0  0
   -2.3560   -0.8750    0.2200 C   0  0  0  0  0  0  0  0  0  0  0  0
   -3.0790   -1.9710    0.5120 C   0  0  0  0  0  0  0  0  0  0  0  0
   -4.4210   -1.9960    0.4660 C   0  0  0  0  0  0  0  0  0  0  0  0
    3.3860    0.5990    0.0280 O   0  0  0  0  0  0  0  0  0  0  0  0
    4.4150    1.5570   -0.0060 C   0  0  0  0  0  0  0  0  0  0  0  0
    2.4210    3.2450   -0.7810 O   0  0  0  0  0  0  0  0  0  0  0  0
    1.8830    4.0090   -1.0410 H   0  0  0  0  0  0  0  0  0  0  0  0
  1  2  1  0  0  0  0
  2 11  1  0  0  0  0
  2  3  2  0  0  0  0
  4  3  1  0  0  0  0
  4  7  1  0  0  0  0
  5  4  2  0  0  0  0
  6  1  2  0  0  0  0
  6  5  1  0  0  0  0
  8  7  2  0  0  0  0
  8  9  1  0  0  0  0
 10  9  2  0  0  0  0
 12 11  1  0  0  0  0
 13  1  1  0  0  0  0
 14 13  1  0  0  0  0
M  END
