pdbs/ncv4o.pdb
 OpenBabel07211501453D

 14 14  0  0  0  0  0  0  0  0999 V2000
    1.3520    2.0860   -0.4590 C   0  0  0  0  0  0  0  0  0  0  0  0
    1.8190    0.8680   -0.1030 C   0  0  0  0  0  0  0  0  0  0  0  0
    0.9020   -0.0930    0.1400 C   0  0  0  0  0  0  0  0  0  0  0  0
   -0.4330    0.0630    0.0430 C   0  0  0  0  0  0  0  0  0  0  0  0
   -0.8580    1.2830   -0.3230 C   0  0  0  0  0  0  0  0  0  0  0  0
    0.0240    2.2620   -0.5650 C   0  0  0  0  0  0  0  0  0  0  0  0
   -1.2470   -0.9810    0.3100 C   0  0  0  0  0  0  0  0  0  0  0  0
   -2.5920   -1.0000    0.2640 C   0  0  0  0  0  0  0  0  0  0  0  0
   -3.3300   -2.1050    0.5520 C   0  0  0  0  0  0  0  0  0  0  0  0
   -4.5400   -2.1280    0.5110 O   0  0  0  0  0  0  0  0  0  0  0  0
    3.1390    0.5080    0.0620 O   0  0  0  0  0  0  0  0  0  0  0  0
    4.1670    1.4660   -0.0110 C   0  0  0  0  0  0  0  0  0  0  0  0
    2.1520    3.1520   -0.7310 O   0  0  0  0  0  0  0  0  0  0  0  0
    1.6080    3.9150   -0.9830 H   0  0  0  0  0  0  0  0  0  0  0  0
  1  2  1  0  0  0  0
  2 11  1  0  0  0  0
  2  3  2  0  0  0  0
  4  3  1  0  0  0  0
  4  7  1  0  0  0  0
  5  4  2  0  0  0  0
  6  1  2  0  0  0  0
  6  5  1  0  0  0  0
  8  7  2  0  0  0  0
  8  9  1  0  0  0  0
 10  9  2  0  0  0  0
 12 11  1  0  0  0  0
 13  1  1  0  0  0  0
 14 13  1  0  0  0  0
M  END
