pdbs/nev2c.pdb
 OpenBabel07211501453D

 35 38  0  0  1  0  0  0  0  0999 V2000
   -3.2060   -3.3710    2.0700 C   0  0  0  0  0  0  0  0  0  0  0  0
   -2.4340   -4.2850    1.4650 C   0  0  0  0  0  0  0  0  0  0  0  0
   -1.3770   -3.9420    0.7110 C   0  0  0  0  0  0  0  0  0  0  0  0
   -1.0880   -2.6350    0.5530 C   0  0  0  0  0  0  0  0  0  0  0  0
   -1.8350   -1.6810    1.1480 C   0  0  0  0  0  0  0  0  0  0  0  0
   -2.8880   -2.0820    1.8850 C   0  0  0  0  0  0  0  0  0  0  0  0
    0.0960   -2.2250   -0.2950 C   0  0  0  0  0  0  0  0  0  0  0  0
    0.5210   -0.7900    0.0300 C   0  0  2  0  0  0  0  0  0  0  0  0
   -0.7340    0.0780   -0.0170 C   0  0  2  0  0  0  0  0  0  0  0  0
   -1.6170   -0.3340    0.9990 O   0  0  0  0  0  0  0  0  0  0  0  0
   -1.3760    0.1910   -1.3980 C   0  0  0  0  0  0  0  0  0  0  0  0
   -0.8980    1.0890   -2.2810 C   0  0  0  0  0  0  0  0  0  0  0  0
   -1.4260    1.2250   -3.5070 C   0  0  0  0  0  0  0  0  0  0  0  0
   -2.4600    0.4570   -3.8790 C   0  0  0  0  0  0  0  0  0  0  0  0
   -2.9570   -0.4380   -3.0130 C   0  0  0  0  0  0  0  0  0  0  0  0
   -2.4200   -0.5630   -1.7890 C   0  0  0  0  0  0  0  0  0  0  0  0
    1.4770   -0.4100   -0.9070 O   0  0  0  0  0  0  0  0  0  0  0  0
    2.3210    0.6830   -0.9010 C   0  0  0  0  0  0  0  0  0  0  0  0
    2.9730    0.7620   -1.9320 O   0  0  0  0  0  0  0  0  0  0  0  0
    2.5370    1.6580    0.0480 C   0  0  0  0  0  0  0  0  0  0  0  0
    1.9480    1.7130    1.2570 C   0  0  0  0  0  0  0  0  0  0  0  0
    2.1830    2.6840    2.1570 C   0  0  0  0  0  0  0  0  0  0  0  0
    3.0490    3.6630    1.8590 C   0  0  0  0  0  0  0  0  0  0  0  0
    3.6690    3.6540    0.6690 C   0  0  0  0  0  0  0  0  0  0  0  0
    3.4060    2.6640   -0.2000 C   0  0  0  0  0  0  0  0  0  0  0  0
    1.5620    2.6970    3.3680 O   0  0  0  0  0  0  0  0  0  0  0  0
    1.8670    3.4750    3.8630 H   0  0  0  0  0  0  0  0  0  0  0  0
    3.3050    4.6570    2.7490 O   0  0  0  0  0  0  0  0  0  0  0  0
    3.9540    5.2660    2.3600 H   0  0  0  0  0  0  0  0  0  0  0  0
    4.5490    4.6440    0.3620 O   0  0  0  0  0  0  0  0  0  0  0  0
    4.9120    4.5010   -0.5260 H   0  0  0  0  0  0  0  0  0  0  0  0
   -0.6400   -4.9130    0.1040 O   0  0  0  0  0  0  0  0  0  0  0  0
    0.0100   -4.5120   -0.4930 H   0  0  0  0  0  0  0  0  0  0  0  0
   -4.2760   -3.7450    2.8220 O   0  0  0  0  0  0  0  0  0  0  0  0
   -4.3470   -4.7130    2.8120 H   0  0  0  0  0  0  0  0  0  0  0  0
  1 34  1  0  0  0  0
  2  1  2  0  0  0  0
  3  2  1  0  0  0  0
  4  3  2  0  0  0  0
  4  5  1  0  0  0  0
  5  6  2  0  0  0  0
  6  1  1  0  0  0  0
  7  8  1  0  0  0  0
  7  4  1  0  0  0  0
  8 17  1  6  0  0  0
  9 11  1  6  0  0  0
  9  8  1  0  0  0  0
  9 10  1  0  0  0  0
 10  5  1  0  0  0  0
 12 11  2  0  0  0  0
 13 12  1  0  0  0  0
 14 13  2  0  0  0  0
 14 15  1  0  0  0  0
 15 16  2  0  0  0  0
 16 11  1  0  0  0  0
 17 18  1  0  0  0  0
 18 20  1  0  0  0  0
 19 18  2  0  0  0  0
 20 21  1  0  0  0  0
 21 22  2  0  0  0  0
 22 26  1  0  0  0  0
 23 22  1  0  0  0  0
 23 28  1  0  0  0  0
 24 23  2  0  0  0  0
 25 20  2  0  0  0  0
 25 24  1  0  0  0  0
 26 27  1  0  0  0  0
 29 28  1  0  0  0  0
 30 24  1  0  0  0  0
 31 30  1  0  0  0  0
 32  3  1  0  0  0  0
 33 32  1  0  0  0  0
 35 34  1  0  0  0  0
M  END
