pdbs/nev5b.pdb
 OpenBabel07211501453D

 42 45  0  0  1  0  0  0  0  0999 V2000
   -3.6070   -4.2220    2.0040 C   0  0  0  0  0  0  0  0  0  0  0  0
   -2.8430   -5.0840    1.3160 C   0  0  0  0  0  0  0  0  0  0  0  0
   -1.7120   -4.7040    0.7010 C   0  0  0  0  0  0  0  0  0  0  0  0
   -1.3330   -3.4130    0.7790 C   0  0  0  0  0  0  0  0  0  0  0  0
   -2.0630   -2.5150    1.4710 C   0  0  0  0  0  0  0  0  0  0  0  0
   -3.1960   -2.9460    2.0560 C   0  0  0  0  0  0  0  0  0  0  0  0
   -0.0630   -2.9650    0.0910 C   0  0  0  0  0  0  0  0  0  0  0  0
    0.3560   -1.5430    0.4920 C   0  0  2  0  0  0  0  0  0  0  0  0
   -0.9020   -0.6740    0.5580 C   0  0  2  0  0  0  0  0  0  0  0  0
   -1.7400   -1.1860    1.5560 O   0  0  0  0  0  0  0  0  0  0  0  0
    1.3080   -1.1400   -0.4430 O   0  0  0  0  0  0  0  0  0  0  0  0
    1.9590    0.0680   -0.5810 C   0  0  0  0  0  0  0  0  0  0  0  0
    2.4940    0.1890   -1.6750 O   0  0  0  0  0  0  0  0  0  0  0  0
    2.0960    1.1130    0.3020 C   0  0  0  0  0  0  0  0  0  0  0  0
    1.7030    1.0770    1.5870 C   0  0  0  0  0  0  0  0  0  0  0  0
    1.8400    2.1140    2.4300 C   0  0  0  0  0  0  0  0  0  0  0  0
    2.4020    3.2500    1.9870 C   0  0  0  0  0  0  0  0  0  0  0  0
    2.8230    3.3300    0.7160 C   0  0  0  0  0  0  0  0  0  0  0  0
    2.6670    2.2700   -0.0950 C   0  0  0  0  0  0  0  0  0  0  0  0
    1.4310    2.0380    3.7250 O   0  0  0  0  0  0  0  0  0  0  0  0
    1.6160    2.8880    4.1590 H   0  0  0  0  0  0  0  0  0  0  0  0
    2.5540    4.3140    2.8180 O   0  0  0  0  0  0  0  0  0  0  0  0
    2.9690    5.0410    2.3250 H   0  0  0  0  0  0  0  0  0  0  0  0
    3.3880    4.4810    0.2630 O   0  0  0  0  0  0  0  0  0  0  0  0
    3.5800    4.4040   -0.6840 H   0  0  0  0  0  0  0  0  0  0  0  0
   -1.7020   -0.4560   -0.7410 C   0  0  0  0  0  0  0  0  0  0  0  0
   -1.1030    0.6780   -1.5490 C   0  0  0  0  0  0  0  0  0  0  0  0
   -1.3840    1.9590   -1.2570 C   0  0  0  0  0  0  0  0  0  0  0  0
   -0.7930    2.9790   -1.9020 C   0  0  0  0  0  0  0  0  0  0  0  0
    0.1210    2.7080   -2.8490 C   0  0  0  0  0  0  0  0  0  0  0  0
    0.4050    1.4340   -3.1720 C   0  0  0  0  0  0  0  0  0  0  0  0
   -0.2240    0.4370   -2.5320 C   0  0  0  0  0  0  0  0  0  0  0  0
   -1.0600    4.2740   -1.5840 O   0  0  0  0  0  0  0  0  0  0  0  0
   -0.5050    4.8450   -2.1400 H   0  0  0  0  0  0  0  0  0  0  0  0
    0.7810    3.7170   -3.4730 O   0  0  0  0  0  0  0  0  0  0  0  0
    1.4090    3.3330   -4.1060 H   0  0  0  0  0  0  0  0  0  0  0  0
    1.3860    1.1570   -4.0700 O   0  0  0  0  0  0  0  0  0  0  0  0
    1.8760    0.3930   -3.7170 H   0  0  0  0  0  0  0  0  0  0  0  0
   -0.9820   -5.6180    0.0030 O   0  0  0  0  0  0  0  0  0  0  0  0
   -0.2310   -5.1820   -0.4300 H   0  0  0  0  0  0  0  0  0  0  0  0
   -4.7540   -4.6310    2.6100 O   0  0  0  0  0  0  0  0  0  0  0  0
   -4.8780   -5.5800    2.4470 H   0  0  0  0  0  0  0  0  0  0  0  0
  1  6  1  0  0  0  0
  1 41  1  0  0  0  0
  2  1  2  0  0  0  0
  3  4  2  0  0  0  0
  3  2  1  0  0  0  0
  4  5  1  0  0  0  0
  5 10  1  0  0  0  0
  5  6  2  0  0  0  0
  7  8  1  0  0  0  0
  7  4  1  0  0  0  0
  8 11  1  6  0  0  0
  8  9  1  0  0  0  0
  9 26  1  6  0  0  0
  9 10  1  0  0  0  0
 12 11  1  0  0  0  0
 12 14  1  0  0  0  0
 13 12  2  0  0  0  0
 14 15  1  0  0  0  0
 15 16  2  0  0  0  0
 16 20  1  0  0  0  0
 17 16  1  0  0  0  0
 17 22  1  0  0  0  0
 18 17  2  0  0  0  0
 19 14  2  0  0  0  0
 19 18  1  0  0  0  0
 20 21  1  0  0  0  0
 23 22  1  0  0  0  0
 24 18  1  0  0  0  0
 25 24  1  0  0  0  0
 27 28  1  0  0  0  0
 27 26  1  0  0  0  0
 29 33  1  0  0  0  0
 29 28  2  0  0  0  0
 30 29  1  0  0  0  0
 31 30  2  0  0  0  0
 31 32  1  0  0  0  0
 32 27  2  0  0  0  0
 34 33  1  0  0  0  0
 35 30  1  0  0  0  0
 36 35  1  0  0  0  0
 37 38  1  0  0  0  0
 37 31  1  0  0  0  0
 39  3  1  0  0  0  0
 40 39  1  0  0  0  0
 42 41  1  0  0  0  0
M  END
