pdbs/nev6.pdb
 OpenBabel07211501453D

 37 41  0  0  1  0  0  0  0  0999 V2000
   -3.0740    1.9010    1.1340 C   0  0  0  0  0  0  0  0  0  0  0  0
   -3.1270    0.5730    1.3390 C   0  0  0  0  0  0  0  0  0  0  0  0
   -2.0420   -0.2220    1.4230 C   0  0  0  0  0  0  0  0  0  0  0  0
   -0.8640    0.4550    1.3010 C   0  0  0  0  0  0  0  0  0  0  0  0
   -0.7360    1.7610    1.0110 C   0  0  0  0  0  0  0  0  0  0  0  0
   -1.8730    2.4710    0.9390 C   0  0  0  0  0  0  0  0  0  0  0  0
    0.4750   -0.1980    1.3600 C   0  0  0  0  0  0  0  0  0  0  0  0
    1.6690    0.1040    0.4800 C   0  0  2  0  0  0  0  0  0  0  0  0
    1.3920    1.5160   -0.0730 C   0  0  2  0  0  0  0  0  0  0  0  0
    0.5030    2.2960    0.7340 O   0  0  0  0  0  0  0  0  0  0  0  0
    1.8390   -0.8730   -0.5590 O   0  0  0  0  0  0  0  0  0  0  0  0
   -2.2410   -1.6050    1.5730 O   0  0  0  0  0  0  0  0  0  0  0  0
    1.9840   -2.2710   -0.2030 C   0  0  0  0  0  0  0  0  0  0  0  0
    0.9480   -2.8660    0.7650 C   0  0  0  0  0  0  0  0  0  0  0  0
   -1.1260   -2.4130    1.6590 C   0  0  0  0  0  0  0  0  0  0  0  0
   -0.7330   -2.9260    2.8430 C   0  0  0  0  0  0  0  0  0  0  0  0
    0.4680   -3.5220    2.9590 C   0  0  0  0  0  0  0  0  0  0  0  0
    1.3330   -3.3890    1.9410 C   0  0  0  0  0  0  0  0  0  0  0  0
   -0.3670   -2.6490    0.5640 C   0  0  0  0  0  0  0  0  0  0  0  0
    0.9900    1.5370   -1.5440 C   0  0  0  0  0  0  0  0  0  0  0  0
    1.8000    2.0800   -2.4700 C   0  0  0  0  0  0  0  0  0  0  0  0
    1.4840    2.1040   -3.7750 C   0  0  0  0  0  0  0  0  0  0  0  0
    0.3190    1.5670   -4.1760 C   0  0  0  0  0  0  0  0  0  0  0  0
   -0.5120    1.0130   -3.2780 C   0  0  0  0  0  0  0  0  0  0  0  0
   -0.1630    1.0030   -1.9830 C   0  0  0  0  0  0  0  0  0  0  0  0
    2.3170    2.6560   -4.6990 O   0  0  0  0  0  0  0  0  0  0  0  0
    1.9020    2.5660   -5.5730 H   0  0  0  0  0  0  0  0  0  0  0  0
   -0.0250    1.5760   -5.4910 O   0  0  0  0  0  0  0  0  0  0  0  0
   -0.8880    1.1430   -5.5900 H   0  0  0  0  0  0  0  0  0  0  0  0
   -1.6880    0.4670   -3.6870 O   0  0  0  0  0  0  0  0  0  0  0  0
   -2.1660    0.1090   -2.9220 H   0  0  0  0  0  0  0  0  0  0  0  0
   -4.2110    2.6440    1.0450 O   0  0  0  0  0  0  0  0  0  0  0  0
   -3.9760    3.5570    0.8140 H   0  0  0  0  0  0  0  0  0  0  0  0
    0.8800   -3.9990    4.1640 O   0  0  0  0  0  0  0  0  0  0  0  0
    1.8430   -4.1170    4.1590 H   0  0  0  0  0  0  0  0  0  0  0  0
   -1.5110   -2.8000    3.9520 O   0  0  0  0  0  0  0  0  0  0  0  0
   -1.0410   -3.1900    4.7080 H   0  0  0  0  0  0  0  0  0  0  0  0
  1  2  2  0  0  0  0
  2  3  1  0  0  0  0
  3 12  1  0  0  0  0
  4  7  1  0  0  0  0
  4  3  2  0  0  0  0
  5  4  1  0  0  0  0
  6  5  2  0  0  0  0
  6  1  1  0  0  0  0
  8 11  1  6  0  0  0
  8  7  1  0  0  0  0
  9 20  1  6  0  0  0
  9  8  1  0  0  0  0
  9 10  1  0  0  0  0
 10  5  1  0  0  0  0
 11 13  1  0  0  0  0
 12 15  1  0  0  0  0
 13 14  1  0  0  0  0
 14 18  1  0  0  0  0
 15 16  2  0  0  0  0
 16 17  1  0  0  0  0
 16 36  1  0  0  0  0
 17 34  1  0  0  0  0
 18 17  2  0  0  0  0
 19 14  2  0  0  0  0
 19 15  1  0  0  0  0
 21 20  2  0  0  0  0
 22 21  1  0  0  0  0
 23 22  2  0  0  0  0
 23 24  1  0  0  0  0
 24 25  2  0  0  0  0
 25 20  1  0  0  0  0
 26 22  1  0  0  0  0
 27 26  1  0  0  0  0
 28 23  1  0  0  0  0
 29 28  1  0  0  0  0
 30 24  1  0  0  0  0
 30 31  1  0  0  0  0
 32  1  1  0  0  0  0
 33 32  1  0  0  0  0
 35 34  1  0  0  0  0
 36 37  1  0  0  0  0
M  END
