pdbs/nev7a2.pdb
 OpenBabel07211501453D

 33 35  0  0  1  0  0  0  0  0999 V2000
    1.6600   -3.7990    1.2550 C   0  0  0  0  0  0  0  0  0  0  0  0
    2.2520   -2.8300    2.2680 C   0  0  0  0  0  0  0  0  0  0  0  0
    0.6390   -3.0500    0.3950 C   0  0  0  0  0  0  0  0  0  0  0  0
    1.2510   -1.7690   -0.1890 C   0  0  2  0  0  0  0  0  0  0  0  0
    1.9930   -0.9490    0.8750 C   0  0  2  0  0  0  0  0  0  0  0  0
    2.8890   -1.7780    1.5940 O   0  0  0  0  0  0  0  0  0  0  0  0
    1.2250   -0.0450    1.8320 C   0  0  0  0  0  0  0  0  0  0  0  0
   -0.1110   -0.0380    1.9690 C   0  0  0  0  0  0  0  0  0  0  0  0
   -0.7380    0.7810    2.8300 C   0  0  0  0  0  0  0  0  0  0  0  0
   -0.0110    1.6220    3.5860 C   0  0  0  0  0  0  0  0  0  0  0  0
    1.3270    1.6410    3.4750 C   0  0  0  0  0  0  0  0  0  0  0  0
    1.9190    0.8120    2.6020 C   0  0  0  0  0  0  0  0  0  0  0  0
    0.2400   -1.1530   -0.9420 O   0  0  0  0  0  0  0  0  0  0  0  0
    0.2580    0.1230   -1.4440 C   0  0  0  0  0  0  0  0  0  0  0  0
    1.1340    0.9000   -1.1270 O   0  0  0  0  0  0  0  0  0  0  0  0
   -0.6940    0.5130   -2.3490 C   0  0  0  0  0  0  0  0  0  0  0  0
   -1.6480   -0.3500   -2.7450 C   0  0  0  0  0  0  0  0  0  0  0  0
   -2.5880   -0.0090   -3.6420 C   0  0  0  0  0  0  0  0  0  0  0  0
   -2.5830    1.2320   -4.1570 C   0  0  0  0  0  0  0  0  0  0  0  0
   -1.6500    2.1190   -3.7740 C   0  0  0  0  0  0  0  0  0  0  0  0
   -0.7180    1.7500   -2.8790 C   0  0  0  0  0  0  0  0  0  0  0  0
   -3.5410   -0.8920   -4.0440 O   0  0  0  0  0  0  0  0  0  0  0  0
   -4.1150   -0.4490   -4.6920 H   0  0  0  0  0  0  0  0  0  0  0  0
   -3.5230    1.5990   -5.0670 O   0  0  0  0  0  0  0  0  0  0  0  0
   -3.3710    2.5230   -5.3230 H   0  0  0  0  0  0  0  0  0  0  0  0
   -1.6570    3.3740   -4.2980 O   0  0  0  0  0  0  0  0  0  0  0  0
   -0.9300    3.8950   -3.9230 H   0  0  0  0  0  0  0  0  0  0  0  0
   -2.0920    0.7770    2.9560 O   0  0  0  0  0  0  0  0  0  0  0  0
   -2.3370    1.4350    3.6270 H   0  0  0  0  0  0  0  0  0  0  0  0
    2.0600    2.4920    4.2400 O   0  0  0  0  0  0  0  0  0  0  0  0
    3.0020    2.3940    4.0310 H   0  0  0  0  0  0  0  0  0  0  0  0
   -0.6230    2.4580    4.4650 O   0  0  0  0  0  0  0  0  0  0  0  0
    0.0550    2.9880    4.9160 H   0  0  0  0  0  0  0  0  0  0  0  0
  1  2  1  0  0  0  0
  3  1  1  0  0  0  0
  4 13  1  1  0  0  0
  4  3  1  0  0  0  0
  4  5  1  0  0  0  0
  5  6  1  0  0  0  0
  5  7  1  1  0  0  0
  6  2  1  0  0  0  0
  7  8  2  0  0  0  0
  7 12  1  0  0  0  0
  8  9  1  0  0  0  0
  9 28  1  0  0  0  0
  9 10  2  0  0  0  0
 10 32  1  0  0  0  0
 11 10  1  0  0  0  0
 11 30  1  0  0  0  0
 12 11  2  0  0  0  0
 14 15  2  0  0  0  0
 14 13  1  0  0  0  0
 16 14  1  0  0  0  0
 17 16  1  0  0  0  0
 18 17  2  0  0  0  0
 19 20  2  0  0  0  0
 19 18  1  0  0  0  0
 20 21  1  0  0  0  0
 21 16  2  0  0  0  0
 22 18  1  0  0  0  0
 23 22  1  0  0  0  0
 24 19  1  0  0  0  0
 25 24  1  0  0  0  0
 26 27  1  0  0  0  0
 26 20  1  0  0  0  0
 28 29  1  0  0  0  0
 31 30  1  0  0  0  0
 32 33  1  0  0  0  0
M  END
