pdbs/nsa.pdb
 OpenBabel07211501453D

 26 26  0  0  0  0  0  0  0  0999 V2000
   -4.6730   -1.8690    0.4930 C   0  0  0  0  0  0  0  0  0  0  0  0
   -6.1580   -1.4720    0.3900 C   0  0  0  0  0  0  0  0  0  0  0  0
   -7.2280   -2.5260    0.6690 C   0  0  0  0  0  0  0  0  0  0  0  0
   -6.8250   -3.7690    0.9970 C   0  0  0  0  0  0  0  0  0  0  0  0
   -7.6940   -4.7520    1.2550 C   0  0  0  0  0  0  0  0  0  0  0  0
   -9.0010   -4.4890    1.1850 C   0  0  0  0  0  0  0  0  0  0  0  0
   -9.4580   -3.2640    0.8710 C   0  0  0  0  0  0  0  0  0  0  0  0
   -8.5650   -2.2780    0.6060 C   0  0  0  0  0  0  0  0  0  0  0  0
  -10.8160   -3.1220    0.8110 O   0  0  0  0  0  0  0  0  0  0  0  0
  -11.1670   -2.3490    0.3530 H   0  0  0  0  0  0  0  0  0  0  0  0
   -9.0550   -1.0450    0.2880 C   0  0  0  0  0  0  0  0  0  0  0  0
   -8.3360   -0.0570    0.0210 O   0  0  0  0  0  0  0  0  0  0  0  0
  -10.2910   -0.8630    0.2610 O   0  0  0  0  0  0  0  0  0  0  0  0
   -3.7400   -0.6840    0.1810 C   0  0  0  0  0  0  0  0  0  0  0  0
   -2.2570   -1.0800    0.2840 C   0  0  0  0  0  0  0  0  0  0  0  0
   -1.3210    0.0980   -0.0270 C   0  0  0  0  0  0  0  0  0  0  0  0
    0.1590   -0.3040    0.0790 C   0  0  0  0  0  0  0  0  0  0  0  0
    1.1020    0.8700   -0.2310 C   0  0  0  0  0  0  0  0  0  0  0  0
    2.5800    0.4610   -0.1220 C   0  0  0  0  0  0  0  0  0  0  0  0
    3.5280    1.6310   -0.4300 C   0  0  0  0  0  0  0  0  0  0  0  0
    5.0040    1.2160   -0.3190 C   0  0  0  0  0  0  0  0  0  0  0  0
    5.9570    2.3820   -0.6270 C   0  0  0  0  0  0  0  0  0  0  0  0
    7.4320    1.9630   -0.5140 C   0  0  0  0  0  0  0  0  0  0  0  0
    8.3870    3.1280   -0.8210 C   0  0  0  0  0  0  0  0  0  0  0  0
    9.8610    2.7080   -0.7070 C   0  0  0  0  0  0  0  0  0  0  0  0
   10.8130    3.8720   -1.0140 C   0  0  0  0  0  0  0  0  0  0  0  0
  2  1  1  0  0  0  0
  2  3  1  0  0  0  0
  3  4  1  0  0  0  0
  4  5  2  0  0  0  0
  6  5  1  0  0  0  0
  7  6  2  0  0  0  0
  8  3  2  0  0  0  0
  8  7  1  0  0  0  0
  9  7  1  0  0  0  0
 10  9  1  0  0  0  0
 11  8  1  0  0  0  0
 12 11  2  0  0  0  0
 13 11  1  0  0  0  0
 14 15  1  0  0  0  0
 14  1  1  0  0  0  0
 16 17  1  0  0  0  0
 16 15  1  0  0  0  0
 18 19  1  0  0  0  0
 18 17  1  0  0  0  0
 20 21  1  0  0  0  0
 20 19  1  0  0  0  0
 22 23  1  0  0  0  0
 22 21  1  0  0  0  0
 24 25  1  0  0  0  0
 24 23  1  0  0  0  0
 26 25  1  0  0  0  0
M  END
