pdbs/s3emn.pdb
 OpenBabel07211501463D

 33 36  0  0  0  0  0  0  0  0999 V2000
    4.9780   -1.6680    2.1650 C   0  0  0  0  0  0  0  0  0  0  0  0
    4.0880   -2.7400    2.2230 C   0  0  0  0  0  0  0  0  0  0  0  0
    2.9120   -2.7120    1.4740 C   0  0  0  0  0  0  0  0  0  0  0  0
    2.6270   -1.6110    0.6660 C   0  0  0  0  0  0  0  0  0  0  0  0
    3.5160   -0.5390    0.6070 C   0  0  0  0  0  0  0  0  0  0  0  0
    4.6930   -0.5670    1.3570 C   0  0  0  0  0  0  0  0  0  0  0  0
    3.2570    0.4600   -0.1260 N   0  0  0  0  0  0  0  0  0  0  0  0
    1.9330    0.7860   -0.6120 C   0  0  0  0  0  0  0  0  0  0  0  0
    2.0470    2.2430   -1.0000 C   0  0  0  0  0  0  0  0  0  0  0  0
    3.5350    2.3660   -1.0310 C   0  0  0  0  0  0  0  0  0  0  0  0
    4.1930    1.3600   -0.5530 N   0  0  0  0  0  0  0  0  0  0  0  0
    1.0970    3.1510   -1.2440 C   0  0  0  0  0  0  0  0  0  0  0  0
    4.2220    3.5780   -1.5790 C   0  0  0  0  0  0  0  0  0  0  0  0
    0.9660    0.0660   -0.6890 O   0  0  0  0  0  0  0  0  0  0  0  0
   -0.1930    2.8100   -1.1550 C   0  0  0  0  0  0  0  0  0  0  0  0
   -1.2470    3.6630   -1.3840 C   0  0  0  0  0  0  0  0  0  0  0  0
   -2.4230    2.9000   -1.1820 C   0  0  0  0  0  0  0  0  0  0  0  0
   -2.0030    1.6340   -0.8440 C   0  0  0  0  0  0  0  0  0  0  0  0
   -2.8160    0.6080   -0.5720 C   0  0  0  0  0  0  0  0  0  0  0  0
   -0.6460    1.5730   -0.8260 O   0  0  0  0  0  0  0  0  0  0  0  0
   -2.2810   -0.6360   -0.2390 C   0  0  0  0  0  0  0  0  0  0  0  0
   -4.1990    0.7830   -0.6200 C   0  0  0  0  0  0  0  0  0  0  0  0
   -3.1300   -1.7070    0.0450 C   0  0  0  0  0  0  0  0  0  0  0  0
   -2.5560   -3.0420    0.4010 C   0  0  0  0  0  0  0  0  0  0  0  0
   -4.5130   -1.5320   -0.0040 C   0  0  0  0  0  0  0  0  0  0  0  0
   -5.4230   -2.6810    0.3010 C   0  0  0  0  0  0  0  0  0  0  0  0
   -5.0480   -0.2880   -0.3360 C   0  0  0  0  0  0  0  0  0  0  0  0
   -4.6780    1.8960   -0.9180 N   0  0  0  0  0  0  0  0  0  0  0  0
   -4.9270    2.1890   -2.1700 O   0  0  0  0  0  0  0  0  0  0  0  0
   -4.9300    2.7730    0.0220 O   0  0  0  0  0  0  0  0  0  0  0  0
    4.3650   -3.8060    3.0060 C   0  0  0  0  0  0  0  0  0  0  0  0
    3.5680   -4.7670    3.0580 O   0  0  0  0  0  0  0  0  0  0  0  0
    5.4190   -3.8310    3.6780 O   0  0  0  0  0  0  0  0  0  0  0  0
  1  2  1  0  0  0  0
  2 31  1  0  0  0  0
  3  2  2  0  0  0  0
  4  3  1  0  0  0  0
  5  4  2  0  0  0  0
  5  6  1  0  0  0  0
  6  1  2  0  0  0  0
  7  5  1  0  0  0  0
  8  7  1  0  0  0  0
  9  8  1  0  0  0  0
 10  9  2  0  0  0  0
 10 11  1  0  0  0  0
 11  7  1  0  0  0  0
 12 15  1  0  0  0  0
 12  9  1  0  0  0  0
 13 10  1  0  0  0  0
 14  8  2  0  0  0  0
 15 20  1  0  0  0  0
 16 17  1  0  0  0  0
 16 15  2  0  0  0  0
 17 18  2  0  0  0  0
 18 20  1  0  0  0  0
 18 19  1  0  0  0  0
 19 21  1  0  0  0  0
 21 23  2  0  0  0  0
 22 19  2  0  0  0  0
 22 27  1  0  0  0  0
 23 24  1  0  0  0  0
 25 23  1  0  0  0  0
 25 26  1  0  0  0  0
 27 25  2  0  0  0  0
 28 22  1  0  0  0  0
 28 30  2  0  0  0  0
 29 28  2  0  0  0  0
 31 32  2  0  0  0  0
 31 33  1  0  0  0  0
M  END
