pdbs/s3ema.pdb
 OpenBabel07211501463D

 33 36  0  0  0  0  0  0  0  0999 V2000
    5.0710   -1.7360    2.1830 C   0  0  0  0  0  0  0  0  0  0  0  0
    4.1810   -2.8090    2.2420 C   0  0  0  0  0  0  0  0  0  0  0  0
    3.0050   -2.7810    1.4920 C   0  0  0  0  0  0  0  0  0  0  0  0
    2.7190   -1.6800    0.6840 C   0  0  0  0  0  0  0  0  0  0  0  0
    3.6090   -0.6080    0.6260 C   0  0  0  0  0  0  0  0  0  0  0  0
    4.7850   -0.6360    1.3750 C   0  0  0  0  0  0  0  0  0  0  0  0
    3.3500    0.3910   -0.1070 N   0  0  0  0  0  0  0  0  0  0  0  0
    2.0250    0.7170   -0.5940 C   0  0  0  0  0  0  0  0  0  0  0  0
    2.1400    2.1740   -0.9820 C   0  0  0  0  0  0  0  0  0  0  0  0
    3.6280    2.2970   -1.0120 C   0  0  0  0  0  0  0  0  0  0  0  0
    4.2860    1.2910   -0.5350 N   0  0  0  0  0  0  0  0  0  0  0  0
    1.1900    3.0830   -1.2250 C   0  0  0  0  0  0  0  0  0  0  0  0
    4.3150    3.5090   -1.5610 C   0  0  0  0  0  0  0  0  0  0  0  0
    1.0590   -0.0030   -0.6710 O   0  0  0  0  0  0  0  0  0  0  0  0
   -0.1000    2.7420   -1.1360 C   0  0  0  0  0  0  0  0  0  0  0  0
   -1.1550    3.5950   -1.3650 C   0  0  0  0  0  0  0  0  0  0  0  0
   -2.3300    2.8310   -1.1630 C   0  0  0  0  0  0  0  0  0  0  0  0
   -1.9100    1.5650   -0.8250 C   0  0  0  0  0  0  0  0  0  0  0  0
   -2.7230    0.5400   -0.5530 C   0  0  0  0  0  0  0  0  0  0  0  0
   -0.5530    1.5040   -0.8070 O   0  0  0  0  0  0  0  0  0  0  0  0
   -2.1890   -0.7050   -0.2210 C   0  0  0  0  0  0  0  0  0  0  0  0
   -4.1060    0.7140   -0.6020 C   0  0  0  0  0  0  0  0  0  0  0  0
   -3.0370   -1.7750    0.0630 C   0  0  0  0  0  0  0  0  0  0  0  0
   -4.4200   -1.6010    0.0140 C   0  0  0  0  0  0  0  0  0  0  0  0
   -5.3310   -2.7490    0.3190 C   0  0  0  0  0  0  0  0  0  0  0  0
   -4.9550   -0.3560   -0.3180 C   0  0  0  0  0  0  0  0  0  0  0  0
   -6.4390   -0.1690   -0.3700 C   0  0  0  0  0  0  0  0  0  0  0  0
   -0.9510   -0.8610   -0.1770 N   0  0  0  0  0  0  0  0  0  0  0  0
   -0.3000   -1.2350   -1.2510 O   0  0  0  0  0  0  0  0  0  0  0  0
   -0.3040   -0.6510    0.9420 O   0  0  0  0  0  0  0  0  0  0  0  0
    4.4580   -3.8740    3.0240 C   0  0  0  0  0  0  0  0  0  0  0  0
    3.6610   -4.8350    3.0770 O   0  0  0  0  0  0  0  0  0  0  0  0
    5.5120   -3.9000    3.6960 O   0  0  0  0  0  0  0  0  0  0  0  0
  1  2  1  0  0  0  0
  2 31  1  0  0  0  0
  3  2  2  0  0  0  0
  4  3  1  0  0  0  0
  5  4  2  0  0  0  0
  5  6  1  0  0  0  0
  6  1  2  0  0  0  0
  7  5  1  0  0  0  0
  8  7  1  0  0  0  0
  9  8  1  0  0  0  0
 10  9  2  0  0  0  0
 10 11  1  0  0  0  0
 11  7  1  0  0  0  0
 12 15  1  0  0  0  0
 12  9  1  0  0  0  0
 13 10  1  0  0  0  0
 14  8  2  0  0  0  0
 15 20  1  0  0  0  0
 16 17  1  0  0  0  0
 16 15  2  0  0  0  0
 17 18  2  0  0  0  0
 18 20  1  0  0  0  0
 18 19  1  0  0  0  0
 19 21  1  0  0  0  0
 21 28  1  0  0  0  0
 21 23  2  0  0  0  0
 22 19  2  0  0  0  0
 22 26  1  0  0  0  0
 24 23  1  0  0  0  0
 24 25  1  0  0  0  0
 26 24  2  0  0  0  0
 27 26  1  0  0  0  0
 28 30  2  0  0  0  0
 29 28  2  0  0  0  0
 31 32  2  0  0  0  0
 31 33  1  0  0  0  0
M  END
