pdbs/s3zcn.pdb
 OpenBabel07211501463D

 33 36  0  0  0  0  0  0  0  0999 V2000
    5.1530   -1.7940    1.8310 C   0  0  0  0  0  0  0  0  0  0  0  0
    4.2880   -2.7900    2.0930 C   0  0  0  0  0  0  0  0  0  0  0  0
    3.0730   -2.7220    1.5220 C   0  0  0  0  0  0  0  0  0  0  0  0
    2.7370   -1.6920    0.7290 C   0  0  0  0  0  0  0  0  0  0  0  0
    3.5740   -0.6670    0.4750 C   0  0  0  0  0  0  0  0  0  0  0  0
    4.7900   -0.7640    1.0530 C   0  0  0  0  0  0  0  0  0  0  0  0
    3.2580    0.3640   -0.2170 N   0  0  0  0  0  0  0  0  0  0  0  0
    2.1850    0.6210   -0.8640 C   0  0  0  0  0  0  0  0  0  0  0  0
    2.1150    1.9670   -1.0290 C   0  0  0  0  0  0  0  0  0  0  0  0
    3.3690    2.3480   -0.7530 C   0  0  0  0  0  0  0  0  0  0  0  0
    4.0150    1.3410   -0.3490 N   0  0  0  0  0  0  0  0  0  0  0  0
    1.1050    2.7710   -1.3930 C   0  0  0  0  0  0  0  0  0  0  0  0
    4.0470    3.6860   -0.8340 C   0  0  0  0  0  0  0  0  0  0  0  0
    1.5280   -0.1940   -1.4850 O   0  0  0  0  0  0  0  0  0  0  0  0
   -0.2070    2.5060   -1.3670 C   0  0  0  0  0  0  0  0  0  0  0  0
   -1.1610    3.4140   -1.6180 C   0  0  0  0  0  0  0  0  0  0  0  0
   -2.2960    2.7790   -1.3110 C   0  0  0  0  0  0  0  0  0  0  0  0
   -1.9180    1.5610   -0.8880 C   0  0  0  0  0  0  0  0  0  0  0  0
   -0.6910    1.4390   -0.9840 O   0  0  0  0  0  0  0  0  0  0  0  0
   -2.6920    0.5500   -0.4300 C   0  0  0  0  0  0  0  0  0  0  0  0
   -2.2220   -0.5940    0.1340 C   0  0  0  0  0  0  0  0  0  0  0  0
   -4.0290    0.6690   -0.5850 C   0  0  0  0  0  0  0  0  0  0  0  0
   -3.1080   -1.6100    0.2640 C   0  0  0  0  0  0  0  0  0  0  0  0
   -4.4300   -1.5090    0.0290 C   0  0  0  0  0  0  0  0  0  0  0  0
   -5.3460   -2.6930    0.2560 C   0  0  0  0  0  0  0  0  0  0  0  0
   -4.9130   -0.3090   -0.3360 C   0  0  0  0  0  0  0  0  0  0  0  0
   -6.3900   -0.0110   -0.5060 C   0  0  0  0  0  0  0  0  0  0  0  0
   -1.0450   -0.7860    0.5560 N   0  0  0  0  0  0  0  0  0  0  0  0
   -0.6480   -1.9310    1.0770 O   0  0  0  0  0  0  0  0  0  0  0  0
   -0.2160    0.1830    0.9200 O   0  0  0  0  0  0  0  0  0  0  0  0
    4.6280   -3.8230    2.9120 C   0  0  0  0  0  0  0  0  0  0  0  0
    3.7850   -4.7170    3.1500 O   0  0  0  0  0  0  0  0  0  0  0  0
    5.7740   -3.8690    3.4180 O   0  0  0  0  0  0  0  0  0  0  0  0
  1  2  1  0  0  0  0
  2 31  1  0  0  0  0
  3  2  2  0  0  0  0
  4  3  1  0  0  0  0
  5  4  2  0  0  0  0
  5  6  1  0  0  0  0
  6  1  2  0  0  0  0
  7  5  1  0  0  0  0
  8  7  1  0  0  0  0
  9  8  1  0  0  0  0
  9 10  2  0  0  0  0
 10 11  1  0  0  0  0
 11  7  1  0  0  0  0
 12 15  1  0  0  0  0
 12  9  1  0  0  0  0
 13 10  1  0  0  0  0
 14  8  2  0  0  0  0
 15 19  1  0  0  0  0
 16 15  2  0  0  0  0
 16 17  1  0  0  0  0
 17 18  2  0  0  0  0
 18 20  1  0  0  0  0
 19 18  1  0  0  0  0
 20 21  1  0  0  0  0
 21 23  2  0  0  0  0
 21 28  1  0  0  0  0
 22 20  2  0  0  0  0
 22 26  1  0  0  0  0
 24 25  1  0  0  0  0
 24 23  1  0  0  0  0
 26 24  2  0  0  0  0
 27 26  1  0  0  0  0
 28 30  2  0  0  0  0
 28 29  2  0  0  0  0
 31 32  2  0  0  0  0
 31 33  1  0  0  0  0
M  END
