pdbs/s3zmn.pdb
 OpenBabel07211501463D

 33 36  0  0  0  0  0  0  0  0999 V2000
    5.0090   -1.6930    2.0430 C   0  0  0  0  0  0  0  0  0  0  0  0
    4.1800   -2.7400    2.2130 C   0  0  0  0  0  0  0  0  0  0  0  0
    3.0220   -2.7200    1.5380 C   0  0  0  0  0  0  0  0  0  0  0  0
    2.7030   -1.6600    0.7820 C   0  0  0  0  0  0  0  0  0  0  0  0
    3.4970   -0.5840    0.5920 C   0  0  0  0  0  0  0  0  0  0  0  0
    4.6810   -0.6650    1.2360 C   0  0  0  0  0  0  0  0  0  0  0  0
    3.1940    0.4640   -0.0890 N   0  0  0  0  0  0  0  0  0  0  0  0
    2.0650    0.7830   -0.5890 C   0  0  0  0  0  0  0  0  0  0  0  0
    2.0730    2.0790   -0.9860 C   0  0  0  0  0  0  0  0  0  0  0  0
    3.3750    2.3690   -0.9110 C   0  0  0  0  0  0  0  0  0  0  0  0
    3.9760    1.3910   -0.3700 N   0  0  0  0  0  0  0  0  0  0  0  0
    1.0390    2.8630   -1.3320 C   0  0  0  0  0  0  0  0  0  0  0  0
    4.1400    3.5830   -1.3650 C   0  0  0  0  0  0  0  0  0  0  0  0
    1.1220    0.0360   -0.6980 O   0  0  0  0  0  0  0  0  0  0  0  0
   -0.2940    2.6500   -1.2740 C   0  0  0  0  0  0  0  0  0  0  0  0
   -1.1860    3.6290   -1.4790 C   0  0  0  0  0  0  0  0  0  0  0  0
   -2.3650    3.0480   -1.2410 C   0  0  0  0  0  0  0  0  0  0  0  0
   -2.1040    1.7670   -0.9240 C   0  0  0  0  0  0  0  0  0  0  0  0
   -2.9430    0.7410   -0.6100 C   0  0  0  0  0  0  0  0  0  0  0  0
   -0.8750    1.6030   -0.9650 O   0  0  0  0  0  0  0  0  0  0  0  0
   -2.4100   -0.4660   -0.2850 C   0  0  0  0  0  0  0  0  0  0  0  0
   -4.2980    0.7810   -0.5950 C   0  0  0  0  0  0  0  0  0  0  0  0
   -3.1130   -1.5790    0.0160 C   0  0  0  0  0  0  0  0  0  0  0  0
   -2.4350   -2.8900    0.3630 C   0  0  0  0  0  0  0  0  0  0  0  0
   -4.4570   -1.5060   -0.0050 C   0  0  0  0  0  0  0  0  0  0  0  0
   -5.4070   -2.6460    0.2910 C   0  0  0  0  0  0  0  0  0  0  0  0
   -5.0080   -0.3240   -0.3100 C   0  0  0  0  0  0  0  0  0  0  0  0
   -5.1010    1.7180   -0.8420 N   0  0  0  0  0  0  0  0  0  0  0  0
   -4.9880    2.1940   -2.0680 O   0  0  0  0  0  0  0  0  0  0  0  0
   -4.9680    2.7520   -0.0330 O   0  0  0  0  0  0  0  0  0  0  0  0
    4.4720   -3.7880    3.0300 C   0  0  0  0  0  0  0  0  0  0  0  0
    3.6580   -4.7330    3.1380 O   0  0  0  0  0  0  0  0  0  0  0  0
    5.5460   -3.7890    3.6710 O   0  0  0  0  0  0  0  0  0  0  0  0
  1  2  1  0  0  0  0
  2 31  1  0  0  0  0
  3  2  2  0  0  0  0
  4  3  1  0  0  0  0
  5  4  2  0  0  0  0
  5  6  1  0  0  0  0
  6  1  2  0  0  0  0
  7  5  1  0  0  0  0
  8  7  1  0  0  0  0
  9 10  2  0  0  0  0
  9  8  1  0  0  0  0
 10 11  1  0  0  0  0
 11  7  1  0  0  0  0
 12 15  1  0  0  0  0
 12  9  1  0  0  0  0
 13 10  1  0  0  0  0
 14  8  2  0  0  0  0
 15 20  1  0  0  0  0
 16 15  2  0  0  0  0
 16 17  1  0  0  0  0
 17 18  2  0  0  0  0
 18 19  1  0  0  0  0
 19 22  2  0  0  0  0
 19 21  1  0  0  0  0
 20 18  1  0  0  0  0
 21 23  2  0  0  0  0
 22 27  1  0  0  0  0
 23 24  1  0  0  0  0
 25 23  1  0  0  0  0
 25 26  1  0  0  0  0
 27 25  2  0  0  0  0
 28 22  1  0  0  0  0
 28 30  1  0  0  0  0
 29 28  1  0  0  0  0
 31 32  2  0  0  0  0
 31 33  1  0  0  0  0
M  END
