s4.mol
  ChemDraw07211514333D

 52 50  0  0  0  0  0  0  0  0999 V2000
   -2.6324   -0.0309   -1.3211 C   0  0  0  0  0  0  0  0  0  0  0  0
   -3.2449   -0.3846   -1.3337 C   0  0  0  0  0  0  0  0  0  0  0  0
   -3.8573   -0.0309   -1.7889 C   0  0  0  0  0  0  0  0  0  0  0  0
   -4.4698   -0.3846   -1.6477 C   0  0  0  0  0  0  0  0  0  0  0  0
   -5.0823   -0.0309   -2.0083 O   0  0  0  0  0  0  0  0  0  0  0  0
   -4.4698   -1.0918   -1.0740 O   0  0  0  0  0  0  0  0  0  0  0  0
   -5.0823   -1.4454   -0.9341 C   0  0  0  0  0  0  0  0  0  0  0  0
   -5.0823   -2.1526   -0.2743 C   0  0  0  0  0  0  0  0  0  0  0  0
   -3.8573    0.6763   -2.3488 C   0  0  0  0  0  0  0  0  0  0  0  0
   -4.4698    1.0299   -2.7736 O   0  0  0  0  0  0  0  0  0  0  0  0
   -3.2449    1.0299   -2.4552 O   0  0  0  0  0  0  0  0  0  0  0  0
   -3.2449    1.7371   -3.0264 C   0  0  0  0  0  0  0  0  0  0  0  0
   -2.6324    2.0907   -3.0042 C   0  0  0  0  0  0  0  0  0  0  0  0
   -2.0199   -0.3846   -0.7004 C   0  0  0  0  0  0  0  0  0  0  0  0
   -1.4074   -0.0309   -0.7008 C   0  0  0  0  0  0  0  0  0  0  0  0
   -0.7950   -0.3846   -0.0819 C   0  0  0  0  0  0  0  0  0  0  0  0
   -0.1825   -0.0309   -0.0814 C   0  0  0  0  0  0  0  0  0  0  0  0
    0.4300   -0.3846    0.5380 C   0  0  0  0  0  0  0  0  0  0  0  0
    1.0425   -0.0309    0.5393 C   0  0  0  0  0  0  0  0  0  0  0  0
    1.6549   -0.3846    1.1591 C   0  0  0  0  0  0  0  0  0  0  0  0
    2.2674   -0.0309    1.1608 C   0  0  0  0  0  0  0  0  0  0  0  0
    2.8799   -0.3846    1.7811 C   0  0  0  0  0  0  0  0  0  0  0  0
    3.4924   -0.0309    1.7837 C   0  0  0  0  0  0  0  0  0  0  0  0
    4.1048   -0.3846    2.4040 C   0  0  0  0  0  0  0  0  0  0  0  0
    4.7173   -0.0309    2.4066 C   0  0  0  0  0  0  0  0  0  0  0  0
    5.3298   -0.3846    3.0264 C   0  0  0  0  0  0  0  0  0  0  0  0
   -6.7875   -0.7349    3.0264 C   0  0  0  0  0  0  0  0  0  0  0  0
   -6.0730   -0.3224    3.0264 C   0  0  0  0  0  0  0  0  0  0  0  0
   -5.3585   -0.7349    3.0264 C   0  0  0  0  0  0  0  0  0  0  0  0
   -4.6441   -0.3224    3.0264 C   0  0  0  0  0  0  0  0  0  0  0  0
   -3.9296   -0.7349    3.0264 C   0  0  0  0  0  0  0  0  0  0  0  0
   -3.2151   -0.3224    3.0264 C   0  0  0  0  0  0  0  0  0  0  0  0
   -2.5006   -0.7349    3.0264 C   0  0  0  0  0  0  0  0  0  0  0  0
   -1.7862   -0.3224    3.0264 C   0  0  0  0  0  0  0  0  0  0  0  0
   -1.0717   -0.7349    3.0264 C   0  0  0  0  0  0  0  0  0  0  0  0
   -0.3572   -0.3224    3.0264 C   0  0  0  0  0  0  0  0  0  0  0  0
    0.3572   -0.7349    3.0264 C   0  0  0  0  0  0  0  0  0  0  0  0
    1.0717   -0.3224    3.0264 C   0  0  0  0  0  0  0  0  0  0  0  0
    1.7862   -0.7349    3.0264 C   0  0  0  0  0  0  0  0  0  0  0  0
    2.5006   -0.3224    3.0264 C   0  0  0  0  0  0  0  0  0  0  0  0
    3.2151   -0.7349    3.0264 C   0  0  0  0  0  0  0  0  0  0  0  0
    3.9296   -0.3224    3.0264 C   0  0  0  0  0  0  0  0  0  0  0  0
    4.6441   -0.7349    3.0264 C   0  0  0  0  0  0  0  0  0  0  0  0
    4.6441   -1.5599    3.0264 O   0  0  0  0  0  0  0  0  0  0  0  0
    5.3585   -0.3224    3.0264 O   0  0  0  0  0  0  0  0  0  0  0  0
    6.0730   -0.7349    3.0264 C   0  0  0  0  0  0  0  0  0  0  0  0
    6.7875   -0.3224    3.0264 C   0  0  0  0  0  0  0  0  0  0  0  0
    3.9296    0.5026    3.0264 C   0  0  0  0  0  0  0  0  0  0  0  0
    3.2151    0.9151    3.0264 O   0  0  0  0  0  0  0  0  0  0  0  0
    4.6441    0.9151    3.0264 O   0  0  0  0  0  0  0  0  0  0  0  0
    4.6441    1.7401    3.0264 C   0  0  0  0  0  0  0  0  0  0  0  0
    5.3585    2.1526    3.0264 C   0  0  0  0  0  0  0  0  0  0  0  0
  1 14  1  0      
  2  1  1  0      
  3  4  1  0      
  3  2  2  0      
  4  6  1  0      
  5  4  2  0      
  6  7  1  0      
  7  8  1  0      
  9  3  1  0      
 10  9  2  0      
 11  9  1  0      
 12 13  1  0      
 12 11  1  0      
 15 14  1  0      
 15 16  1  0      
 16 17  1  0      
 17 18  1  0      
 18 19  1  0      
 19 20  1  0      
 20 21  1  0      
 21 22  1  0      
 22 23  1  0      
 23 24  1  0      
 24 25  1  0      
 25 26  1  0      
 27 28  1  0      
 28 29  1  0      
 29 30  1  0      
 30 31  1  0      
 31 32  1  0      
 32 33  1  0      
 33 34  1  0      
 34 35  1  0      
 35 36  1  0      
 36 37  1  0      
 37 38  1  0      
 38 39  1  0      
 39 40  1  0      
 40 41  1  0      
 41 42  2  0      
 42 43  1  0      
 43 44  2  0      
 43 45  1  0      
 45 46  1  0      
 46 47  1  0      
 42 48  1  0      
 48 49  2  0      
 48 50  1  0      
 50 51  1  0      
 51 52  1  0      
M  END
