10428
 OpenBabel03021519512D

 15 16  0  0  0  0  0  0  0  0999 V2000
   -0.4090    4.2159    0.0000 C   0  0  0  0  0  0  0  0  0  0  0  0
   -0.7209    2.7487    0.0000 C   0  0  0  0  0  0  0  0  0  0  0  0
    0.5781    1.9987    0.0000 O   0  0  0  0  0  0  0  0  0  0  0  0
    1.0827    4.3727    0.0000 C   0  0  0  0  0  0  0  0  0  0  0  0
    1.6928    3.0024    0.0000 C   0  0  0  0  0  0  0  0  0  0  0  0
    3.1601    2.6905    0.0000 O   0  0  0  0  0  0  0  0  0  0  0  0
    3.3327    5.6717    0.0000 C   0  0  0  0  0  0  0  0  0  0  0  0
    4.0827    4.3727    0.0000 C   0  0  0  0  0  0  0  0  0  0  0  0
    4.0827    6.9708    0.0000 C   0  0  0  0  0  0  0  0  0  0  0  0
    5.5827    6.9708    0.0000 C   0  0  0  0  0  0  0  0  0  0  0  0
    5.5827    4.3727    0.0000 C   0  0  0  0  0  0  0  0  0  0  0  0
    6.3327    5.6717    0.0000 C   0  0  0  0  0  0  0  0  0  0  0  0
    7.8327    5.6717    0.0000 O   0  0  0  0  0  0  0  0  0  0  0  0
    1.8327    5.6717    0.0000 C   0  0  0  0  0  0  0  0  0  0  0  0
    8.5827    6.9708    0.0000 C   0  0  0  0  0  0  0  0  0  0  0  0
  1  4  1  0  0  0  0
  1  2  1  0  0  0  0
  2  3  1  0  0  0  0
  3  5  1  0  0  0  0
  4  5  1  0  0  0  0
  4 14  2  0  0  0  0
  5  6  2  0  0  0  0
  7  9  2  0  0  0  0
  7  8  1  0  0  0  0
  7 14  1  0  0  0  0
  8 11  2  0  0  0  0
  9 10  1  0  0  0  0
 10 12  2  0  0  0  0
 11 12  1  0  0  0  0
 12 13  1  0  0  0  0
 13 15  1  0  0  0  0
M  END
