105827
 OpenBabel03021519512D

 22 24  0  0  1  0  0  0  0  0999 V2000
    0.9878    7.7145    0.0000 O   0  0  0  0  0  0  0  0  0  0  0  0
   -0.2257    6.8328    0.0000 C   0  0  3  0  0  0  0  0  0  0  0  0
    0.2378    5.4062    0.0000 C   0  0  3  0  0  0  0  0  0  0  0  0
    1.7378    5.4062    0.0000 C   0  0  3  0  0  0  0  0  0  0  0  0
    2.2013    6.8328    0.0000 C   0  0  3  0  0  0  0  0  0  0  0  0
   -1.6523    7.2963    0.0000 C   0  0  0  0  0  0  0  0  0  0  0  0
    5.5914   11.3210    0.0000 N   0  0  0  0  0  0  0  0  0  0  0  0
    4.0914   11.3210    0.0000 C   0  0  0  0  0  0  0  0  0  0  0  0
    3.3414   10.0219    0.0000 N   0  0  0  0  0  0  0  0  0  0  0  0
    4.0914    8.7229    0.0000 C   0  0  0  0  0  0  0  0  0  0  0  0
    5.5914    8.7229    0.0000 C   0  0  0  0  0  0  0  0  0  0  0  0
    6.3414   10.0219    0.0000 C   0  0  0  0  0  0  0  0  0  0  0  0
    3.6279    7.2963    0.0000 N   0  0  0  0  0  0  0  0  0  0  0  0
    4.8414    6.4146    0.0000 C   0  0  0  0  0  0  0  0  0  0  0  0
    6.0550    7.2963    0.0000 C   0  0  0  0  0  0  0  0  0  0  0  0
    7.4815    6.8328    0.0000 C   0  0  0  0  0  0  0  0  0  0  0  0
    8.5963    7.8365    0.0000 S   0  0  0  0  0  0  0  0  0  0  0  0
    7.7934    5.3656    0.0000 N   0  0  0  0  0  0  0  0  0  0  0  0
    7.8414   10.0219    0.0000 N   0  0  0  0  0  0  0  0  0  0  0  0
   -2.7670    6.2926    0.0000 O   0  0  0  0  0  0  0  0  0  0  0  0
   -0.6439    4.1927    0.0000 O   0  0  0  0  0  0  0  0  0  0  0  0
    2.6195    4.1927    0.0000 O   0  0  0  0  0  0  0  0  0  0  0  0
  1  2  1  0  0  0  0
  1  5  1  0  0  0  0
  2  3  1  0  0  0  0
  2  6  1  0  0  0  0
  3  4  1  0  0  0  0
  3 21  1  0  0  0  0
  4  5  1  0  0  0  0
  4 22  1  0  0  0  0
  5 13  1  0  0  0  0
  6 20  1  0  0  0  0
  7  8  1  0  0  0  0
  7 12  2  0  0  0  0
  8  9  2  0  0  0  0
  9 10  1  0  0  0  0
 10 11  2  0  0  0  0
 10 13  1  0  0  0  0
 11 12  1  0  0  0  0
 11 15  1  0  0  0  0
 12 19  1  0  0  0  0
 13 14  1  0  0  0  0
 14 15  2  0  0  0  0
 15 16  1  0  0  0  0
 16 17  2  0  0  0  0
 16 18  1  0  0  0  0
M  END
