4263
 OpenBabel03021519512D

 17 19  0  0  0  0  0  0  0  0999 V2000
    2.7313    5.2500    0.0000 N   0  0  0  0  0  0  0  0  0  0  0  0
    5.3294    6.7500    0.0000 N   0  0  0  0  0  0  0  0  0  0  0  0
    6.6284    7.5000    0.0000 C   0  0  0  0  0  0  0  0  0  0  0  0
    7.9275    6.7500    0.0000 C   0  0  0  0  0  0  0  0  0  0  0  0
    7.9275    5.2500    0.0000 C   0  0  0  0  0  0  0  0  0  0  0  0
    6.6284    4.5000    0.0000 C   0  0  0  0  0  0  0  0  0  0  0  0
    5.3294    5.2500    0.0000 C   0  0  0  0  0  0  0  0  0  0  0  0
    4.0303    4.5000    0.0000 C   0  0  0  0  0  0  0  0  0  0  0  0
    6.6284    3.0000    0.0000 C   0  0  0  0  0  0  0  0  0  0  0  0
    4.0303    3.0000    0.0000 C   0  0  0  0  0  0  0  0  0  0  0  0
    5.3294    2.2500    0.0000 C   0  0  0  0  0  0  0  0  0  0  0  0
    2.7313    2.2500    0.0000 C   0  0  0  0  0  0  0  0  0  0  0  0
    1.4323    3.0000    0.0000 C   0  0  0  0  0  0  0  0  0  0  0  0
    1.4323    4.5000    0.0000 C   0  0  0  0  0  0  0  0  0  0  0  0
    7.9275    2.2500    0.0000 N   0  3  0  0  0  0  0  0  0  0  0  0
    9.2265    3.0000    0.0000 O   0  5  0  0  0  0  0  0  0  0  0  0
    7.9275    0.7500    0.0000 O   0  0  0  0  0  0  0  0  0  0  0  0
  1 14  2  0  0  0  0
  1  8  1  0  0  0  0
  2  3  2  0  0  0  0
  2  7  1  0  0  0  0
  3  4  1  0  0  0  0
  4  5  2  0  0  0  0
  5  6  1  0  0  0  0
  6  7  2  0  0  0  0
  6  9  1  0  0  0  0
  7  8  1  0  0  0  0
  8 10  2  0  0  0  0
  9 11  2  0  0  0  0
  9 15  1  0  0  0  0
 10 11  1  0  0  0  0
 10 12  1  0  0  0  0
 12 13  2  0  0  0  0
 13 14  1  0  0  0  0
 15 16  1  0  0  0  0
 15 17  2  0  0  0  0
M  CHG  2  15   1  16  -1
M  END
