118723
 OpenBabel03021519512D

 19 21  0  0  0  0  0  0  0  0999 V2000
    7.5197    1.0246    0.0000 H   0  0  0  0  0  0  0  0  0  0  0  0
    6.2207    0.2745    0.0000 N   0  0  0  0  0  0  0  0  0  0  0  0
   11.4168   -1.2254    0.0000 C   0  0  0  0  0  0  0  0  0  0  0  0
   12.7159   -1.9754    0.0000 C   0  0  0  0  0  0  0  0  0  0  0  0
   10.1178   -1.9754    0.0000 C   0  0  0  0  0  0  0  0  0  0  0  0
   12.7159   -3.4754    0.0000 C   0  0  0  0  0  0  0  0  0  0  0  0
   10.1178   -3.4754    0.0000 C   0  0  0  0  0  0  0  0  0  0  0  0
   11.4168   -4.2254    0.0000 C   0  0  0  0  0  0  0  0  0  0  0  0
    4.9216    2.5245    0.0000 C   0  0  0  0  0  0  0  0  0  0  0  0
    3.6226    3.2745    0.0000 C   0  0  0  0  0  0  0  0  0  0  0  0
    4.9216    1.0245    0.0000 C   0  0  0  0  0  0  0  0  0  0  0  0
    3.6226    0.2745    0.0000 C   0  0  0  0  0  0  0  0  0  0  0  0
    2.3236    2.5245    0.0000 C   0  0  0  0  0  0  0  0  0  0  0  0
    3.6226   -1.2255    0.0000 C   0  0  0  0  0  0  0  0  0  0  0  0
    6.2207   -1.2255    0.0000 C   0  0  0  0  0  0  0  0  0  0  0  0
    4.9216   -1.9755    0.0000 C   0  0  0  0  0  0  0  0  0  0  0  0
    2.3236    1.0245    0.0000 C   0  0  0  0  0  0  0  0  0  0  0  0
    7.5197   -1.9754    0.0000 N   0  0  0  0  0  0  0  0  0  0  0  0
    8.8188   -1.2254    0.0000 N   0  0  0  0  0  0  0  0  0  0  0  0
  1  2  1  0  0  0  0
  2 11  1  0  0  0  0
  2 15  1  0  0  0  0
  3  4  1  0  0  0  0
  3  5  1  0  0  0  0
  4  6  1  0  0  0  0
  5  7  1  0  0  0  0
  5 19  2  0  0  0  0
  6  8  1  0  0  0  0
  7  8  1  0  0  0  0
  9 10  2  0  0  0  0
  9 11  1  0  0  0  0
 10 13  1  0  0  0  0
 11 12  2  0  0  0  0
 12 14  1  0  0  0  0
 12 17  1  0  0  0  0
 13 17  2  0  0  0  0
 14 16  2  0  0  0  0
 15 16  1  0  0  0  0
 15 18  2  0  0  0  0
 18 19  1  0  0  0  0
M  END
