40467
 OpenBabel03021519512D

 13 14  0  0  0  0  0  0  0  0999 V2000
   -3.0000   -0.7500    0.0000 C   0  0  0  0  0  0  0  0  0  0  0  0
   -4.5000   -0.7500    0.0000 C   0  0  0  0  0  0  0  0  0  0  0  0
   -7.6317   -0.8355    0.0000 C   0  0  0  0  0  0  0  0  0  0  0  0
   -2.2500   -2.0490    0.0000 C   0  0  0  0  0  0  0  0  0  0  0  0
   -5.2500   -2.0490    0.0000 C   0  0  0  0  0  0  0  0  0  0  0  0
   -6.7500   -2.0491    0.0000 C   0  0  0  0  0  0  0  0  0  0  0  0
   -3.0000   -3.3481    0.0000 C   0  0  0  0  0  0  0  0  0  0  0  0
   -4.5000   -3.3481    0.0000 C   0  0  0  0  0  0  0  0  0  0  0  0
   -7.6317   -3.2626    0.0000 C   0  0  0  0  0  0  0  0  0  0  0  0
   -9.0583   -1.2991    0.0000 S   0  0  0  0  0  0  0  0  0  0  0  0
   -9.0583   -2.7991    0.0000 S   0  0  0  0  0  0  0  0  0  0  0  0
   -7.1681   -4.6892    0.0000 S   0  0  0  0  0  0  0  0  0  0  0  0
   -0.7500   -2.0490    0.0000 C   0  0  0  0  0  0  0  0  0  0  0  0
  1  4  1  0  0  0  0
  1  2  2  0  0  0  0
  2  5  1  0  0  0  0
  3  6  2  0  0  0  0
  3 10  1  0  0  0  0
  4  7  2  0  0  0  0
  4 13  1  0  0  0  0
  5  6  1  0  0  0  0
  5  8  2  0  0  0  0
  6  9  1  0  0  0  0
  7  8  1  0  0  0  0
  9 11  1  0  0  0  0
  9 12  2  0  0  0  0
 10 11  1  0  0  0  0
M  END
