60530
 OpenBabel03021519512D

 11 12  0  0  0  0  0  0  0  0999 V2000
   -5.6563   -3.0000    0.0000 N   0  0  0  0  0  0  0  0  0  0  0  0
   -4.3573   -0.7500    0.0000 N   0  0  0  0  0  0  0  0  0  0  0  0
   -3.0583   -1.5000    0.0000 N   0  0  0  0  0  0  0  0  0  0  0  0
   -1.6317   -1.0365    0.0000 N   0  0  0  0  0  0  0  0  0  0  0  0
   -0.7500   -2.2500    0.0000 N   0  0  0  0  0  0  0  0  0  0  0  0
   -5.6563   -1.5000    0.0000 C   0  0  0  0  0  0  0  0  0  0  0  0
   -1.6317   -3.4635    0.0000 C   0  0  0  0  0  0  0  0  0  0  0  0
   -3.0583   -3.0000    0.0000 C   0  0  0  0  0  0  0  0  0  0  0  0
   -4.3573   -3.7500    0.0000 C   0  0  0  0  0  0  0  0  0  0  0  0
   -6.9554   -0.7500    0.0000 N   0  0  0  0  0  0  0  0  0  0  0  0
   -4.3573   -5.2500    0.0000 N   0  0  0  0  0  0  0  0  0  0  0  0
  1  9  2  0  0  0  0
  1  6  1  0  0  0  0
  2  3  1  0  0  0  0
  2  6  2  0  0  0  0
  3  4  1  0  0  0  0
  3  8  1  0  0  0  0
  4  5  2  0  0  0  0
  5  7  1  0  0  0  0
  6 10  1  0  0  0  0
  7  8  2  0  0  0  0
  8  9  1  0  0  0  0
  9 11  1  0  0  0  0
M  END
