319435
 OpenBabel03021519512D

 27 29  0  0  1  0  0  0  0  0999 V2000
    0.7500   -5.9462    0.0000 O   0  0  0  0  0  0  0  0  0  0  0  0
    3.0000   -4.6471    0.0000 C   0  0  0  0  0  0  0  0  0  0  0  0
    2.2500   -5.9462    0.0000 C   0  0  0  0  0  0  0  0  0  0  0  0
    4.5000   -4.6471    0.0000 C   0  0  0  0  0  0  0  0  0  0  0  0
    3.0000   -7.2452    0.0000 N   0  0  0  0  0  0  0  0  0  0  0  0
    2.2500   -8.5442    0.0000 H   0  0  0  0  0  0  0  0  0  0  0  0
    5.2500   -5.9461    0.0000 S   0  0  0  0  0  0  0  0  0  0  0  0
    4.5000   -7.2452    0.0000 C   0  0  3  0  0  0  0  0  0  0  0  0
    6.7500   -3.3481    0.0000 C   0  0  0  0  0  0  0  0  0  0  0  0
    5.2500   -8.5442    0.0000 C   0  0  0  0  0  0  0  0  0  0  0  0
    7.5000   -2.0490    0.0000 C   0  0  0  0  0  0  0  0  0  0  0  0
    6.7500   -8.5442    0.0000 C   0  0  0  0  0  0  0  0  0  0  0  0
    4.5000   -9.8433    0.0000 C   0  0  0  0  0  0  0  0  0  0  0  0
    7.5000   -4.6471    0.0000 C   0  0  0  0  0  0  0  0  0  0  0  0
    7.5000   -9.8433    0.0000 C   0  0  0  0  0  0  0  0  0  0  0  0
    5.2500  -11.1423    0.0000 C   0  0  0  0  0  0  0  0  0  0  0  0
    9.0000   -2.0490    0.0000 C   0  0  0  0  0  0  0  0  0  0  0  0
    9.0000   -4.6471    0.0000 C   0  0  0  0  0  0  0  0  0  0  0  0
    9.7500   -3.3481    0.0000 C   0  0  0  0  0  0  0  0  0  0  0  0
    6.7500  -11.1423    0.0000 C   0  0  0  0  0  0  0  0  0  0  0  0
    4.5000  -12.4413    0.0000 O   0  0  0  0  0  0  0  0  0  0  0  0
    2.2500   -3.3481    0.0000 C   0  0  0  0  0  0  0  0  0  0  0  0
    1.5000   -2.0490    0.0000 N   0  0  0  0  0  0  0  0  0  0  0  0
    5.2500   -3.3481    0.0000 N   0  0  0  0  0  0  0  0  0  0  0  0
    7.5000  -12.4413    0.0000 O   0  0  0  0  0  0  0  0  0  0  0  0
    5.2500  -13.7404    0.0000 C   0  0  0  0  0  0  0  0  0  0  0  0
    9.7500   -0.7500    0.0000 C   0  0  0  0  0  0  0  0  0  0  0  0
  1  3  2  0  0  0  0
  2  4  2  0  0  0  0
  2  3  1  0  0  0  0
  2 22  1  0  0  0  0
  3  5  1  0  0  0  0
  4  7  1  0  0  0  0
  4 24  1  0  0  0  0
  5  8  1  0  0  0  0
  5  6  1  0  0  0  0
  7  8  1  0  0  0  0
  8 10  1  0  0  0  0
  9 11  2  0  0  0  0
  9 14  1  0  0  0  0
  9 24  1  0  0  0  0
 10 12  2  0  0  0  0
 10 13  1  0  0  0  0
 11 17  1  0  0  0  0
 12 15  1  0  0  0  0
 13 16  2  0  0  0  0
 14 18  2  0  0  0  0
 15 20  2  0  0  0  0
 16 20  1  0  0  0  0
 16 21  1  0  0  0  0
 17 19  2  0  0  0  0
 17 27  1  0  0  0  0
 18 19  1  0  0  0  0
 20 25  1  0  0  0  0
 21 26  1  0  0  0  0
 22 23  3  0  0  0  0
M  END
