339594
 OpenBabel03021519512D

 24 25  0  0  0  0  0  0  0  0999 V2000
   -0.1005    6.8702    0.0000 C   0  0  0  0  0  0  0  0  0  0  0  0
    0.6495    8.1692    0.0000 C   0  0  0  0  0  0  0  0  0  0  0  0
    0.6495    5.5711    0.0000 C   0  0  0  0  0  0  0  0  0  0  0  0
    2.1495    5.5711    0.0000 N   0  0  0  0  0  0  0  0  0  0  0  0
    2.1495    8.1692    0.0000 C   0  0  0  0  0  0  0  0  0  0  0  0
    2.8995    6.8702    0.0000 C   0  0  0  0  0  0  0  0  0  0  0  0
    4.3995    6.8702    0.0000 S   0  0  0  0  0  0  0  0  0  0  0  0
    5.1495    8.1692    0.0000 C   0  0  0  0  0  0  0  0  0  0  0  0
    6.6495    8.1692    0.0000 C   0  0  0  0  0  0  0  0  0  0  0  0
    4.3995    9.4683    0.0000 N   0  0  0  0  0  0  0  0  0  0  0  0
    7.3995    9.4683    0.0000 C   0  0  0  0  0  0  0  0  0  0  0  0
    5.1495   10.7673    0.0000 C   0  0  0  0  0  0  0  0  0  0  0  0
    6.6495   10.7673    0.0000 C   0  0  0  0  0  0  0  0  0  0  0  0
   -1.6005    6.8702    0.0000 N   0  3  0  0  0  0  0  0  0  0  0  0
   -2.3505    8.1692    0.0000 O   0  5  0  0  0  0  0  0  0  0  0  0
   -2.3505    5.5711    0.0000 O   0  0  0  0  0  0  0  0  0  0  0  0
   -0.1005    9.4683    0.0000 C   0  0  0  0  0  0  0  0  0  0  0  0
   -0.1005    4.2721    0.0000 C   0  0  0  0  0  0  0  0  0  0  0  0
    2.8995    9.4683    0.0000 C   0  0  0  0  0  0  0  0  0  0  0  0
    3.6495   10.7673    0.0000 N   0  0  0  0  0  0  0  0  0  0  0  0
    7.3995    6.8702    0.0000 C   0  0  0  0  0  0  0  0  0  0  0  0
    8.1495    5.5712    0.0000 N   0  0  0  0  0  0  0  0  0  0  0  0
    4.3995   12.0663    0.0000 C   0  0  0  0  0  0  0  0  0  0  0  0
    8.8995    9.4683    0.0000 C   0  0  0  0  0  0  0  0  0  0  0  0
  1  2  1  0  0  0  0
  1  3  2  0  0  0  0
  1 14  1  0  0  0  0
  2  5  2  0  0  0  0
  2 17  1  0  0  0  0
  3  4  1  0  0  0  0
  3 18  1  0  0  0  0
  4  6  2  0  0  0  0
  5  6  1  0  0  0  0
  5 19  1  0  0  0  0
  6  7  1  0  0  0  0
  7  8  1  0  0  0  0
  8 10  1  0  0  0  0
  8  9  2  0  0  0  0
  9 11  1  0  0  0  0
  9 21  1  0  0  0  0
 10 12  2  0  0  0  0
 11 13  2  0  0  0  0
 11 24  1  0  0  0  0
 12 13  1  0  0  0  0
 12 23  1  0  0  0  0
 14 15  1  0  0  0  0
 14 16  2  0  0  0  0
 19 20  3  0  0  0  0
 21 22  3  0  0  0  0
M  CHG  2  14   1  15  -1
M  END
