14974
 OpenBabel03021519512D

 28 32  0  0  1  0  0  0  0  0999 V2000
    5.0463    5.4108    0.0000 O   0  0  0  0  0  0  0  0  0  0  0  0
    8.5442    2.2500    0.0000 O   0  0  0  0  0  0  0  0  0  0  0  0
   11.1423    2.2500    0.0000 O   0  0  0  0  0  0  0  0  0  0  0  0
    7.2452    7.5000    0.0000 C   0  0  3  0  0  0  0  0  0  0  0  0
    5.9462    6.7500    0.0000 C   0  0  3  0  0  0  0  0  0  0  0  0
    8.5442    6.7500    0.0000 C   0  0  3  0  0  0  0  0  0  0  0  0
    8.5442    5.2500    0.0000 C   0  0  3  0  0  0  0  0  0  0  0  0
    5.9462    5.2500    0.0000 C   0  0  3  0  0  0  0  0  0  0  0  0
    9.8433    4.5000    0.0000 C   0  0  3  0  0  0  0  0  0  0  0  0
    7.2452    4.5000    0.0000 C   0  0  3  0  0  0  0  0  0  0  0  0
    5.7963    4.1118    0.0000 C   0  0  0  0  0  0  0  0  0  0  0  0
    4.6471    4.5000    0.0000 C   0  0  3  0  0  0  0  0  0  0  0  0
    3.3481    5.2500    0.0000 C   0  0  3  0  0  0  0  0  0  0  0  0
    2.0490    4.5000    0.0000 C   0  0  3  0  0  0  0  0  0  0  0  0
    9.8433    3.0000    0.0000 C   0  0  0  0  0  0  0  0  0  0  0  0
    7.2452    3.0000    0.0000 C   0  0  3  0  0  0  0  0  0  0  0  0
    4.6471    3.0000    0.0000 C   0  0  3  0  0  0  0  0  0  0  0  0
    2.0490    3.0000    0.0000 C   0  0  0  0  0  0  0  0  0  0  0  0
    5.9462    2.2500    0.0000 C   0  0  0  0  0  0  0  0  0  0  0  0
    3.3481    2.2500    0.0000 C   0  0  0  0  0  0  0  0  0  0  0  0
    0.7500    5.2500    0.0000 O   0  0  0  0  0  0  0  0  0  0  0  0
    3.3481    6.7500    0.0000 O   0  0  0  0  0  0  0  0  0  0  0  0
    3.3481    0.7500    0.0000 C   0  0  0  0  0  0  0  0  0  0  0  0
    4.6471    6.0000    0.0000 C   0  0  0  0  0  0  0  0  0  0  0  0
    4.9222    7.8461    0.0000 O   0  0  0  0  0  0  0  0  0  0  0  0
    7.2452    9.0000    0.0000 O   0  0  0  0  0  0  0  0  0  0  0  0
    9.8433    7.5000    0.0000 C   0  0  0  0  0  0  0  0  0  0  0  0
   11.1423    5.2500    0.0000 O   0  0  0  0  0  0  0  0  0  0  0  0
  1  5  1  0  0  0  0
  1 11  1  0  0  0  0
  2 15  1  0  0  0  0
  2 16  1  0  0  0  0
  3 15  2  0  0  0  0
  4  5  1  0  0  0  0
  4  6  1  0  0  0  0
  4 26  1  0  0  0  0
  5  8  1  0  0  0  0
  5 25  1  0  0  0  0
  6  7  1  0  0  0  0
  6 27  1  0  0  0  0
  7  9  1  0  0  0  0
  7 10  1  0  0  0  0
  8 10  1  0  0  0  0
  8 12  1  0  0  0  0
  9 15  1  0  0  0  0
  9 28  1  0  0  0  0
 10 11  1  0  0  0  0
 10 16  1  0  0  0  0
 12 13  1  0  0  0  0
 12 17  1  0  0  0  0
 12 24  1  0  0  0  0
 13 14  1  0  0  0  0
 13 22  1  0  0  0  0
 14 18  1  0  0  0  0
 14 21  1  0  0  0  0
 16 19  1  0  0  0  0
 17 19  1  0  0  0  0
 17 20  1  0  0  0  0
 18 20  2  0  0  0  0
 20 23  1  0  0  0  0
M  END
