53934
 OpenBabel03021519512D

 21 22  0  0  0  0  0  0  0  0999 V2000
  -10.0471   -1.0654    0.0000 N   0  0  0  0  0  0  0  0  0  0  0  0
   -3.4243    0.8982    0.0000 O   0  0  0  0  0  0  0  0  0  0  0  0
   -6.1500    1.1846    0.0000 C   0  0  0  0  0  0  0  0  0  0  0  0
   -4.8509    0.4346    0.0000 C   0  0  0  0  0  0  0  0  0  0  0  0
   -7.4490    0.4346    0.0000 C   0  0  0  0  0  0  0  0  0  0  0  0
   -4.8509   -1.0654    0.0000 C   0  0  0  0  0  0  0  0  0  0  0  0
   -7.4490   -1.0654    0.0000 C   0  0  0  0  0  0  0  0  0  0  0  0
   -6.1500   -1.8154    0.0000 C   0  0  0  0  0  0  0  0  0  0  0  0
   -3.4243   -1.5289    0.0000 C   0  0  0  0  0  0  0  0  0  0  0  0
   -2.5427   -0.3154    0.0000 C   0  0  0  0  0  0  0  0  0  0  0  0
  -12.6452   -4.0654    0.0000 N   0  0  0  0  0  0  0  0  0  0  0  0
  -11.3461   -3.3154    0.0000 C   0  0  0  0  0  0  0  0  0  0  0  0
  -10.0471   -4.0654    0.0000 O   0  0  0  0  0  0  0  0  0  0  0  0
  -11.3461   -1.8154    0.0000 N   0  0  0  0  0  0  0  0  0  0  0  0
   -8.7480    1.1846    0.0000 O   0  0  0  0  0  0  0  0  0  0  0  0
   -8.7480    2.6846    0.0000 C   0  0  0  0  0  0  0  0  0  0  0  0
   -8.7480   -1.8154    0.0000 C   0  0  0  0  0  0  0  0  0  0  0  0
   -6.1500    2.6846    0.0000 O   0  0  0  0  0  0  0  0  0  0  0  0
   -7.4490    3.4346    0.0000 C   0  0  0  0  0  0  0  0  0  0  0  0
   -6.1500   -3.3154    0.0000 O   0  0  0  0  0  0  0  0  0  0  0  0
   -7.4490   -4.0654    0.0000 C   0  0  0  0  0  0  0  0  0  0  0  0
  1 14  1  0  0  0  0
  1 17  2  0  0  0  0
  2  4  1  0  0  0  0
  2 10  1  0  0  0  0
  3  5  2  0  0  0  0
  3  4  1  0  0  0  0
  3 18  1  0  0  0  0
  4  6  2  0  0  0  0
  5  7  1  0  0  0  0
  5 15  1  0  0  0  0
  6  8  1  0  0  0  0
  6  9  1  0  0  0  0
  7  8  2  0  0  0  0
  7 17  1  0  0  0  0
  8 20  1  0  0  0  0
  9 10  1  0  0  0  0
 11 12  1  0  0  0  0
 12 13  2  0  0  0  0
 12 14  1  0  0  0  0
 15 16  1  0  0  0  0
 18 19  1  0  0  0  0
 20 21  1  0  0  0  0
M  END
