79538
 OpenBabel03021519512D

 15 16  0  0  0  0  0  0  0  0999 V2000
    3.5367   -0.5419    0.0000 N   0  0  0  0  0  0  0  0  0  0  0  0
    4.5404   -1.6566    0.0000 N   0  0  0  0  0  0  0  0  0  0  0  0
    5.9107   -1.0465    0.0000 N   0  0  0  0  0  0  0  0  0  0  0  0
    5.7539    0.4453    0.0000 C   0  0  0  0  0  0  0  0  0  0  0  0
    4.2867    0.7571    0.0000 C   0  0  0  0  0  0  0  0  0  0  0  0
    8.5088   -1.0465    0.0000 C   0  0  0  0  0  0  0  0  0  0  0  0
    7.2098   -1.7965    0.0000 C   0  0  0  0  0  0  0  0  0  0  0  0
    9.8078   -1.7965    0.0000 C   0  0  0  0  0  0  0  0  0  0  0  0
    9.8078   -3.2965    0.0000 C   0  0  0  0  0  0  0  0  0  0  0  0
    7.2098   -3.2965    0.0000 C   0  0  0  0  0  0  0  0  0  0  0  0
    8.5088   -4.0465    0.0000 C   0  0  0  0  0  0  0  0  0  0  0  0
    3.6766    2.1274    0.0000 C   0  0  0  0  0  0  0  0  0  0  0  0
    2.1848    2.2842    0.0000 O   0  0  0  0  0  0  0  0  0  0  0  0
    6.8686    1.4490    0.0000 C   0  0  0  0  0  0  0  0  0  0  0  0
    6.5568    2.9162    0.0000 O   0  0  0  0  0  0  0  0  0  0  0  0
  1  2  2  0  0  0  0
  1  5  1  0  0  0  0
  2  3  1  0  0  0  0
  3  4  1  0  0  0  0
  3  7  1  0  0  0  0
  4  5  2  0  0  0  0
  4 14  1  0  0  0  0
  5 12  1  0  0  0  0
  6  8  2  0  0  0  0
  6  7  1  0  0  0  0
  7 10  2  0  0  0  0
  8  9  1  0  0  0  0
  9 11  2  0  0  0  0
 10 11  1  0  0  0  0
 12 13  1  0  0  0  0
 14 15  1  0  0  0  0
M  END
