81915
 OpenBabel03021519512D

 21 21  0  0  0  0  0  0  0  0999 V2000
   -0.2745    5.5245    0.0000 N   0  0  0  0  0  0  0  0  0  0  0  0
    1.0245    3.2745    0.0000 N   0  0  0  0  0  0  0  0  0  0  0  0
    2.3236   11.5245    0.0000 Br  0  0  0  0  0  0  0  0  0  0  0  0
    1.0245    7.7745    0.0000 C   0  0  0  0  0  0  0  0  0  0  0  0
    1.0245    9.2745    0.0000 C   0  0  0  0  0  0  0  0  0  0  0  0
    2.3236    7.0245    0.0000 C   0  0  0  0  0  0  0  0  0  0  0  0
    2.3236   10.0245    0.0000 C   0  0  0  0  0  0  0  0  0  0  0  0
    3.6226    7.7745    0.0000 C   0  0  0  0  0  0  0  0  0  0  0  0
    3.6226    9.2745    0.0000 C   0  0  0  0  0  0  0  0  0  0  0  0
    1.0245    4.7745    0.0000 C   0  0  0  0  0  0  0  0  0  0  0  0
   -1.5736    4.7745    0.0000 C   0  0  0  0  0  0  0  0  0  0  0  0
   -1.5736    3.2745    0.0000 C   0  0  0  0  0  0  0  0  0  0  0  0
   -0.2745    2.5245    0.0000 C   0  0  0  0  0  0  0  0  0  0  0  0
   -2.6986    8.4240    0.0000 S   0  0  0  0  0  0  0  0  0  0  0  0
   -2.6986    9.9240    0.0000 O   0  0  0  0  0  0  0  0  0  0  0  0
   -4.1986    8.4240    0.0000 O   0  0  0  0  0  0  0  0  0  0  0  0
   -2.6986    6.9240    0.0000 O   0  0  0  0  0  0  0  0  0  0  0  0
   -1.1986    8.4240    0.0000 O   0  0  0  0  0  0  0  0  0  0  0  0
   -2.8726    2.5245    0.0000 N   0  0  0  0  0  0  0  0  0  0  0  0
   -0.2745    1.0245    0.0000 N   0  0  0  0  0  0  0  0  0  0  0  0
    2.3236    5.5245    0.0000 N   0  0  0  0  0  0  0  0  0  0  0  0
  1 10  2  0  0  0  0
  1 11  1  0  0  0  0
  2 13  2  0  0  0  0
  2 10  1  0  0  0  0
  3  7  1  0  0  0  0
  4  5  2  0  0  0  0
  4  6  1  0  0  0  0
  5  7  1  0  0  0  0
  6  8  2  0  0  0  0
  6 21  1  0  0  0  0
  7  9  2  0  0  0  0
  8  9  1  0  0  0  0
 10 21  1  0  0  0  0
 11 12  2  0  0  0  0
 12 13  1  0  0  0  0
 12 19  1  0  0  0  0
 13 20  1  0  0  0  0
 14 15  2  0  0  0  0
 14 16  1  0  0  0  0
 14 17  2  0  0  0  0
 14 18  1  0  0  0  0
M  END
