329250
 OpenBabel03021519512D

 23 25  0  0  0  0  0  0  0  0999 V2000
   -1.7523    6.0351    0.0000 C   0  0  0  0  0  0  0  0  0  0  0  0
   -1.7523    4.5351    0.0000 C   0  0  0  0  0  0  0  0  0  0  0  0
   -0.4532    6.7851    0.0000 C   0  0  0  0  0  0  0  0  0  0  0  0
   -0.4532    3.7851    0.0000 C   0  0  0  0  0  0  0  0  0  0  0  0
    0.8458    6.0351    0.0000 C   0  0  0  0  0  0  0  0  0  0  0  0
    0.8458    4.5351    0.0000 C   0  0  0  0  0  0  0  0  0  0  0  0
    2.2724    4.0715    0.0000 S   0  0  0  0  0  0  0  0  0  0  0  0
    2.2724    6.4986    0.0000 N   0  0  0  0  0  0  0  0  0  0  0  0
    3.1541    5.2851    0.0000 C   0  0  0  0  0  0  0  0  0  0  0  0
    5.4041    6.5841    0.0000 C   0  0  0  0  0  0  0  0  0  0  0  0
    4.6541    7.8831    0.0000 O   0  0  0  0  0  0  0  0  0  0  0  0
    7.6541    7.8831    0.0000 C   0  0  0  0  0  0  0  0  0  0  0  0
    9.9041    6.5841    0.0000 Cl  0  0  0  0  0  0  0  0  0  0  0  0
    9.1541    7.8831    0.0000 C   0  0  0  0  0  0  0  0  0  0  0  0
    6.9041    9.1822    0.0000 C   0  0  0  0  0  0  0  0  0  0  0  0
    9.9041    9.1822    0.0000 C   0  0  0  0  0  0  0  0  0  0  0  0
    7.6541   10.4812    0.0000 C   0  0  0  0  0  0  0  0  0  0  0  0
    9.1541   10.4812    0.0000 C   0  0  0  0  0  0  0  0  0  0  0  0
    4.6541    5.2851    0.0000 N   0  0  0  0  0  0  0  0  0  0  0  0
    6.9041    6.5841    0.0000 N   0  0  0  0  0  0  0  0  0  0  0  0
    9.9041   11.7802    0.0000 N   0  3  0  0  0  0  0  0  0  0  0  0
    9.1541   13.0793    0.0000 O   0  5  0  0  0  0  0  0  0  0  0  0
   11.4041   11.7802    0.0000 O   0  0  0  0  0  0  0  0  0  0  0  0
  1  3  2  0  0  0  0
  1  2  1  0  0  0  0
  2  4  2  0  0  0  0
  3  5  1  0  0  0  0
  4  6  1  0  0  0  0
  5  8  1  0  0  0  0
  5  6  2  0  0  0  0
  6  7  1  0  0  0  0
  7  9  1  0  0  0  0
  8  9  2  0  0  0  0
  9 19  1  0  0  0  0
 10 11  2  0  0  0  0
 10 19  1  0  0  0  0
 10 20  1  0  0  0  0
 12 15  2  0  0  0  0
 12 14  1  0  0  0  0
 12 20  1  0  0  0  0
 13 14  1  0  0  0  0
 14 16  2  0  0  0  0
 15 17  1  0  0  0  0
 16 18  1  0  0  0  0
 17 18  2  0  0  0  0
 18 21  1  0  0  0  0
 21 22  1  0  0  0  0
 21 23  2  0  0  0  0
M  CHG  2  21   1  22  -1
M  END
