21970
 OpenBabel03021519512D

 21 25  0  0  0  0  0  0  0  0999 V2000
    9.4998    5.6167    0.0000 C   0  0  0  0  0  0  0  0  0  0  0  0
    9.4998    4.0032    0.0000 C   0  0  0  0  0  0  0  0  0  0  0  0
    8.1528    6.2766    0.0000 C   0  0  0  0  0  0  0  0  0  0  0  0
    7.1667    5.1463    0.0000 C   0  0  0  0  0  0  0  0  0  0  0  0
    8.0033    3.9012    0.0000 C   0  0  0  0  0  0  0  0  0  0  0  0
   10.3364    2.7582    0.0000 C   0  0  0  0  0  0  0  0  0  0  0  0
    5.6702    5.0443    0.0000 C   0  0  0  0  0  0  0  0  0  0  0  0
    4.8336    6.2893    0.0000 C   0  0  0  0  0  0  0  0  0  0  0  0
    3.3370    6.1874    0.0000 C   0  0  0  0  0  0  0  0  0  0  0  0
    9.6765    1.4112    0.0000 C   0  0  0  0  0  0  0  0  0  0  0  0
    7.3433    2.5542    0.0000 C   0  0  0  0  0  0  0  0  0  0  0  0
    5.0102    3.6973    0.0000 C   0  0  0  0  0  0  0  0  0  0  0  0
    2.6771    4.8403    0.0000 C   0  0  0  0  0  0  0  0  0  0  0  0
    8.1799    1.3092    0.0000 C   0  0  0  0  0  0  0  0  0  0  0  0
    5.8468    2.4522    0.0000 C   0  0  0  0  0  0  0  0  0  0  0  0
    3.5137    3.5953    0.0000 C   0  0  0  0  0  0  0  0  0  0  0  0
    1.1806    4.7384    0.0000 C   0  0  0  0  0  0  0  0  0  0  0  0
    2.8537    2.2483    0.0000 C   0  0  0  0  0  0  0  0  0  0  0  0
    0.5206    3.3913    0.0000 C   0  0  0  0  0  0  0  0  0  0  0  0
    1.3572    2.1463    0.0000 C   0  0  0  0  0  0  0  0  0  0  0  0
   11.8329    2.8602    0.0000 C   0  0  0  0  0  0  0  0  0  0  0  0
  1  2  1  0  0  0  0
  1  3  1  0  0  0  0
  2  5  2  0  0  0  0
  2  6  1  0  0  0  0
  3  4  1  0  0  0  0
  4  7  2  0  0  0  0
  4  5  1  0  0  0  0
  5 11  1  0  0  0  0
  6 10  2  0  0  0  0
  6 21  1  0  0  0  0
  7  8  1  0  0  0  0
  7 12  1  0  0  0  0
  8  9  2  0  0  0  0
  9 13  1  0  0  0  0
 10 14  1  0  0  0  0
 11 14  2  0  0  0  0
 11 15  1  0  0  0  0
 12 15  2  0  0  0  0
 12 16  1  0  0  0  0
 13 16  2  0  0  0  0
 13 17  1  0  0  0  0
 16 18  1  0  0  0  0
 17 19  2  0  0  0  0
 18 20  2  0  0  0  0
 19 20  1  0  0  0  0
M  END
