380279
 OpenBabel03021519512D

 20 22  0  0  0  0  0  0  0  0999 V2000
    8.0238    5.5587    0.0000 C   0  0  0  0  0  0  0  0  0  0  0  0
    9.4504    5.0952    0.0000 C   0  0  0  0  0  0  0  0  0  0  0  0
    5.6421    4.3452    0.0000 C   0  0  0  0  0  0  0  0  0  0  0  0
    3.3338    5.0952    0.0000 C   0  0  0  0  0  0  0  0  0  0  0  0
   10.6639    2.7135    0.0000 C   0  0  0  0  0  0  0  0  0  0  0  0
    8.0238    3.1317    0.0000 C   0  0  0  0  0  0  0  0  0  0  0  0
    3.3338    3.5952    0.0000 C   0  0  0  0  0  0  0  0  0  0  0  0
   12.0905    0.7500    0.0000 C   0  0  0  0  0  0  0  0  0  0  0  0
    4.7604    3.1317    0.0000 N   0  0  0  0  0  0  0  0  0  0  0  0
    4.7604    5.5587    0.0000 N   0  0  0  0  0  0  0  0  0  0  0  0
    7.5603    1.7051    0.0000 O   0  0  0  0  0  0  0  0  0  0  0  0
    7.1421    4.3452    0.0000 N   0  0  0  0  0  0  0  0  0  0  0  0
    9.4504    3.5952    0.0000 N   0  0  0  0  0  0  0  0  0  0  0  0
   10.6639    1.2135    0.0000 S   0  0  0  0  0  0  0  0  0  0  0  0
   12.0905    3.1771    0.0000 N   0  0  0  0  0  0  0  0  0  0  0  0
   12.9722    1.9635    0.0000 N   0  0  0  0  0  0  0  0  0  0  0  0
    2.1203    2.7135    0.0000 N   0  3  0  0  0  0  0  0  0  0  0  0
    0.7500    3.3236    0.0000 O   0  5  0  0  0  0  0  0  0  0  0  0
    2.2771    1.2218    0.0000 O   0  0  0  0  0  0  0  0  0  0  0  0
    5.2240    1.7051    0.0000 C   0  0  0  0  0  0  0  0  0  0  0  0
  1  2  1  0  0  0  0
  1 12  1  0  0  0  0
  2 13  1  0  0  0  0
  3 10  2  0  0  0  0
  3 12  1  0  0  0  0
  3  9  1  0  0  0  0
  4 10  1  0  0  0  0
  4  7  2  0  0  0  0
  5 13  1  0  0  0  0
  5 14  1  0  0  0  0
  5 15  2  0  0  0  0
  6 12  1  0  0  0  0
  6 13  1  0  0  0  0
  6 11  2  0  0  0  0
  7  9  1  0  0  0  0
  7 17  1  0  0  0  0
  8 16  2  0  0  0  0
  8 14  1  0  0  0  0
  9 20  1  0  0  0  0
 15 16  1  0  0  0  0
 17 18  1  0  0  0  0
 17 19  2  0  0  0  0
M  CHG  2  17   1  18  -1
M  END
