134137
 OpenBabel03021519512D

 26 28  0  0  0  0  0  0  0  0999 V2000
    4.2721   -5.8995    0.0000 N   0  0  0  0  0  0  0  0  0  0  0  0
    5.5712   -6.6495    0.0000 N   0  0  0  0  0  0  0  0  0  0  0  0
   -0.4693   -8.6370    0.0000 C   0  0  0  0  0  0  0  0  0  0  0  0
    0.8297   -9.3870    0.0000 C   0  0  0  0  0  0  0  0  0  0  0  0
   -0.4694   -7.1370    0.0000 C   0  0  0  0  0  0  0  0  0  0  0  0
    0.8297   -6.3870    0.0000 C   0  0  0  0  0  0  0  0  0  0  0  0
    2.1287   -8.6370    0.0000 C   0  0  0  0  0  0  0  0  0  0  0  0
    2.1287   -7.1370    0.0000 C   0  0  0  0  0  0  0  0  0  0  0  0
    6.8702   -5.8995    0.0000 C   0  0  0  0  0  0  0  0  0  0  0  0
    8.1693   -6.6495    0.0000 C   0  0  0  0  0  0  0  0  0  0  0  0
    6.8702   -4.3995    0.0000 C   0  0  0  0  0  0  0  0  0  0  0  0
    8.1693   -8.1495    0.0000 C   0  0  0  0  0  0  0  0  0  0  0  0
    9.4683   -8.8995    0.0000 C   0  0  0  0  0  0  0  0  0  0  0  0
    8.1692   -3.6495    0.0000 C   0  0  0  0  0  0  0  0  0  0  0  0
    9.4683   -5.8995    0.0000 C   0  0  0  0  0  0  0  0  0  0  0  0
   10.7673   -8.1495    0.0000 C   0  0  0  0  0  0  0  0  0  0  0  0
    9.4683   -4.3995    0.0000 C   0  0  0  0  0  0  0  0  0  0  0  0
   10.7673   -6.6495    0.0000 C   0  0  0  0  0  0  0  0  0  0  0  0
   -1.7684   -9.3870    0.0000 S   0  0  0  0  0  0  0  0  0  0  0  0
   -1.0184  -10.6861    0.0000 O   0  0  0  0  0  0  0  0  0  0  0  0
   -3.0674  -10.1370    0.0000 O   0  0  0  0  0  0  0  0  0  0  0  0
   -2.5184   -8.0880    0.0000 N   0  0  0  0  0  0  0  0  0  0  0  0
    5.5712   -3.6495    0.0000 O   0  0  0  0  0  0  0  0  0  0  0  0
    8.1692   -2.1495    0.0000 C   0  0  0  0  0  0  0  0  0  0  0  0
    6.8702   -1.3995    0.0000 O   0  0  0  0  0  0  0  0  0  0  0  0
    9.4683   -1.3995    0.0000 O   0  0  0  0  0  0  0  0  0  0  0  0
  1  2  2  0  0  0  0
  1  8  1  0  0  0  0
  2  9  1  0  0  0  0
  3  5  2  0  0  0  0
  3  4  1  0  0  0  0
  3 19  1  0  0  0  0
  4  7  2  0  0  0  0
  5  6  1  0  0  0  0
  6  8  2  0  0  0  0
  7  8  1  0  0  0  0
  9 11  2  0  0  0  0
  9 10  1  0  0  0  0
 10 15  2  0  0  0  0
 10 12  1  0  0  0  0
 11 14  1  0  0  0  0
 11 23  1  0  0  0  0
 12 13  2  0  0  0  0
 13 16  1  0  0  0  0
 14 17  2  0  0  0  0
 14 24  1  0  0  0  0
 15 18  1  0  0  0  0
 15 17  1  0  0  0  0
 16 18  2  0  0  0  0
 19 20  2  0  0  0  0
 19 21  2  0  0  0  0
 19 22  1  0  0  0  0
 24 25  2  0  0  0  0
 24 26  1  0  0  0  0
M  END
