177407
 OpenBabel03021519512D

 22 24  0  0  0  0  0  0  0  0999 V2000
   -9.2076   -9.0260    0.0000 Cl  0  0  0  0  0  0  0  0  0  0  0  0
   -7.4442  -11.4530    0.0000 Cl  0  0  0  0  0  0  0  0  0  0  0  0
   -7.1057   -7.4989    0.0000 N   0  0  0  0  0  0  0  0  0  0  0  0
   -5.3423   -9.9259    0.0000 N   0  0  0  0  0  0  0  0  0  0  0  0
   -5.1957   -4.7020    0.0000 H   0  0  0  0  0  0  0  0  0  0  0  0
   -4.7322   -6.1286    0.0000 N   0  0  0  0  0  0  0  0  0  0  0  0
   -3.3056   -8.0921    0.0000 N   0  0  0  0  0  0  0  0  0  0  0  0
   -2.2489   -4.2186    0.0000 C   0  0  0  0  0  0  0  0  0  0  0  0
   -1.0354   -3.3369    0.0000 C   0  0  0  0  0  0  0  0  0  0  0  0
   -2.0921   -5.7104    0.0000 C   0  0  0  0  0  0  0  0  0  0  0  0
    0.3349   -3.9470    0.0000 C   0  0  0  0  0  0  0  0  0  0  0  0
   -0.7218   -6.3205    0.0000 C   0  0  0  0  0  0  0  0  0  0  0  0
   -3.3056   -6.5921    0.0000 C   0  0  0  0  0  0  0  0  0  0  0  0
    0.4917   -5.4388    0.0000 C   0  0  0  0  0  0  0  0  0  0  0  0
   -7.7158   -8.8692    0.0000 C   0  0  0  0  0  0  0  0  0  0  0  0
   -6.8341  -10.0827    0.0000 C   0  0  0  0  0  0  0  0  0  0  0  0
   -5.6139   -7.3421    0.0000 C   0  0  0  0  0  0  0  0  0  0  0  0
   -4.7322   -8.5556    0.0000 C   0  0  0  0  0  0  0  0  0  0  0  0
    1.8621   -6.0489    0.0000 C   0  0  0  0  0  0  0  0  0  0  0  0
    1.2520   -7.4193    0.0000 F   0  0  0  0  0  0  0  0  0  0  0  0
    3.2324   -6.6590    0.0000 F   0  0  0  0  0  0  0  0  0  0  0  0
    2.4722   -4.6786    0.0000 F   0  0  0  0  0  0  0  0  0  0  0  0
  1 15  1  0  0  0  0
  2 16  1  0  0  0  0
  3 15  2  0  0  0  0
  3 17  1  0  0  0  0
  4 16  2  0  0  0  0
  4 18  1  0  0  0  0
  5  6  1  0  0  0  0
  6 13  1  0  0  0  0
  6 17  1  0  0  0  0
  7 13  2  0  0  0  0
  7 18  1  0  0  0  0
  8  9  2  0  0  0  0
  8 10  1  0  0  0  0
  9 11  1  0  0  0  0
 10 12  2  0  0  0  0
 10 13  1  0  0  0  0
 11 14  2  0  0  0  0
 12 14  1  0  0  0  0
 14 19  1  0  0  0  0
 15 16  1  0  0  0  0
 17 18  2  0  0  0  0
 19 20  1  0  0  0  0
 19 21  1  0  0  0  0
 19 22  1  0  0  0  0
M  END
