203837
 OpenBabel03021519512D

 20 22  0  0  0  0  0  0  0  0999 V2000
   -0.4392   -0.4463    0.0000 O   0  0  0  0  0  0  0  0  0  0  0  0
   -1.9064   -0.7582    0.0000 N   0  0  0  0  0  0  0  0  0  0  0  0
    0.3108   -1.7454    0.0000 C   0  0  0  0  0  0  0  0  0  0  0  0
   -0.6929   -2.8601    0.0000 C   0  0  0  0  0  0  0  0  0  0  0  0
   -2.0632   -2.2500    0.0000 C   0  0  0  0  0  0  0  0  0  0  0  0
   -5.9603   -4.5000    0.0000 C   0  0  0  0  0  0  0  0  0  0  0  0
   -7.2594   -5.2500    0.0000 C   0  0  0  0  0  0  0  0  0  0  0  0
   -4.6613   -5.2500    0.0000 C   0  0  0  0  0  0  0  0  0  0  0  0
   -8.5584   -4.5000    0.0000 C   0  0  0  0  0  0  0  0  0  0  0  0
   -9.8575   -5.2500    0.0000 C   0  0  0  0  0  0  0  0  0  0  0  0
   -4.6613   -6.7500    0.0000 C   0  0  0  0  0  0  0  0  0  0  0  0
   -7.2594   -6.7500    0.0000 C   0  0  0  0  0  0  0  0  0  0  0  0
   -9.8575   -6.7500    0.0000 C   0  0  0  0  0  0  0  0  0  0  0  0
   -5.9603   -7.5000    0.0000 C   0  0  0  0  0  0  0  0  0  0  0  0
   -8.5584   -7.5000    0.0000 C   0  0  0  0  0  0  0  0  0  0  0  0
    1.8026   -1.9022    0.0000 C   0  0  0  0  0  0  0  0  0  0  0  0
   -3.3623   -3.0000    0.0000 N   0  0  0  0  0  0  0  0  0  0  0  0
   -4.6613   -2.2500    0.0000 C   0  0  0  0  0  0  0  0  0  0  0  0
   -4.6613   -0.7500    0.0000 O   0  0  0  0  0  0  0  0  0  0  0  0
   -5.9603   -3.0000    0.0000 N   0  0  0  0  0  0  0  0  0  0  0  0
  1  2  1  0  0  0  0
  1  3  1  0  0  0  0
  2  5  2  0  0  0  0
  3  4  2  0  0  0  0
  3 16  1  0  0  0  0
  4  5  1  0  0  0  0
  5 17  1  0  0  0  0
  6  8  2  0  0  0  0
  6  7  1  0  0  0  0
  6 20  1  0  0  0  0
  7 12  2  0  0  0  0
  7  9  1  0  0  0  0
  8 11  1  0  0  0  0
  9 10  2  0  0  0  0
 10 13  1  0  0  0  0
 11 14  2  0  0  0  0
 12 14  1  0  0  0  0
 12 15  1  0  0  0  0
 13 15  2  0  0  0  0
 17 18  1  0  0  0  0
 18 19  2  0  0  0  0
 18 20  1  0  0  0  0
M  END
