101777
 OpenBabel03021519512D

 16 17  0  0  1  0  0  0  0  0999 V2000
   -6.6656   -1.4095    0.0000 O   0  0  0  0  0  0  0  0  0  0  0  0
   -5.3665   -3.6595    0.0000 O   0  0  0  0  0  0  0  0  0  0  0  0
   -5.3665   -2.1595    0.0000 P   0  0  3  0  0  0  0  0  0  0  0  0
   -4.8535   -0.7500    0.0000 O   0  0  0  0  0  0  0  0  0  0  0  0
   -3.8893   -2.4200    0.0000 N   0  0  3  0  0  0  0  0  0  0  0  0
   -2.4798   -1.9070    0.0000 C   0  0  0  0  0  0  0  0  0  0  0  0
   -2.7402   -3.3842    0.0000 C   0  0  3  0  0  0  0  0  0  0  0  0
   -7.9646   -2.1596    0.0000 C   0  0  0  0  0  0  0  0  0  0  0  0
   -7.9646   -3.6596    0.0000 C   0  0  3  0  0  0  0  0  0  0  0  0
   -6.6656   -4.4095    0.0000 C   0  0  0  0  0  0  0  0  0  0  0  0
   -9.4418   -3.3991    0.0000 N   0  3  0  0  0  0  0  0  0  0  0  0
   -9.9548   -1.9895    0.0000 O   0  5  0  0  0  0  0  0  0  0  0  0
  -10.4060   -4.5482    0.0000 O   0  0  0  0  0  0  0  0  0  0  0  0
   -8.4776   -5.0691    0.0000 C   0  0  0  0  0  0  0  0  0  0  0  0
   -2.2272   -4.7937    0.0000 C   0  0  0  0  0  0  0  0  0  0  0  0
   -0.7500   -5.0542    0.0000 C   0  0  0  0  0  0  0  0  0  0  0  0
  1  3  1  0  0  0  0
  1  8  1  0  0  0  0
  2  3  1  0  0  0  0
  2 10  1  0  0  0  0
  3  4  2  0  0  0  0
  3  5  1  0  0  0  0
  5  6  1  0  0  0  0
  5  7  1  0  0  0  0
  6  7  1  0  0  0  0
  7 15  1  0  0  0  0
  8  9  1  0  0  0  0
  9 10  1  0  0  0  0
  9 11  1  0  0  0  0
  9 14  1  0  0  0  0
 11 12  1  0  0  0  0
 11 13  2  0  0  0  0
 15 16  1  0  0  0  0
M  CHG  2  11   1  12  -1
M  END
