55152
 OpenBabel03021519512D

 26 28  0  0  0  0  0  0  0  0999 V2000
    2.2500    2.0490    0.0000 C   0  0  0  0  0  0  0  0  0  0  0  0
    3.0000    3.3481    0.0000 C   0  0  0  0  0  0  0  0  0  0  0  0
    3.0000    0.7500    0.0000 C   0  0  0  0  0  0  0  0  0  0  0  0
    4.5000    0.7500    0.0000 C   0  0  0  0  0  0  0  0  0  0  0  0
    4.5000    3.3481    0.0000 C   0  0  0  0  0  0  0  0  0  0  0  0
    5.2500    2.0490    0.0000 C   0  0  0  0  0  0  0  0  0  0  0  0
    7.5000    3.3481    0.0000 C   0  0  0  0  0  0  0  0  0  0  0  0
    6.7500    4.6471    0.0000 O   0  0  0  0  0  0  0  0  0  0  0  0
    9.0000    3.3481    0.0000 C   0  0  0  0  0  0  0  0  0  0  0  0
    9.7500    2.0490    0.0000 C   0  0  0  0  0  0  0  0  0  0  0  0
    9.7500    4.6471    0.0000 C   0  0  0  0  0  0  0  0  0  0  0  0
   11.2500    4.6471    0.0000 C   0  0  0  0  0  0  0  0  0  0  0  0
   11.2500    2.0490    0.0000 C   0  0  0  0  0  0  0  0  0  0  0  0
   12.0000    3.3481    0.0000 C   0  0  0  0  0  0  0  0  0  0  0  0
   14.2500    4.6471    0.0000 O   0  0  0  0  0  0  0  0  0  0  0  0
   13.5000    3.3481    0.0000 C   0  0  0  0  0  0  0  0  0  0  0  0
   15.7500    2.0491    0.0000 C   0  0  0  0  0  0  0  0  0  0  0  0
   16.5000    0.7500    0.0000 C   0  0  0  0  0  0  0  0  0  0  0  0
   16.5000    3.3481    0.0000 C   0  0  0  0  0  0  0  0  0  0  0  0
   18.0000    3.3481    0.0000 C   0  0  0  0  0  0  0  0  0  0  0  0
   18.0000    0.7500    0.0000 C   0  0  0  0  0  0  0  0  0  0  0  0
   18.7500    2.0491    0.0000 C   0  0  0  0  0  0  0  0  0  0  0  0
    0.7500    2.0490    0.0000 N   0  0  0  0  0  0  0  0  0  0  0  0
    6.7500    2.0490    0.0000 N   0  0  0  0  0  0  0  0  0  0  0  0
   14.2500    2.0491    0.0000 N   0  0  0  0  0  0  0  0  0  0  0  0
   20.2500    2.0491    0.0000 N   0  0  0  0  0  0  0  0  0  0  0  0
  1  2  1  0  0  0  0
  1  3  2  0  0  0  0
  1 23  1  0  0  0  0
  2  5  2  0  0  0  0
  3  4  1  0  0  0  0
  4  6  2  0  0  0  0
  5  6  1  0  0  0  0
  6 24  1  0  0  0  0
  7  9  1  0  0  0  0
  7  8  2  0  0  0  0
  7 24  1  0  0  0  0
  9 11  1  0  0  0  0
  9 10  2  0  0  0  0
 10 13  1  0  0  0  0
 11 12  2  0  0  0  0
 12 14  1  0  0  0  0
 13 14  2  0  0  0  0
 14 16  1  0  0  0  0
 15 16  2  0  0  0  0
 16 25  1  0  0  0  0
 17 19  1  0  0  0  0
 17 18  2  0  0  0  0
 17 25  1  0  0  0  0
 18 21  1  0  0  0  0
 19 20  2  0  0  0  0
 20 22  1  0  0  0  0
 21 22  2  0  0  0  0
 22 26  1  0  0  0  0
M  END
