319471
 OpenBabel03021519512D

 18 19  0  0  1  0  0  0  0  0999 V2000
   -1.2255    3.6226    0.0000 O   0  0  0  0  0  0  0  0  0  0  0  0
    0.2745    3.6226    0.0000 C   0  0  0  0  0  0  0  0  0  0  0  0
    1.0245    4.9216    0.0000 C   0  0  0  0  0  0  0  0  0  0  0  0
    1.0245    2.3236    0.0000 C   0  0  0  0  0  0  0  0  0  0  0  0
    2.5245    4.9216    0.0000 C   0  0  0  0  0  0  0  0  0  0  0  0
    2.5245    2.3236    0.0000 C   0  0  0  0  0  0  0  0  0  0  0  0
    3.2745    3.6226    0.0000 C   0  0  0  0  0  0  0  0  0  0  0  0
    4.7745    3.6226    0.0000 N   0  0  0  0  0  0  0  0  0  0  0  0
    5.5245    4.9216    0.0000 C   0  0  0  0  0  0  0  0  0  0  0  0
    4.9144    6.2920    0.0000 N   0  0  0  0  0  0  0  0  0  0  0  0
    3.4472    6.6038    0.0000 H   0  0  0  0  0  0  0  0  0  0  0  0
    7.0163    5.0784    0.0000 S   0  0  0  0  0  0  0  0  0  0  0  0
    6.0291    7.2957    0.0000 C   0  0  3  0  0  0  0  0  0  0  0  0
    7.3282    6.5457    0.0000 C   0  0  0  0  0  0  0  0  0  0  0  0
   -1.9755    4.9216    0.0000 C   0  0  0  0  0  0  0  0  0  0  0  0
    6.9108    8.5092    0.0000 C   0  0  0  0  0  0  0  0  0  0  0  0
    4.9144    8.2993    0.0000 C   0  0  0  0  0  0  0  0  0  0  0  0
    3.4878    7.8358    0.0000 O   0  0  0  0  0  0  0  0  0  0  0  0
  1  2  1  0  0  0  0
  1 15  1  0  0  0  0
  2  3  2  0  0  0  0
  2  4  1  0  0  0  0
  3  5  1  0  0  0  0
  4  6  2  0  0  0  0
  5  7  2  0  0  0  0
  6  7  1  0  0  0  0
  7  8  1  0  0  0  0
  8  9  2  0  0  0  0
  9 10  1  0  0  0  0
  9 12  1  0  0  0  0
 10 11  1  0  0  0  0
 10 13  1  0  0  0  0
 12 14  1  0  0  0  0
 13 14  1  0  0  0  0
 13 16  1  0  0  0  0
 13 17  1  0  0  0  0
 17 18  1  0  0  0  0
M  END
