295404
 OpenBabel03021519512D

 16 18  0  0  1  0  0  0  0  0999 V2000
    5.6883    0.5175    0.0000 C   0  0  3  0  0  0  0  0  0  0  0  0
    6.9019    1.3992    0.0000 C   0  0  0  0  0  0  0  0  0  0  0  0
    6.1519   -0.9090    0.0000 S   0  0  0  0  0  0  0  0  0  0  0  0
    8.1154    0.5176    0.0000 N   0  0  0  0  0  0  0  0  0  0  0  0
    7.6519   -0.9090    0.0000 C   0  0  0  0  0  0  0  0  0  0  0  0
    9.5826    0.8294    0.0000 C   0  0  0  0  0  0  0  0  0  0  0  0
    8.6556   -2.0238    0.0000 N   0  0  0  0  0  0  0  0  0  0  0  0
   10.5863   -0.2853    0.0000 C   0  0  0  0  0  0  0  0  0  0  0  0
   10.1228   -1.7119    0.0000 C   0  0  0  0  0  0  0  0  0  0  0  0
   11.1265   -2.8266    0.0000 O   0  0  0  0  0  0  0  0  0  0  0  0
    4.2617    0.9811    0.0000 C   0  0  0  0  0  0  0  0  0  0  0  0
    3.1470   -0.0226    0.0000 C   0  0  0  0  0  0  0  0  0  0  0  0
    1.7204    0.4409    0.0000 C   0  0  0  0  0  0  0  0  0  0  0  0
    1.4086    1.9081    0.0000 C   0  0  0  0  0  0  0  0  0  0  0  0
    2.5233    2.9118    0.0000 C   0  0  0  0  0  0  0  0  0  0  0  0
    3.9499    2.4483    0.0000 C   0  0  0  0  0  0  0  0  0  0  0  0
  1  2  1  0  0  0  0
  1  3  1  0  0  0  0
  1 11  1  0  0  0  0
  2  4  1  0  0  0  0
  3  5  1  0  0  0  0
  4  6  1  0  0  0  0
  4  5  1  0  0  0  0
  5  7  2  0  0  0  0
  6  8  2  0  0  0  0
  7  9  1  0  0  0  0
  8  9  1  0  0  0  0
  9 10  2  0  0  0  0
 11 12  2  0  0  0  0
 11 16  1  0  0  0  0
 12 13  1  0  0  0  0
 13 14  2  0  0  0  0
 14 15  1  0  0  0  0
 15 16  2  0  0  0  0
M  END
