117386
 OpenBabel03021519512D

 13 13  0  0  0  0  0  0  0  0999 V2000
   -2.2364    2.1572    0.0000 H   0  0  0  0  0  0  0  0  0  0  0  0
   -3.6923    4.3990    0.0000 N   0  0  0  0  0  0  0  0  0  0  0  0
   -2.3932    3.6490    0.0000 N   0  0  0  0  0  0  0  0  0  0  0  0
   -3.3804    5.8662    0.0000 N   0  0  0  0  0  0  0  0  0  0  0  0
   -1.8886    6.0230    0.0000 C   0  0  0  0  0  0  0  0  0  0  0  0
   -1.2785    4.6527    0.0000 C   0  0  0  0  0  0  0  0  0  0  0  0
   -1.1386    7.3221    0.0000 C   0  0  0  0  0  0  0  0  0  0  0  0
    0.3614    7.3221    0.0000 C   0  0  0  0  0  0  0  0  0  0  0  0
    1.1114    8.6211    0.0000 C   0  0  0  0  0  0  0  0  0  0  0  0
    2.6114    8.6211    0.0000 O   0  0  0  0  0  0  0  0  0  0  0  0
    0.3614    9.9201    0.0000 O   0  0  0  0  0  0  0  0  0  0  0  0
    1.1114    6.0230    0.0000 N   0  0  0  0  0  0  0  0  0  0  0  0
    2.6114    6.0230    0.0000 O   0  0  0  0  0  0  0  0  0  0  0  0
  1  3  1  0  0  0  0
  2  4  2  0  0  0  0
  2  3  1  0  0  0  0
  3  6  1  0  0  0  0
  4  5  1  0  0  0  0
  5  6  2  0  0  0  0
  5  7  1  0  0  0  0
  7  8  1  0  0  0  0
  8  9  1  0  0  0  0
  8 12  2  0  0  0  0
  9 10  2  0  0  0  0
  9 11  1  0  0  0  0
 12 13  1  0  0  0  0
M  END
