8813
 OpenBabel03021519512D

 17 18  0  0  0  0  0  0  0  0999 V2000
    0.7500    2.2500    0.0000 O   0  0  0  0  0  0  0  0  0  0  0  0
    2.0490    4.5000    0.0000 N   0  0  0  0  0  0  0  0  0  0  0  0
    3.3481    2.2500    0.0000 N   0  0  0  0  0  0  0  0  0  0  0  0
    3.3481    6.7500    0.0000 O   0  0  0  0  0  0  0  0  0  0  0  0
    6.0737    4.9635    0.0000 N   0  0  0  0  0  0  0  0  0  0  0  0
    6.0737    2.5365    0.0000 N   0  0  0  0  0  0  0  0  0  0  0  0
    8.4554    3.7500    0.0000 O   0  0  0  0  0  0  0  0  0  0  0  0
    3.3481    5.2500    0.0000 C   0  0  0  0  0  0  0  0  0  0  0  0
    4.6471    4.5000    0.0000 C   0  0  0  0  0  0  0  0  0  0  0  0
    4.6471    3.0000    0.0000 C   0  0  0  0  0  0  0  0  0  0  0  0
    6.9554    3.7500    0.0000 C   0  0  0  0  0  0  0  0  0  0  0  0
    2.0490    3.0000    0.0000 C   0  0  0  0  0  0  0  0  0  0  0  0
    0.7500    5.2500    0.0000 C   0  0  0  0  0  0  0  0  0  0  0  0
    3.3481    0.7500    0.0000 C   0  0  0  0  0  0  0  0  0  0  0  0
    6.5372    6.3901    0.0000 C   0  0  0  0  0  0  0  0  0  0  0  0
    6.5372    1.1099    0.0000 C   0  0  0  0  0  0  0  0  0  0  0  0
    8.0045    0.7980    0.0000 C   0  0  0  0  0  0  0  0  0  0  0  0
  1 12  2  0  0  0  0
  2  8  1  0  0  0  0
  2 12  1  0  0  0  0
  2 13  1  0  0  0  0
  3 10  1  0  0  0  0
  3 12  1  0  0  0  0
  3 14  1  0  0  0  0
  4  8  2  0  0  0  0
  5  9  1  0  0  0  0
  5 11  1  0  0  0  0
  5 15  1  0  0  0  0
  6 10  1  0  0  0  0
  6 11  1  0  0  0  0
  6 16  1  0  0  0  0
  7 11  2  0  0  0  0
  8  9  1  0  0  0  0
  9 10  2  0  0  0  0
 16 17  1  0  0  0  0
M  END
