326644
 OpenBabel03021519512D

 19 21  0  0  0  0  0  0  0  0999 V2000
    1.7065   -2.9209    0.0000 C   0  0  0  0  0  0  0  0  0  0  0  0
    1.7065   -4.4209    0.0000 C   0  0  0  0  0  0  0  0  0  0  0  0
    3.1330   -2.4574    0.0000 C   0  0  0  0  0  0  0  0  0  0  0  0
    4.0147   -3.6709    0.0000 N   0  0  0  0  0  0  0  0  0  0  0  0
    3.1330   -4.8844    0.0000 C   0  0  0  0  0  0  0  0  0  0  0  0
    5.5147   -3.6709    0.0000 C   0  0  0  0  0  0  0  0  0  0  0  0
    6.3964   -2.4574    0.0000 C   0  0  0  0  0  0  0  0  0  0  0  0
    4.4657   -6.6229    0.0000 C   0  0  0  0  0  0  0  0  0  0  0  0
    4.0021   -8.0495    0.0000 C   0  0  0  0  0  0  0  0  0  0  0  0
    6.3964   -4.8844    0.0000 N   0  0  0  0  0  0  0  0  0  0  0  0
    5.9329   -6.3110    0.0000 C   0  0  0  0  0  0  0  0  0  0  0  0
    5.0058   -9.1642    0.0000 C   0  0  0  0  0  0  0  0  0  0  0  0
    7.8230   -4.4209    0.0000 N   0  0  0  0  0  0  0  0  0  0  0  0
    6.4731   -8.8523    0.0000 C   0  0  0  0  0  0  0  0  0  0  0  0
    7.8230   -2.9209    0.0000 C   0  0  0  0  0  0  0  0  0  0  0  0
    6.9366   -7.4257    0.0000 C   0  0  0  0  0  0  0  0  0  0  0  0
    7.4768   -9.9670    0.0000 Cl  0  0  0  0  0  0  0  0  0  0  0  0
    5.9329   -1.0308    0.0000 C   0  0  0  0  0  0  0  0  0  0  0  0
    5.4693    0.3958    0.0000 N   0  0  0  0  0  0  0  0  0  0  0  0
  1  3  2  0  0  0  0
  1  2  1  0  0  0  0
  2  5  2  0  0  0  0
  3  4  1  0  0  0  0
  4  6  1  0  0  0  0
  4  5  1  0  0  0  0
  6  7  2  0  0  0  0
  6 10  1  0  0  0  0
  7 15  1  0  0  0  0
  7 18  1  0  0  0  0
  8 11  1  0  0  0  0
  8  9  2  0  0  0  0
  9 12  1  0  0  0  0
 10 13  1  0  0  0  0
 10 11  1  0  0  0  0
 11 16  2  0  0  0  0
 12 14  2  0  0  0  0
 13 15  2  0  0  0  0
 14 16  1  0  0  0  0
 14 17  1  0  0  0  0
 18 19  3  0  0  0  0
M  END
