90749
 OpenBabel03021519512D

 23 24  0  0  0  0  0  0  0  0999 V2000
   -4.2721  -13.3995    0.0000 S   0  0  0  0  0  0  0  0  0  0  0  0
   -4.2721  -10.3995    0.0000 H   0  0  0  0  0  0  0  0  0  0  0  0
   -2.9731  -11.1495    0.0000 N   0  0  0  0  0  0  0  0  0  0  0  0
   -1.6741  -13.3995    0.0000 N   0  0  0  0  0  0  0  0  0  0  0  0
   -1.6741   -8.8995    0.0000 O   0  0  0  0  0  0  0  0  0  0  0  0
   -1.6741  -14.8995    0.0000 H   0  0  0  0  0  0  0  0  0  0  0  0
    0.9240  -13.3995    0.0000 O   0  0  0  0  0  0  0  0  0  0  0  0
   -1.6741  -10.3995    0.0000 C   0  0  0  0  0  0  0  0  0  0  0  0
   -0.3750  -11.1495    0.0000 C   0  0  0  0  0  0  0  0  0  0  0  0
   -0.3750  -12.6495    0.0000 C   0  0  0  0  0  0  0  0  0  0  0  0
    3.5221  -10.3995    0.0000 C   0  0  0  0  0  0  0  0  0  0  0  0
    2.2231  -11.1495    0.0000 C   0  0  0  0  0  0  0  0  0  0  0  0
    4.8211  -11.1495    0.0000 C   0  0  0  0  0  0  0  0  0  0  0  0
    4.8211  -12.6495    0.0000 C   0  0  0  0  0  0  0  0  0  0  0  0
    2.2231  -12.6495    0.0000 C   0  0  0  0  0  0  0  0  0  0  0  0
    3.5221  -13.3995    0.0000 C   0  0  0  0  0  0  0  0  0  0  0  0
   -2.9731  -12.6495    0.0000 C   0  0  0  0  0  0  0  0  0  0  0  0
    0.9240  -10.3995    0.0000 C   0  0  0  0  0  0  0  0  0  0  0  0
    6.1202  -13.3995    0.0000 N   0  0  0  0  0  0  0  0  0  0  0  0
    7.4192  -12.6495    0.0000 C   0  0  0  0  0  0  0  0  0  0  0  0
    8.7182  -13.3995    0.0000 C   0  0  0  0  0  0  0  0  0  0  0  0
    6.1202  -14.8995    0.0000 C   0  0  0  0  0  0  0  0  0  0  0  0
    7.4192  -15.6495    0.0000 C   0  0  0  0  0  0  0  0  0  0  0  0
  1 17  2  0  0  0  0
  2  3  1  0  0  0  0
  3  8  1  0  0  0  0
  3 17  1  0  0  0  0
  4 10  1  0  0  0  0
  4 17  1  0  0  0  0
  4  6  1  0  0  0  0
  5  8  2  0  0  0  0
  7 10  2  0  0  0  0
  8  9  1  0  0  0  0
  9 10  1  0  0  0  0
  9 18  2  0  0  0  0
 11 13  2  0  0  0  0
 11 12  1  0  0  0  0
 12 15  2  0  0  0  0
 12 18  1  0  0  0  0
 13 14  1  0  0  0  0
 14 16  2  0  0  0  0
 14 19  1  0  0  0  0
 15 16  1  0  0  0  0
 19 20  1  0  0  0  0
 19 22  1  0  0  0  0
 20 21  1  0  0  0  0
 22 23  1  0  0  0  0
M  END
