77422
 OpenBabel03021519512D

 14 14  0  0  0  0  0  0  0  0999 V2000
   -6.7697   -4.7745    0.0000 O   0  0  0  0  0  0  0  0  0  0  0  0
   -5.4706   -7.0245    0.0000 N   0  0  0  0  0  0  0  0  0  0  0  0
   -2.8726   -7.0245    0.0000 N   0  0  0  0  0  0  0  0  0  0  0  0
   -1.5735   -7.7745    0.0000 H   0  0  0  0  0  0  0  0  0  0  0  0
   -4.1716   -4.7745    0.0000 C   0  0  0  0  0  0  0  0  0  0  0  0
   -2.8726   -5.5245    0.0000 C   0  0  0  0  0  0  0  0  0  0  0  0
   -5.4706   -5.5245    0.0000 C   0  0  0  0  0  0  0  0  0  0  0  0
   -4.1716   -7.7745    0.0000 C   0  0  0  0  0  0  0  0  0  0  0  0
   -4.1716   -9.2745    0.0000 S   0  0  0  0  0  0  0  0  0  0  0  0
   -5.4706  -10.0245    0.0000 C   0  0  0  0  0  0  0  0  0  0  0  0
   -1.5735   -4.7745    0.0000 C   0  0  0  0  0  0  0  0  0  0  0  0
   -0.2745   -5.5245    0.0000 O   0  0  0  0  0  0  0  0  0  0  0  0
    1.0245   -4.7745    0.0000 C   0  0  0  0  0  0  0  0  0  0  0  0
    2.3236   -5.5245    0.0000 C   0  0  0  0  0  0  0  0  0  0  0  0
  1  7  2  0  0  0  0
  2  8  2  0  0  0  0
  2  7  1  0  0  0  0
  3  6  1  0  0  0  0
  3  8  1  0  0  0  0
  3  4  1  0  0  0  0
  5  6  2  0  0  0  0
  5  7  1  0  0  0  0
  6 11  1  0  0  0  0
  8  9  1  0  0  0  0
  9 10  1  0  0  0  0
 11 12  1  0  0  0  0
 12 13  1  0  0  0  0
 13 14  1  0  0  0  0
M  END
