82269
 OpenBabel03021519512D

 20 22  0  0  1  0  0  0  0  0999 V2000
   -4.3618    0.1154    0.0000 N   0  0  0  0  0  0  0  0  0  0  0  0
   -2.4364   -1.6290    0.0000 N   0  0  0  0  0  0  0  0  0  0  0  0
   -0.6722    1.7886    0.0000 N   0  0  0  0  0  0  0  0  0  0  0  0
   -0.6675    3.2886    0.0000 H   0  0  0  0  0  0  0  0  0  0  0  0
    0.0707   -0.5220    0.0000 N   0  0  0  0  0  0  0  0  0  0  0  0
    4.5063    0.8143    0.0000 C   0  0  0  0  0  0  0  0  0  0  0  0
    3.0783    0.3552    0.0000 C   0  0  0  0  0  0  0  0  0  0  0  0
    5.6179   -0.1928    0.0000 C   0  0  0  0  0  0  0  0  0  0  0  0
    5.3015   -1.6590    0.0000 C   0  0  0  0  0  0  0  0  0  0  0  0
    2.7619   -1.1111    0.0000 C   0  0  0  0  0  0  0  0  0  0  0  0
    3.8735   -2.1182    0.0000 C   0  0  0  0  0  0  0  0  0  0  0  0
   -3.3546    1.2270    0.0000 C   0  0  0  0  0  0  0  0  0  0  0  0
   -1.8884    0.9107    0.0000 C   0  0  0  0  0  0  0  0  0  0  0  0
   -1.4293   -0.5173    0.0000 C   0  0  0  0  0  0  0  0  0  0  0  0
    0.5387    0.9032    0.0000 C   0  0  0  0  0  0  0  0  0  0  0  0
   -3.9026   -1.3126    0.0000 C   0  0  0  0  0  0  0  0  0  0  0  0
   -4.9098   -2.4242    0.0000 S   0  0  0  0  0  0  0  0  0  0  0  0
   -6.3760   -2.1078    0.0000 C   0  0  0  0  0  0  0  0  0  0  0  0
    1.9667    1.3623    0.0000 C   0  0  3  0  0  0  0  0  0  0  0  0
    2.2830    2.8286    0.0000 O   0  0  0  0  0  0  0  0  0  0  0  0
  1 12  2  0  0  0  0
  1 16  1  0  0  0  0
  2 16  2  0  0  0  0
  2 14  1  0  0  0  0
  3 13  1  0  0  0  0
  3 15  1  0  0  0  0
  3  4  1  0  0  0  0
  5 15  2  0  0  0  0
  5 14  1  0  0  0  0
  6  8  2  0  0  0  0
  6  7  1  0  0  0  0
  7 10  2  0  0  0  0
  7 19  1  0  0  0  0
  8  9  1  0  0  0  0
  9 11  2  0  0  0  0
 10 11  1  0  0  0  0
 12 13  1  0  0  0  0
 13 14  2  0  0  0  0
 15 19  1  0  0  0  0
 16 17  1  0  0  0  0
 17 18  1  0  0  0  0
 19 20  1  0  0  0  0
M  END
