38352
 OpenBabel03021519512D

 23 25  0  0  1  0  0  0  0  0999 V2000
    7.2452   -5.9892    0.0000 H   0  0  0  0  0  0  0  0  0  0  0  0
    7.2452   -7.4892    0.0000 N   0  0  0  0  0  0  0  0  0  0  0  0
    4.6471   -1.4892    0.0000 C   0  0  0  0  0  0  0  0  0  0  0  0
    3.3481   -2.2392    0.0000 C   0  0  0  0  0  0  0  0  0  0  0  0
    5.9461   -2.2392    0.0000 C   0  0  0  0  0  0  0  0  0  0  0  0
    5.9461   -3.7392    0.0000 C   0  0  0  0  0  0  0  0  0  0  0  0
    3.3481   -3.7392    0.0000 C   0  0  0  0  0  0  0  0  0  0  0  0
    4.6471   -4.4892    0.0000 C   0  0  0  0  0  0  0  0  0  0  0  0
    2.0490   -7.4892    0.0000 C   0  0  0  0  0  0  0  0  0  0  0  0
    3.3481   -8.2392    0.0000 C   0  0  0  0  0  0  0  0  0  0  0  0
    0.7500   -8.2392    0.0000 C   0  0  0  0  0  0  0  0  0  0  0  0
    3.3481   -9.7392    0.0000 C   0  0  0  0  0  0  0  0  0  0  0  0
    0.7500   -9.7392    0.0000 C   0  0  0  0  0  0  0  0  0  0  0  0
    2.0491  -10.4892    0.0000 C   0  0  0  0  0  0  0  0  0  0  0  0
    8.5442   -8.2392    0.0000 C   0  0  0  0  0  0  0  0  0  0  0  0
    8.5442   -9.7392    0.0000 C   0  0  0  0  0  0  0  0  0  0  0  0
    7.2452  -10.4892    0.0000 C   0  0  0  0  0  0  0  0  0  0  0  0
    5.9462   -9.7392    0.0000 C   0  0  0  0  0  0  0  0  0  0  0  0
    5.9462   -8.2392    0.0000 C   0  0  3  0  0  0  0  0  0  0  0  0
    4.6471   -5.9892    0.0000 C   0  0  3  0  0  0  0  0  0  0  0  0
    3.1471   -5.9892    0.0000 C   0  0  0  0  0  0  0  0  0  0  0  0
    6.1471   -5.9892    0.0000 O   0  0  0  0  0  0  0  0  0  0  0  0
    4.6471   -7.4892    0.0000 C   0  0  3  0  0  0  0  0  0  0  0  0
  1  2  1  0  0  0  0
  2 15  1  0  0  0  0
  2 19  1  0  0  0  0
  3  5  2  0  0  0  0
  3  4  1  0  0  0  0
  4  7  2  0  0  0  0
  5  6  1  0  0  0  0
  6  8  2  0  0  0  0
  7  8  1  0  0  0  0
  8 20  1  0  0  0  0
  9 11  2  0  0  0  0
  9 10  1  0  0  0  0
 10 12  2  0  0  0  0
 10 23  1  0  0  0  0
 11 13  1  0  0  0  0
 12 14  1  0  0  0  0
 13 14  2  0  0  0  0
 15 16  1  0  0  0  0
 16 17  1  0  0  0  0
 17 18  1  0  0  0  0
 18 19  1  0  0  0  0
 19 23  1  0  0  0  0
 20 21  1  0  0  0  0
 20 22  1  0  0  0  0
 20 23  1  0  0  0  0
M  END
