62511
 OpenBabel03021519512D

 13 13  0  0  1  0  0  0  0  0999 V2000
   -2.2231   -3.6495    0.0000 C   0  0  0  0  0  0  0  0  0  0  0  0
   -0.9240   -4.3995    0.0000 C   0  0  3  0  0  0  0  0  0  0  0  0
   -3.5221   -4.3995    0.0000 C   0  0  3  0  0  0  0  0  0  0  0  0
   -0.9240   -5.8995    0.0000 C   0  0  0  0  0  0  0  0  0  0  0  0
   -3.5221   -5.8995    0.0000 C   0  0  3  0  0  0  0  0  0  0  0  0
   -2.2231   -6.6495    0.0000 C   0  0  3  0  0  0  0  0  0  0  0  0
   -4.8212   -3.6495    0.0000 O   0  0  0  0  0  0  0  0  0  0  0  0
   -4.8211   -6.6495    0.0000 O   0  0  0  0  0  0  0  0  0  0  0  0
   -2.2231   -8.1495    0.0000 O   0  0  0  0  0  0  0  0  0  0  0  0
    0.3750   -3.6495    0.0000 C   0  0  0  0  0  0  0  0  0  0  0  0
    1.6740   -4.3995    0.0000 O   0  0  0  0  0  0  0  0  0  0  0  0
    0.3750   -2.1495    0.0000 O   0  0  0  0  0  0  0  0  0  0  0  0
   -0.9240   -1.3995    0.0000 C   0  0  0  0  0  0  0  0  0  0  0  0
  1  2  1  0  0  0  0
  1  3  1  0  0  0  0
  2  4  1  0  0  0  0
  2 10  1  0  0  0  0
  3  5  1  0  0  0  0
  3  7  1  0  0  0  0
  4  6  1  0  0  0  0
  5  6  1  0  0  0  0
  5  8  1  0  0  0  0
  6  9  1  0  0  0  0
 10 11  2  0  0  0  0
 10 12  1  0  0  0  0
 12 13  1  0  0  0  0
M  END
