363801
 OpenBabel03021519512D

 19 21  0  0  0  0  0  0  0  0999 V2000
   -4.5000    4.6471    0.0000 C   0  0  0  0  0  0  0  0  0  0  0  0
   -3.0000    4.6471    0.0000 C   0  0  0  0  0  0  0  0  0  0  0  0
   -2.2500    5.9462    0.0000 C   0  0  0  0  0  0  0  0  0  0  0  0
   -5.2500    5.9462    0.0000 N   0  0  0  0  0  0  0  0  0  0  0  0
   -3.0000    7.2452    0.0000 N   0  0  0  0  0  0  0  0  0  0  0  0
   -4.5000    7.2452    0.0000 C   0  0  0  0  0  0  0  0  0  0  0  0
   -2.5365    8.6718    0.0000 N   0  0  0  0  0  0  0  0  0  0  0  0
   -4.9635    8.6718    0.0000 C   0  0  0  0  0  0  0  0  0  0  0  0
   -3.7500    9.5535    0.0000 C   0  0  0  0  0  0  0  0  0  0  0  0
   -5.2875    1.5944    0.0000 C   0  0  0  0  0  0  0  0  0  0  0  0
   -4.5375    2.8934    0.0000 C   0  0  0  0  0  0  0  0  0  0  0  0
   -3.0375    2.8934    0.0000 C   0  0  0  0  0  0  0  0  0  0  0  0
   -2.2875    1.5944    0.0000 C   0  0  0  0  0  0  0  0  0  0  0  0
   -3.0375    0.2953    0.0000 C   0  0  0  0  0  0  0  0  0  0  0  0
   -4.5375    0.2953    0.0000 C   0  0  0  0  0  0  0  0  0  0  0  0
   -3.2625    1.5944    0.0000 C   0  0  0  0  0  0  0  0  0  0  0  0
   -2.2500    3.3481    0.0000 C   0  0  0  0  0  0  0  0  0  0  0  0
   -5.2500    3.3481    0.0000 C   0  0  0  0  0  0  0  0  0  0  0  0
   -0.7500    5.9462    0.0000 O   0  0  0  0  0  0  0  0  0  0  0  0
  1  4  2  0  0  0  0
  1  2  1  0  0  0  0
  1 18  1  0  0  0  0
  2  3  2  0  0  0  0
  2 17  1  0  0  0  0
  3  5  1  0  0  0  0
  3 19  1  0  0  0  0
  4  6  1  0  0  0  0
  5  6  1  0  0  0  0
  5  7  1  0  0  0  0
  6  8  2  0  0  0  0
  7  9  2  0  0  0  0
  8  9  1  0  0  0  0
 10 11  2  0  0  0  0
 10 15  1  0  0  0  0
 10 16  1  0  0  0  0
 11 12  1  0  0  0  0
 12 13  2  0  0  0  0
 13 14  1  0  0  0  0
 14 15  2  0  0  0  0
 16 17  1  0  0  0  0
M  END
