321506
 OpenBabel03021519512D

 14 15  0  0  0  0  0  0  0  0999 V2000
    0.7500    4.0981    0.0000 N   0  0  0  0  0  0  0  0  0  0  0  0
    0.7500    2.5981    0.0000 C   0  0  0  0  0  0  0  0  0  0  0  0
    2.1766    4.5616    0.0000 C   0  0  0  0  0  0  0  0  0  0  0  0
    2.1766    2.1345    0.0000 C   0  0  0  0  0  0  0  0  0  0  0  0
    3.0583    3.3481    0.0000 N   0  0  0  0  0  0  0  0  0  0  0  0
    4.5583    3.3481    0.0000 C   0  0  0  0  0  0  0  0  0  0  0  0
    4.5583    5.9462    0.0000 Cl  0  0  0  0  0  0  0  0  0  0  0  0
    4.5583    0.7500    0.0000 Cl  0  0  0  0  0  0  0  0  0  0  0  0
    5.3083    4.6471    0.0000 C   0  0  0  0  0  0  0  0  0  0  0  0
    5.3083    2.0490    0.0000 C   0  0  0  0  0  0  0  0  0  0  0  0
    6.8083    4.6471    0.0000 C   0  0  0  0  0  0  0  0  0  0  0  0
    6.8083    2.0490    0.0000 C   0  0  0  0  0  0  0  0  0  0  0  0
    7.5583    3.3481    0.0000 C   0  0  0  0  0  0  0  0  0  0  0  0
    2.6401    5.9882    0.0000 S   0  0  0  0  0  0  0  0  0  0  0  0
  1  3  2  0  0  0  0
  1  2  1  0  0  0  0
  2  4  2  0  0  0  0
  3  5  1  0  0  0  0
  3 14  1  0  0  0  0
  4  5  1  0  0  0  0
  5  6  1  0  0  0  0
  6  9  2  0  0  0  0
  6 10  1  0  0  0  0
  7  9  1  0  0  0  0
  8 10  1  0  0  0  0
  9 11  1  0  0  0  0
 10 12  2  0  0  0  0
 11 13  2  0  0  0  0
 12 13  1  0  0  0  0
M  END
