40269
 OpenBabel03021519512D

 25 28  0  0  1  0  0  0  0  0999 V2000
   -0.8433   -4.1401    0.0000 N   0  0  0  0  0  0  0  0  0  0  0  0
   -2.9452   -2.9265    0.0000 N   0  0  0  0  0  0  0  0  0  0  0  0
   -1.8305   -1.9228    0.0000 C   0  0  0  0  0  0  0  0  0  0  0  0
   -0.5314   -2.6728    0.0000 C   0  0  0  0  0  0  0  0  0  0  0  0
   -4.8759   -1.1881    0.0000 C   0  0  0  0  0  0  0  0  0  0  0  0
   -6.3431   -0.8762    0.0000 C   0  0  0  0  0  0  0  0  0  0  0  0
   -4.4124   -2.6147    0.0000 C   0  0  0  0  0  0  0  0  0  0  0  0
   -7.3468   -1.9910    0.0000 C   0  0  0  0  0  0  0  0  0  0  0  0
   -5.4161   -3.7294    0.0000 C   0  0  0  0  0  0  0  0  0  0  0  0
   -6.8833   -3.4175    0.0000 C   0  0  0  0  0  0  0  0  0  0  0  0
   -2.3351   -4.2969    0.0000 C   0  0  0  0  0  0  0  0  0  0  0  0
   -0.4870   -5.5959    0.0000 C   0  0  0  0  0  0  0  0  0  0  0  0
    0.8121   -6.3459    0.0000 C   0  0  0  0  0  0  0  0  0  0  0  0
   -1.7860   -6.3459    0.0000 C   0  0  0  0  0  0  0  0  0  0  0  0
    0.8121   -7.8459    0.0000 C   0  0  0  0  0  0  0  0  0  0  0  0
   -1.7860   -7.8459    0.0000 C   0  0  0  0  0  0  0  0  0  0  0  0
   -0.4870   -8.5959    0.0000 C   0  0  0  0  0  0  0  0  0  0  0  0
   -3.8351   -6.8949    0.0000 C   0  0  0  0  0  0  0  0  0  0  0  0
   -5.3351   -6.8949    0.0000 C   0  0  0  0  0  0  0  0  0  0  0  0
   -3.0851   -8.1940    0.0000 C   0  0  0  0  0  0  0  0  0  0  0  0
   -3.8350   -9.4930    0.0000 C   0  0  0  0  0  0  0  0  0  0  0  0
   -6.0851   -8.1940    0.0000 C   0  0  0  0  0  0  0  0  0  0  0  0
   -5.3351   -9.4930    0.0000 C   0  0  0  0  0  0  0  0  0  0  0  0
   -3.0851   -5.5959    0.0000 C   0  0  3  0  0  0  0  0  0  0  0  0
   -4.3841   -4.8459    0.0000 O   0  0  0  0  0  0  0  0  0  0  0  0
  1 11  2  0  0  0  0
  1  4  1  0  0  0  0
  2  3  1  0  0  0  0
  2  7  1  0  0  0  0
  2 11  1  0  0  0  0
  3  4  2  0  0  0  0
  5  6  2  0  0  0  0
  5  7  1  0  0  0  0
  6  8  1  0  0  0  0
  7  9  2  0  0  0  0
  8 10  2  0  0  0  0
  9 10  1  0  0  0  0
 11 24  1  0  0  0  0
 12 13  2  0  0  0  0
 12 14  1  0  0  0  0
 13 15  1  0  0  0  0
 14 16  2  0  0  0  0
 14 24  1  0  0  0  0
 15 17  2  0  0  0  0
 16 17  1  0  0  0  0
 18 20  2  0  0  0  0
 18 19  1  0  0  0  0
 18 24  1  0  0  0  0
 19 22  2  0  0  0  0
 20 21  1  0  0  0  0
 21 23  2  0  0  0  0
 22 23  1  0  0  0  0
 24 25  1  0  0  0  0
M  END
