12646
 OpenBabel03021519512D

 15 16  0  0  0  0  0  0  0  0999 V2000
    1.2936    0.1192    0.0000 O   0  0  0  0  0  0  0  0  0  0  0  0
    3.8916    0.1192    0.0000 C   0  0  0  0  0  0  0  0  0  0  0  0
    5.1907    0.8692    0.0000 C   0  0  0  0  0  0  0  0  0  0  0  0
    7.7888    0.8692    0.0000 C   0  0  0  0  0  0  0  0  0  0  0  0
    9.0878    0.1192    0.0000 C   0  0  0  0  0  0  0  0  0  0  0  0
    6.4897    0.1192    0.0000 C   0  0  0  0  0  0  0  0  0  0  0  0
    9.0878   -1.3808    0.0000 C   0  0  0  0  0  0  0  0  0  0  0  0
    6.4897   -1.3808    0.0000 C   0  0  0  0  0  0  0  0  0  0  0  0
    3.8916   -1.3808    0.0000 C   0  0  0  0  0  0  0  0  0  0  0  0
    7.7888   -2.1308    0.0000 C   0  0  0  0  0  0  0  0  0  0  0  0
    5.1907   -2.1308    0.0000 C   0  0  0  0  0  0  0  0  0  0  0  0
    2.5926    0.8692    0.0000 As  0  0  0  0  0  0  0  0  0  0  0  0
    2.2044    2.3181    0.0000 O   0  0  0  0  0  0  0  0  0  0  0  0
    2.9808    2.3181    0.0000 O   0  0  0  0  0  0  0  0  0  0  0  0
    7.7888    2.3692    0.0000 N   0  0  0  0  0  0  0  0  0  0  0  0
  1 12  2  0  0  0  0
  2  3  2  0  0  0  0
  2  9  1  0  0  0  0
  2 12  1  0  0  0  0
  3  6  1  0  0  0  0
  4  5  2  0  0  0  0
  4  6  1  0  0  0  0
  4 15  1  0  0  0  0
  5  7  1  0  0  0  0
  6  8  2  0  0  0  0
  7 10  2  0  0  0  0
  8 11  1  0  0  0  0
  8 10  1  0  0  0  0
  9 11  2  0  0  0  0
 12 13  1  0  0  0  0
 12 14  1  0  0  0  0
M  END
