164880
 OpenBabel03021519512D

 22 24  0  0  0  0  0  0  0  0999 V2000
   -2.8726   -5.5245    0.0000 N   0  0  0  0  0  0  0  0  0  0  0  0
   -2.8726    1.9755    0.0000 C   0  0  0  0  0  0  0  0  0  0  0  0
   -1.5736    1.2255    0.0000 C   0  0  0  0  0  0  0  0  0  0  0  0
   -4.1716    1.2255    0.0000 C   0  0  0  0  0  0  0  0  0  0  0  0
   -4.1716   -0.2745    0.0000 C   0  0  0  0  0  0  0  0  0  0  0  0
   -1.5736   -0.2745    0.0000 C   0  0  0  0  0  0  0  0  0  0  0  0
   -2.8726   -1.0245    0.0000 C   0  0  0  0  0  0  0  0  0  0  0  0
   -4.1716   -4.7745    0.0000 C   0  0  0  0  0  0  0  0  0  0  0  0
   -5.4707   -5.5245    0.0000 C   0  0  0  0  0  0  0  0  0  0  0  0
   -6.7697   -4.7745    0.0000 C   0  0  0  0  0  0  0  0  0  0  0  0
   -8.0688   -5.5245    0.0000 C   0  0  0  0  0  0  0  0  0  0  0  0
   -5.4707   -7.0245    0.0000 C   0  0  0  0  0  0  0  0  0  0  0  0
   -8.0688   -7.0245    0.0000 C   0  0  0  0  0  0  0  0  0  0  0  0
   -4.1716   -7.7745    0.0000 C   0  0  0  0  0  0  0  0  0  0  0  0
   -2.8726   -7.0245    0.0000 C   0  0  0  0  0  0  0  0  0  0  0  0
   -6.7697   -7.7745    0.0000 C   0  0  0  0  0  0  0  0  0  0  0  0
   -2.8726   -2.5245    0.0000 C   0  0  0  0  0  0  0  0  0  0  0  0
   -4.1716   -3.2745    0.0000 C   0  0  0  0  0  0  0  0  0  0  0  0
   -5.4707   -1.0245    0.0000 O   0  0  0  0  0  0  0  0  0  0  0  0
   -6.7697   -0.2745    0.0000 C   0  0  0  0  0  0  0  0  0  0  0  0
   -5.4707    1.9755    0.0000 O   0  0  0  0  0  0  0  0  0  0  0  0
   -6.7697    1.2255    0.0000 C   0  0  0  0  0  0  0  0  0  0  0  0
  1  8  2  0  0  0  0
  1 15  1  0  0  0  0
  2  4  2  0  0  0  0
  2  3  1  0  0  0  0
  3  6  2  0  0  0  0
  4  5  1  0  0  0  0
  4 21  1  0  0  0  0
  5  7  2  0  0  0  0
  5 19  1  0  0  0  0
  6  7  1  0  0  0  0
  7 17  1  0  0  0  0
  8  9  1  0  0  0  0
  8 18  1  0  0  0  0
  9 12  2  0  0  0  0
  9 10  1  0  0  0  0
 10 11  2  0  0  0  0
 11 13  1  0  0  0  0
 12 14  1  0  0  0  0
 12 16  1  0  0  0  0
 13 16  2  0  0  0  0
 14 15  2  0  0  0  0
 17 18  2  0  0  0  0
 19 20  1  0  0  0  0
 21 22  1  0  0  0  0
M  END
