38090
 OpenBabel03021519512D

 23 25  0  0  0  0  0  0  0  0999 V2000
   -0.7967   -2.9733    0.0000 N   0  0  0  0  0  0  0  0  0  0  0  0
    1.4205   -3.9604    0.0000 N   0  0  0  0  0  0  0  0  0  0  0  0
   -3.5515   -5.9651    0.0000 O   0  0  0  0  0  0  0  0  0  0  0  0
    0.4168   -5.0752    0.0000 C   0  0  0  0  0  0  0  0  0  0  0  0
   -0.9535   -4.4651    0.0000 C   0  0  0  0  0  0  0  0  0  0  0  0
    0.6705   -2.6614    0.0000 C   0  0  0  0  0  0  0  0  0  0  0  0
   -3.5515   -7.4651    0.0000 C   0  0  0  0  0  0  0  0  0  0  0  0
   -4.8506   -8.2151    0.0000 C   0  0  0  0  0  0  0  0  0  0  0  0
   -2.2525   -8.2151    0.0000 C   0  0  0  0  0  0  0  0  0  0  0  0
   -6.1496   -7.4651    0.0000 C   0  0  0  0  0  0  0  0  0  0  0  0
   -7.4487   -8.2151    0.0000 C   0  0  0  0  0  0  0  0  0  0  0  0
   -2.2525   -9.7151    0.0000 C   0  0  0  0  0  0  0  0  0  0  0  0
   -4.8506   -9.7151    0.0000 C   0  0  0  0  0  0  0  0  0  0  0  0
   -7.4487   -9.7151    0.0000 C   0  0  0  0  0  0  0  0  0  0  0  0
   -3.5515  -10.4651    0.0000 C   0  0  0  0  0  0  0  0  0  0  0  0
   -6.1496  -10.4651    0.0000 C   0  0  0  0  0  0  0  0  0  0  0  0
   -1.9114   -1.9696    0.0000 C   0  0  0  0  0  0  0  0  0  0  0  0
   -2.2525   -5.2151    0.0000 S   0  0  0  0  0  0  0  0  0  0  0  0
   -3.0025   -3.9160    0.0000 O   0  0  0  0  0  0  0  0  0  0  0  0
   -1.5025   -6.5141    0.0000 O   0  0  0  0  0  0  0  0  0  0  0  0
    0.7287   -6.5424    0.0000 N   0  3  0  0  0  0  0  0  0  0  0  0
   -0.3860   -7.5461    0.0000 O   0  5  0  0  0  0  0  0  0  0  0  0
    2.1553   -7.0059    0.0000 O   0  0  0  0  0  0  0  0  0  0  0  0
  1  5  1  0  0  0  0
  1  6  1  0  0  0  0
  1 17  1  0  0  0  0
  2  6  2  0  0  0  0
  2  4  1  0  0  0  0
  3  7  1  0  0  0  0
  3 18  1  0  0  0  0
  4  5  2  0  0  0  0
  4 21  1  0  0  0  0
  5 18  1  0  0  0  0
  7  9  2  0  0  0  0
  7  8  1  0  0  0  0
  8 13  2  0  0  0  0
  8 10  1  0  0  0  0
  9 12  1  0  0  0  0
 10 11  2  0  0  0  0
 11 14  1  0  0  0  0
 12 15  2  0  0  0  0
 13 15  1  0  0  0  0
 13 16  1  0  0  0  0
 14 16  2  0  0  0  0
 18 19  2  0  0  0  0
 18 20  2  0  0  0  0
 21 22  1  0  0  0  0
 21 23  2  0  0  0  0
M  CHG  2  21   1  22  -1
M  END
