44680
 OpenBabel03021519512D

 11 12  0  0  1  0  0  0  0  0999 V2000
   -5.5712    0.8505    0.0000 N   0  0  3  0  0  0  0  0  0  0  0  0
   -6.3212    2.1495    0.0000 C   0  0  0  0  0  0  0  0  0  0  0  0
   -7.0712    0.8505    0.0000 C   0  0  3  0  0  0  0  0  0  0  0  0
   -2.9731    0.8505    0.0000 C   0  0  0  0  0  0  0  0  0  0  0  0
   -1.6740    0.1005    0.0000 C   0  0  0  0  0  0  0  0  0  0  0  0
   -4.2721    0.1005    0.0000 C   0  0  0  0  0  0  0  0  0  0  0  0
   -1.6740   -1.3995    0.0000 C   0  0  0  0  0  0  0  0  0  0  0  0
   -4.2721   -1.3995    0.0000 C   0  0  0  0  0  0  0  0  0  0  0  0
   -2.9731   -2.1495    0.0000 C   0  0  0  0  0  0  0  0  0  0  0  0
   -9.6692    0.8505    0.0000 O   0  0  0  0  0  0  0  0  0  0  0  0
   -8.3702    0.1005    0.0000 C   0  0  0  0  0  0  0  0  0  0  0  0
  1  2  1  0  0  0  0
  1  3  1  0  0  0  0
  1  6  1  0  0  0  0
  2  3  1  0  0  0  0
  3 11  1  0  0  0  0
  4  5  1  0  0  0  0
  4  6  1  0  0  0  0
  5  7  1  0  0  0  0
  6  8  1  0  0  0  0
  7  9  1  0  0  0  0
  8  9  1  0  0  0  0
 10 11  1  0  0  0  0
M  END
