113486
 OpenBabel03021519512D

 16 16  0  0  0  0  0  0  0  0999 V2000
   -5.9462   -2.2500    0.0000 N   0  0  0  0  0  0  0  0  0  0  0  0
   -5.9462   -0.7500    0.0000 H   0  0  0  0  0  0  0  0  0  0  0  0
   -5.9462   -6.7500    0.0000 O   0  0  0  0  0  0  0  0  0  0  0  0
   -4.6471   -4.5000    0.0000 N   0  0  0  0  0  0  0  0  0  0  0  0
   -2.0490   -3.0000    0.0000 C   0  0  0  0  0  0  0  0  0  0  0  0
   -7.2452   -3.0000    0.0000 C   0  0  0  0  0  0  0  0  0  0  0  0
   -7.2452   -4.5000    0.0000 C   0  0  0  0  0  0  0  0  0  0  0  0
   -5.9462   -5.2500    0.0000 C   0  0  0  0  0  0  0  0  0  0  0  0
   -4.6471   -3.0000    0.0000 C   0  0  0  0  0  0  0  0  0  0  0  0
   -8.5442   -2.2500    0.0000 C   0  0  0  0  0  0  0  0  0  0  0  0
   -8.5442   -5.2500    0.0000 C   0  0  0  0  0  0  0  0  0  0  0  0
   -3.3481   -2.2500    0.0000 N   0  0  0  0  0  0  0  0  0  0  0  0
   -0.7500   -2.2500    0.0000 N   0  0  0  0  0  0  0  0  0  0  0  0
   -2.0490   -4.5000    0.0000 N   0  0  0  0  0  0  0  0  0  0  0  0
   -0.7500   -5.2500    0.0000 C   0  0  0  0  0  0  0  0  0  0  0  0
   -3.3481   -5.2500    0.0000 C   0  0  0  0  0  0  0  0  0  0  0  0
  1  6  1  0  0  0  0
  1  9  1  0  0  0  0
  1  2  1  0  0  0  0
  3  8  2  0  0  0  0
  4  9  2  0  0  0  0
  4  8  1  0  0  0  0
  5 12  1  0  0  0  0
  5 13  2  0  0  0  0
  5 14  1  0  0  0  0
  6  7  2  0  0  0  0
  6 10  1  0  0  0  0
  7  8  1  0  0  0  0
  7 11  1  0  0  0  0
  9 12  1  0  0  0  0
 14 15  1  0  0  0  0
 14 16  1  0  0  0  0
M  END
