48388
 OpenBabel03021519512D

 23 26  0  0  1  0  0  0  0  0999 V2000
   -0.7500   -3.8740    0.0000 C   0  0  0  0  0  0  0  0  0  0  0  0
   -5.6563   -4.6240    0.0000 C   0  0  0  0  0  0  0  0  0  0  0  0
  -13.9552   -0.7500    0.0000 C   0  0  0  0  0  0  0  0  0  0  0  0
  -12.1515   -5.3740    0.0000 C   0  0  0  0  0  0  0  0  0  0  0  0
   -6.9554   -2.3740    0.0000 C   0  0  0  0  0  0  0  0  0  0  0  0
   -8.2544   -3.1240    0.0000 C   0  0  0  0  0  0  0  0  0  0  0  0
   -3.0583   -3.1240    0.0000 C   0  0  0  0  0  0  0  0  0  0  0  0
   -3.0583   -4.6240    0.0000 C   0  0  0  0  0  0  0  0  0  0  0  0
   -4.3573   -2.3740    0.0000 C   0  0  0  0  0  0  0  0  0  0  0  0
  -12.1515   -2.3740    0.0000 C   0  0  3  0  0  0  0  0  0  0  0  0
  -13.4506   -3.1240    0.0000 C   0  0  0  0  0  0  0  0  0  0  0  0
  -10.8525   -3.1240    0.0000 C   0  0  0  0  0  0  0  0  0  0  0  0
   -1.6317   -5.0876    0.0000 N   0  0  0  0  0  0  0  0  0  0  0  0
   -1.6317   -2.6605    0.0000 N   0  0  0  0  0  0  0  0  0  0  0  0
   -4.3573   -5.3740    0.0000 N   0  0  0  0  0  0  0  0  0  0  0  0
  -12.4634   -0.9068    0.0000 N   0  0  0  0  0  0  0  0  0  0  0  0
  -13.4506   -4.6240    0.0000 N   0  0  0  0  0  0  0  0  0  0  0  0
  -14.5653   -2.1203    0.0000 N   0  0  0  0  0  0  0  0  0  0  0  0
  -10.8525   -4.6240    0.0000 N   0  0  0  0  0  0  0  0  0  0  0  0
   -5.6563   -3.1240    0.0000 N   0  0  0  0  0  0  0  0  0  0  0  0
   -4.3573   -0.8740    0.0000 S   0  0  0  0  0  0  0  0  0  0  0  0
   -9.5534   -2.3740    0.0000 S   0  0  0  0  0  0  0  0  0  0  0  0
   -1.1681   -6.5141    0.0000 H   0  0  0  0  0  0  0  0  0  0  0  0
  1 13  1  0  0  0  0
  1 14  2  0  0  0  0
  2 15  2  0  0  0  0
  2 20  1  0  0  0  0
  3 16  2  0  0  0  0
  3 18  1  0  0  0  0
  4 17  2  0  0  0  0
  4 19  1  0  0  0  0
  5  6  1  0  0  0  0
  5 20  1  0  0  0  0
  6 22  1  0  0  0  0
  7  8  2  0  0  0  0
  7  9  1  0  0  0  0
  7 14  1  0  0  0  0
  8 13  1  0  0  0  0
  8 15  1  0  0  0  0
  9 20  1  0  0  0  0
  9 21  2  0  0  0  0
 10 11  1  0  0  0  0
 10 12  1  0  0  0  0
 10 16  1  0  0  0  0
 11 17  1  0  0  0  0
 11 18  2  0  0  0  0
 12 19  2  0  0  0  0
 12 22  1  0  0  0  0
 13 23  1  0  0  0  0
M  END
