1014
 OpenBabel03021519512D

 26 29  0  0  1  0  0  0  0  0999 V2000
  -11.4168    1.2255    0.0000 N   0  0  0  0  0  0  0  0  0  0  0  0
   -3.6226   -0.2745    0.0000 N   0  0  0  0  0  0  0  0  0  0  0  0
   -8.8187    4.2255    0.0000 C   0  0  0  0  0  0  0  0  0  0  0  0
  -10.1178    3.4755    0.0000 C   0  0  0  0  0  0  0  0  0  0  0  0
   -7.5197    3.4755    0.0000 C   0  0  0  0  0  0  0  0  0  0  0  0
   -7.5197    1.9755    0.0000 C   0  0  0  0  0  0  0  0  0  0  0  0
  -10.1178    1.9755    0.0000 C   0  0  0  0  0  0  0  0  0  0  0  0
   -8.8187    1.2255    0.0000 C   0  0  0  0  0  0  0  0  0  0  0  0
   -6.2207   -0.2745    0.0000 C   0  0  0  0  0  0  0  0  0  0  0  0
   -4.9216   -1.0245    0.0000 C   0  0  0  0  0  0  0  0  0  0  0  0
   -4.9216   -2.5245    0.0000 C   0  0  0  0  0  0  0  0  0  0  0  0
   -7.5197   -2.5245    0.0000 C   0  0  0  0  0  0  0  0  0  0  0  0
   -6.2207   -3.2745    0.0000 C   0  0  0  0  0  0  0  0  0  0  0  0
   -3.6226   -3.2745    0.0000 C   0  0  0  0  0  0  0  0  0  0  0  0
   -2.3236   -1.0245    0.0000 C   0  0  0  0  0  0  0  0  0  0  0  0
   -2.3236   -2.5245    0.0000 C   0  0  0  0  0  0  0  0  0  0  0  0
  -11.4168   -0.2745    0.0000 C   0  0  0  0  0  0  0  0  0  0  0  0
  -12.7159   -1.0245    0.0000 C   0  0  0  0  0  0  0  0  0  0  0  0
  -14.0149   -0.2745    0.0000 C   0  0  0  0  0  0  0  0  0  0  0  0
  -14.0149    1.2255    0.0000 C   0  0  0  0  0  0  0  0  0  0  0  0
  -12.7159    1.9755    0.0000 C   0  0  0  0  0  0  0  0  0  0  0  0
  -15.3139   -1.0245    0.0000 C   0  0  0  0  0  0  0  0  0  0  0  0
   -6.2207    1.2255    0.0000 O   0  0  0  0  0  0  0  0  0  0  0  0
   -7.5197   -1.0245    0.0000 C   0  0  0  0  0  0  0  0  0  0  0  0
  -10.1178   -1.0245    0.0000 N   0  0  0  0  0  0  0  0  0  0  0  0
   -8.8187   -0.2745    0.0000 C   0  0  3  0  0  0  0  0  0  0  0  0
  1 17  2  0  0  0  0
  1 21  1  0  0  0  0
  2 15  2  0  0  0  0
  2 10  1  0  0  0  0
  3  5  2  0  0  0  0
  3  4  1  0  0  0  0
  4  7  2  0  0  0  0
  5  6  1  0  0  0  0
  6  8  2  0  0  0  0
  7  8  1  0  0  0  0
  8 26  1  0  0  0  0
  9 10  1  0  0  0  0
  9 23  1  0  0  0  0
  9 24  2  0  0  0  0
 10 11  2  0  0  0  0
 11 13  1  0  0  0  0
 11 14  1  0  0  0  0
 12 13  2  0  0  0  0
 12 24  1  0  0  0  0
 14 16  2  0  0  0  0
 15 16  1  0  0  0  0
 17 18  1  0  0  0  0
 17 25  1  0  0  0  0
 18 19  2  0  0  0  0
 19 20  1  0  0  0  0
 19 22  1  0  0  0  0
 20 21  2  0  0  0  0
 24 26  1  0  0  0  0
 25 26  1  0  0  0  0
M  END
