303603
 OpenBabel03021519512D

 14 14  0  0  0  0  0  0  0  0999 V2000
   -0.0594   -3.8817    0.0000 C   0  0  0  0  0  0  0  0  0  0  0  0
    0.1988   -5.3593    0.0000 C   0  0  0  0  0  0  0  0  0  0  0  0
    1.2661   -3.1795    0.0000 C   0  0  0  0  0  0  0  0  0  0  0  0
    1.6839   -5.5703    0.0000 C   0  0  0  0  0  0  0  0  0  0  0  0
    2.3435   -4.2231    0.0000 O   0  0  0  0  0  0  0  0  0  0  0  0
    2.8687   -1.1346    0.0000 N   0  3  0  0  0  0  0  0  0  0  0  0
    4.0493   -2.0599    0.0000 O   0  5  0  0  0  0  0  0  0  0  0  0
    2.3861   -6.8958    0.0000 N   0  3  0  0  0  0  0  0  0  0  0  0
    1.5893   -8.1666    0.0000 O   0  5  0  0  0  0  0  0  0  0  0  0
    3.8851   -6.9504    0.0000 O   0  0  0  0  0  0  0  0  0  0  0  0
    1.4771   -1.6944    0.0000 C   0  0  0  0  0  0  0  0  0  0  0  0
    3.0797    0.3505    0.0000 C   0  0  0  0  0  0  0  0  0  0  0  0
    1.8991    1.2758    0.0000 C   0  0  0  0  0  0  0  0  0  0  0  0
    2.1101    2.7609    0.0000 O   0  0  0  0  0  0  0  0  0  0  0  0
  1  2  1  0  0  0  0
  1  3  2  0  0  0  0
  2  4  2  0  0  0  0
  3  5  1  0  0  0  0
  3 11  1  0  0  0  0
  4  5  1  0  0  0  0
  4  8  1  0  0  0  0
  6  7  1  0  0  0  0
  6 11  2  0  0  0  0
  6 12  1  0  0  0  0
  8  9  1  0  0  0  0
  8 10  2  0  0  0  0
 12 13  1  0  0  0  0
 13 14  1  0  0  0  0
M  CHG  4   6   1   7  -1   8   1   9  -1
M  END
