34871
 OpenBabel03021519512D

 22 23  0  0  0  0  0  0  0  0999 V2000
    4.6202    6.9976    0.0000 O   0  0  0  0  0  0  0  0  0  0  0  0
    6.6692    7.9486    0.0000 C   0  0  0  0  0  0  0  0  0  0  0  0
    7.9683    8.6986    0.0000 C   0  0  0  0  0  0  0  0  0  0  0  0
    6.6692    6.4486    0.0000 C   0  0  0  0  0  0  0  0  0  0  0  0
    9.2673    7.9486    0.0000 C   0  0  0  0  0  0  0  0  0  0  0  0
    7.9683    5.6986    0.0000 C   0  0  0  0  0  0  0  0  0  0  0  0
    9.2673    6.4486    0.0000 C   0  0  0  0  0  0  0  0  0  0  0  0
    2.7721    5.6986    0.0000 C   0  0  0  0  0  0  0  0  0  0  0  0
    1.4731    4.9486    0.0000 C   0  0  0  0  0  0  0  0  0  0  0  0
    4.0711    4.9486    0.0000 C   0  0  0  0  0  0  0  0  0  0  0  0
    4.0711    3.4486    0.0000 C   0  0  0  0  0  0  0  0  0  0  0  0
    1.4731    3.4486    0.0000 C   0  0  0  0  0  0  0  0  0  0  0  0
    2.7721    2.6986    0.0000 C   0  0  0  0  0  0  0  0  0  0  0  0
    0.1740    2.6986    0.0000 N   0  3  0  0  0  0  0  0  0  0  0  0
   -1.1250    3.4486    0.0000 O   0  5  0  0  0  0  0  0  0  0  0  0
    0.1740    1.1986    0.0000 O   0  0  0  0  0  0  0  0  0  0  0  0
    5.3702    5.6986    0.0000 As  0  0  3  0  0  0  0  0  0  0  0  0
    6.1202    4.3995    0.0000 O   0  0  0  0  0  0  0  0  0  0  0  0
   10.5663    8.6986    0.0000 N   0  0  0  0  0  0  0  0  0  0  0  0
   10.5663   10.1986    0.0000 C   0  0  0  0  0  0  0  0  0  0  0  0
   11.8654   10.9486    0.0000 O   0  0  0  0  0  0  0  0  0  0  0  0
    9.2673   10.9486    0.0000 C   0  0  0  0  0  0  0  0  0  0  0  0
  1 17  2  0  0  0  0
  2  3  2  0  0  0  0
  2  4  1  0  0  0  0
  3  5  1  0  0  0  0
  4  6  2  0  0  0  0
  4 17  1  0  0  0  0
  5  7  2  0  0  0  0
  5 19  1  0  0  0  0
  6  7  1  0  0  0  0
  8  9  2  0  0  0  0
  8 10  1  0  0  0  0
  9 12  1  0  0  0  0
 10 11  2  0  0  0  0
 10 17  1  0  0  0  0
 11 13  1  0  0  0  0
 12 13  2  0  0  0  0
 12 14  1  0  0  0  0
 14 15  1  0  0  0  0
 14 16  2  0  0  0  0
 17 18  1  0  0  0  0
 19 20  1  0  0  0  0
 20 21  2  0  0  0  0
 20 22  1  0  0  0  0
M  CHG  2  14   1  15  -1
M  END
