10427
 OpenBabel03021519512D

 14 15  0  0  0  0  0  0  0  0999 V2000
    3.6110    0.3528    0.0000 O   0  0  0  0  0  0  0  0  0  0  0  0
    5.5012   -1.5373    0.0000 O   0  0  0  0  0  0  0  0  0  0  0  0
    4.0746   -1.0738    0.0000 C   0  0  0  0  0  0  0  0  0  0  0  0
    2.8610   -1.9555    0.0000 C   0  0  0  0  0  0  0  0  0  0  0  0
    1.6475   -1.0738    0.0000 C   0  0  0  0  0  0  0  0  0  0  0  0
    2.1110    0.3528    0.0000 C   0  0  0  0  0  0  0  0  0  0  0  0
    1.5620   -5.7055    0.0000 C   0  0  0  0  0  0  0  0  0  0  0  0
    0.2630   -6.4555    0.0000 C   0  0  0  0  0  0  0  0  0  0  0  0
    1.5620   -4.2055    0.0000 C   0  0  0  0  0  0  0  0  0  0  0  0
   -1.0361   -5.7055    0.0000 C   0  0  0  0  0  0  0  0  0  0  0  0
    0.2630   -3.4555    0.0000 C   0  0  0  0  0  0  0  0  0  0  0  0
   -1.0361   -4.2055    0.0000 C   0  0  0  0  0  0  0  0  0  0  0  0
    2.8611   -3.4555    0.0000 C   0  0  0  0  0  0  0  0  0  0  0  0
   -2.3351   -6.4555    0.0000 C   0  0  0  0  0  0  0  0  0  0  0  0
  1  3  1  0  0  0  0
  1  6  1  0  0  0  0
  2  3  2  0  0  0  0
  3  4  1  0  0  0  0
  4  5  1  0  0  0  0
  4 13  2  0  0  0  0
  5  6  1  0  0  0  0
  7  8  2  0  0  0  0
  7  9  1  0  0  0  0
  8 10  1  0  0  0  0
  9 11  2  0  0  0  0
  9 13  1  0  0  0  0
 10 12  2  0  0  0  0
 10 14  1  0  0  0  0
 11 12  1  0  0  0  0
M  END
