330500
 OpenBabel03021519512D

 40 41  0  0  1  0  0  0  0  0999 V2000
    4.7639    1.1052    0.0000 C   0  0  0  0  0  0  0  0  0  0  0  0
    3.8942    3.5534    0.0000 C   0  0  0  0  0  0  0  0  0  0  0  0
    2.6200   -2.5893    0.0000 C   0  0  0  0  0  0  0  0  0  0  0  0
   -2.9800    1.9118    0.0000 C   0  0  0  0  0  0  0  0  0  0  0  0
   -3.0365    0.4129    0.0000 C   0  0  0  0  0  0  0  0  0  0  0  0
   -1.7554    2.7780    0.0000 C   0  0  0  0  0  0  0  0  0  0  0  0
   -2.2065   -3.6574    0.0000 C   0  0  0  0  0  0  0  0  0  0  0  0
    5.0358    2.5804    0.0000 C   0  0  0  0  0  0  0  0  0  0  0  0
    3.3505    0.6031    0.0000 C   0  0  0  0  0  0  0  0  0  0  0  0
    2.4807    3.0513    0.0000 C   0  0  0  0  0  0  0  0  0  0  0  0
    2.2089    1.5761    0.0000 C   0  0  0  0  0  0  0  0  0  0  0  0
    2.5627   -1.0904    0.0000 C   0  0  3  0  0  0  0  0  0  0  0  0
   -1.7175   -0.3016    0.0000 C   0  0  3  0  0  0  0  0  0  0  0  0
   -0.7164   -3.4851    0.0000 C   0  0  3  0  0  0  0  0  0  0  0  0
    1.2668   -3.2364    0.0000 C   0  0  3  0  0  0  0  0  0  0  0  0
    3.8494   -0.3195    0.0000 C   0  0  3  0  0  0  0  0  0  0  0  0
    0.1360   -2.2509    0.0000 C   0  0  3  0  0  0  0  0  0  0  0  0
   -2.9931   -1.0908    0.0000 C   0  0  3  0  0  0  0  0  0  0  0  0
   -0.4364    2.0636    0.0000 C   0  0  0  0  0  0  0  0  0  0  0  0
   -3.2402   -2.5703    0.0000 C   0  0  0  0  0  0  0  0  0  0  0  0
   -0.1646    3.5388    0.0000 C   0  0  0  0  0  0  0  0  0  0  0  0
   -5.5853   -0.9156    0.0000 C   0  0  0  0  0  0  0  0  0  0  0  0
   -1.2740    4.5483    0.0000 O   0  0  0  0  0  0  0  0  0  0  0  0
   -5.6864   -2.4122    0.0000 O   0  0  0  0  0  0  0  0  0  0  0  0
   -4.2386   -0.2549    0.0000 O   0  0  0  0  0  0  0  0  0  0  0  0
    0.2107    0.7104    0.0000 C   0  0  0  0  0  0  0  0  0  0  0  0
   -0.2182   -0.2583    0.0000 C   0  0  0  0  0  0  0  0  0  0  0  0
   -4.6743   -3.0099    0.0000 C   0  0  0  0  0  0  0  0  0  0  0  0
    0.0557   -4.7711    0.0000 C   0  0  0  0  0  0  0  0  0  0  0  0
    1.2437   -0.3760    0.0000 C   0  0  0  0  0  0  0  0  0  0  0  0
    6.4492    3.0825    0.0000 O   0  0  0  0  0  0  0  0  0  0  0  0
    0.7954    1.0740    0.0000 O   0  0  0  0  0  0  0  0  0  0  0  0
    1.2785    3.9482    0.0000 N   0  0  0  0  0  0  0  0  0  0  0  0
   -6.8308   -0.0797    0.0000 N   0  0  0  0  0  0  0  0  0  0  0  0
    5.2960   -0.7162    0.0000 O   0  0  0  0  0  0  0  0  0  0  0  0
    6.3629    0.3382    0.0000 C   0  0  0  0  0  0  0  0  0  0  0  0
    1.0642   -4.7227    0.0000 O   0  0  0  0  0  0  0  0  0  0  0  0
    2.2501   -5.6412    0.0000 C   0  0  0  0  0  0  0  0  0  0  0  0
    0.4697   -0.7884    0.0000 O   0  0  0  0  0  0  0  0  0  0  0  0
   -0.6300    0.2318    0.0000 C   0  0  0  0  0  0  0  0  0  0  0  0
  1  8  2  0  0  0  0
  1  9  1  0  0  0  0
  2  8  1  0  0  0  0
  2 10  2  0  0  0  0
  3 12  1  0  0  0  0
  3 15  1  0  0  0  0
  4  5  2  0  0  0  0
  4  6  1  0  0  0  0
  5 13  1  0  0  0  0
  6 19  2  0  0  0  0
  7 14  1  0  0  0  0
  7 20  2  0  0  0  0
  8 31  1  0  0  0  0
  9 11  2  0  0  0  0
  9 16  1  0  0  0  0
 10 11  1  0  0  0  0
 10 33  1  0  0  0  0
 11 32  1  0  0  0  0
 12 16  1  0  0  0  0
 12 30  1  0  0  0  0
 13 18  1  0  0  0  0
 13 27  1  0  0  0  0
 14 17  1  0  0  0  0
 14 29  1  0  0  0  0
 15 17  1  0  0  0  0
 15 37  1  0  0  0  0
 16 35  1  0  0  0  0
 17 39  1  0  0  0  0
 18 20  1  0  0  0  0
 18 25  1  0  0  0  0
 19 21  1  0  0  0  0
 19 26  1  0  0  0  0
 20 28  1  0  0  0  0
 21 23  2  0  0  0  0
 21 33  1  0  0  0  0
 22 24  2  0  0  0  0
 22 25  1  0  0  0  0
 22 34  1  0  0  0  0
 35 36  1  0  0  0  0
 37 38  1  0  0  0  0
 39 40  1  0  0  0  0
M  END
