11664
 OpenBabel03021519512D

 22 24  0  0  0  0  0  0  0  0999 V2000
    4.6561   -8.4239    0.0000 N   0  0  0  0  0  0  0  0  0  0  0  0
    4.3845   -5.8401    0.0000 N   0  0  0  0  0  0  0  0  0  0  0  0
    6.7579   -4.4698    0.0000 N   0  0  0  0  0  0  0  0  0  0  0  0
    8.1845   -4.9333    0.0000 N   0  0  0  0  0  0  0  0  0  0  0  0
    5.3674   -0.1900    0.0000 C   0  0  0  0  0  0  0  0  0  0  0  0
    4.3637   -1.3047    0.0000 C   0  0  0  0  0  0  0  0  0  0  0  0
    6.8346   -0.5019    0.0000 C   0  0  0  0  0  0  0  0  0  0  0  0
    7.2981   -1.9284    0.0000 C   0  0  0  0  0  0  0  0  0  0  0  0
    4.8272   -2.7313    0.0000 C   0  0  0  0  0  0  0  0  0  0  0  0
    6.2944   -3.0432    0.0000 C   0  0  0  0  0  0  0  0  0  0  0  0
    3.7744   -7.2104    0.0000 C   0  0  0  0  0  0  0  0  0  0  0  0
    5.8763   -5.6833    0.0000 C   0  0  0  0  0  0  0  0  0  0  0  0
    6.7579   -6.8968    0.0000 C   0  0  0  0  0  0  0  0  0  0  0  0
    8.1845   -6.4333    0.0000 C   0  0  0  0  0  0  0  0  0  0  0  0
    6.1478   -8.2671    0.0000 C   0  0  0  0  0  0  0  0  0  0  0  0
    2.2826   -7.3672    0.0000 C   0  0  0  0  0  0  0  0  0  0  0  0
    1.6725   -8.7375    0.0000 C   0  0  0  0  0  0  0  0  0  0  0  0
    7.0295   -9.4806    0.0000 N   0  0  0  0  0  0  0  0  0  0  0  0
    6.4194  -10.8510    0.0000 C   0  0  0  0  0  0  0  0  0  0  0  0
    5.0491  -10.2409    0.0000 C   0  0  0  0  0  0  0  0  0  0  0  0
    5.8093  -12.2213    0.0000 C   0  0  0  0  0  0  0  0  0  0  0  0
    7.7897  -11.4611    0.0000 C   0  0  0  0  0  0  0  0  0  0  0  0
  1 15  2  0  0  0  0
  1 11  1  0  0  0  0
  2 11  2  0  0  0  0
  2 12  1  0  0  0  0
  3  4  1  0  0  0  0
  3 10  1  0  0  0  0
  3 12  1  0  0  0  0
  4 14  2  0  0  0  0
  5  7  2  0  0  0  0
  5  6  1  0  0  0  0
  6  9  2  0  0  0  0
  7  8  1  0  0  0  0
  8 10  2  0  0  0  0
  9 10  1  0  0  0  0
 11 16  1  0  0  0  0
 12 13  2  0  0  0  0
 13 14  1  0  0  0  0
 13 15  1  0  0  0  0
 15 18  1  0  0  0  0
 16 17  1  0  0  0  0
 18 19  1  0  0  0  0
 19 20  1  0  0  0  0
 19 21  1  0  0  0  0
 19 22  1  0  0  0  0
M  END
