66695
 OpenBabel03021519512D

 23 25  0  0  1  0  0  0  0  0999 V2000
    7.2452    6.7500    0.0000 O   0  0  0  0  0  0  0  0  0  0  0  0
    7.2452    2.2500    0.0000 N   0  0  0  0  0  0  0  0  0  0  0  0
    7.2452    0.7500    0.0000 H   0  0  0  0  0  0  0  0  0  0  0  0
    8.5442    1.5000    0.0000 Br  0  0  0  0  0  0  0  0  0  0  0  0
    9.8433    6.7500    0.0000 H   0  0  0  0  0  0  0  0  0  0  0  0
    9.8433    0.7500    0.0000 O   0  0  0  0  0  0  0  0  0  0  0  0
    9.8433    5.2500    0.0000 N   0  0  0  0  0  0  0  0  0  0  0  0
   11.1423    3.0000    0.0000 N   0  0  0  0  0  0  0  0  0  0  0  0
   12.4413    2.2500    0.0000 H   0  0  0  0  0  0  0  0  0  0  0  0
   12.4413    5.2500    0.0000 O   0  0  0  0  0  0  0  0  0  0  0  0
    7.2452    5.2500    0.0000 C   0  0  0  0  0  0  0  0  0  0  0  0
    8.5442    4.5000    0.0000 C   0  0  3  0  0  0  0  0  0  0  0  0
    5.9462    4.5000    0.0000 C   0  0  0  0  0  0  0  0  0  0  0  0
    4.6471    5.2500    0.0000 C   0  0  0  0  0  0  0  0  0  0  0  0
    3.3481    4.5000    0.0000 C   0  0  0  0  0  0  0  0  0  0  0  0
    8.5442    3.0000    0.0000 C   0  0  3  0  0  0  0  0  0  0  0  0
    5.9462    3.0000    0.0000 C   0  0  0  0  0  0  0  0  0  0  0  0
    3.3481    3.0000    0.0000 C   0  0  0  0  0  0  0  0  0  0  0  0
    9.8433    2.2500    0.0000 C   0  0  0  0  0  0  0  0  0  0  0  0
    4.6471    2.2500    0.0000 C   0  0  0  0  0  0  0  0  0  0  0  0
   11.1423    4.5000    0.0000 C   0  0  0  0  0  0  0  0  0  0  0  0
    2.0490    5.2500    0.0000 O   0  0  0  0  0  0  0  0  0  0  0  0
    0.7500    4.5000    0.0000 C   0  0  0  0  0  0  0  0  0  0  0  0
  1 11  2  0  0  0  0
  2 16  1  0  0  0  0
  2 17  1  0  0  0  0
  2  3  1  0  0  0  0
  4 16  1  0  0  0  0
  5  7  1  0  0  0  0
  6 19  2  0  0  0  0
  7 12  1  0  0  0  0
  7 21  1  0  0  0  0
  8 19  1  0  0  0  0
  8 21  1  0  0  0  0
  8  9  1  0  0  0  0
 10 21  2  0  0  0  0
 11 12  1  0  0  0  0
 11 13  1  0  0  0  0
 12 16  1  0  0  0  0
 13 17  2  0  0  0  0
 13 14  1  0  0  0  0
 14 15  2  0  0  0  0
 15 18  1  0  0  0  0
 15 22  1  0  0  0  0
 16 19  1  0  0  0  0
 17 20  1  0  0  0  0
 18 20  2  0  0  0  0
 22 23  1  0  0  0  0
M  END
