373427
 OpenBabel03021519512D

 16 16  0  0  0  0  0  0  0  0999 V2000
    3.6495   -0.3750    0.0000 C   0  0  0  0  0  0  0  0  0  0  0  0
    4.3995    0.9240    0.0000 C   0  0  0  0  0  0  0  0  0  0  0  0
    4.3995   -1.6740    0.0000 C   0  0  0  0  0  0  0  0  0  0  0  0
    5.8995    0.9241    0.0000 C   0  0  0  0  0  0  0  0  0  0  0  0
    5.8995   -1.6740    0.0000 C   0  0  0  0  0  0  0  0  0  0  0  0
    6.6495   -0.3750    0.0000 C   0  0  0  0  0  0  0  0  0  0  0  0
    8.1495   -0.3750    0.0000 S   0  0  0  0  0  0  0  0  0  0  0  0
    8.1495    1.1250    0.0000 O   0  0  0  0  0  0  0  0  0  0  0  0
    8.1495   -1.8750    0.0000 O   0  0  0  0  0  0  0  0  0  0  0  0
    9.6495   -0.3750    0.0000 N   0  0  0  0  0  0  0  0  0  0  0  0
    2.1495   -0.3750    0.0000 N   0  0  0  0  0  0  0  0  0  0  0  0
    3.6495    2.2231    0.0000 N   0  3  0  0  0  0  0  0  0  0  0  0
    2.1495    2.2231    0.0000 O   0  5  0  0  0  0  0  0  0  0  0  0
    4.3995    3.5221    0.0000 O   0  0  0  0  0  0  0  0  0  0  0  0
   10.3995    0.9241    0.0000 C   0  0  0  0  0  0  0  0  0  0  0  0
   10.3995   -1.6740    0.0000 C   0  0  0  0  0  0  0  0  0  0  0  0
  1  2  1  0  0  0  0
  1  3  2  0  0  0  0
  1 11  1  0  0  0  0
  2  4  2  0  0  0  0
  2 12  1  0  0  0  0
  3  5  1  0  0  0  0
  4  6  1  0  0  0  0
  5  6  2  0  0  0  0
  6  7  1  0  0  0  0
  7  8  2  0  0  0  0
  7 10  1  0  0  0  0
  7  9  2  0  0  0  0
 10 15  1  0  0  0  0
 10 16  1  0  0  0  0
 12 13  1  0  0  0  0
 12 14  2  0  0  0  0
M  CHG  2  12   1  13  -1
M  END
