105348
 OpenBabel03021519512D

 24 26  0  0  0  0  0  0  0  0999 V2000
   -6.9790   10.5879    0.0000 H   0  0  0  0  0  0  0  0  0  0  0  0
   -7.4425    9.1613    0.0000 N   0  0  0  0  0  0  0  0  0  0  0  0
   -9.9901    1.9636    0.0000 Cl  0  0  0  0  0  0  0  0  0  0  0  0
  -10.1681    9.4478    0.0000 C   0  0  0  0  0  0  0  0  0  0  0  0
   -8.8691    8.6978    0.0000 C   0  0  0  0  0  0  0  0  0  0  0  0
  -11.4672    8.6978    0.0000 C   0  0  0  0  0  0  0  0  0  0  0  0
   -8.8691    7.1978    0.0000 C   0  0  0  0  0  0  0  0  0  0  0  0
  -11.4672    7.1978    0.0000 C   0  0  0  0  0  0  0  0  0  0  0  0
  -10.1681    6.4478    0.0000 C   0  0  0  0  0  0  0  0  0  0  0  0
   -7.4425    6.7343    0.0000 C   0  0  0  0  0  0  0  0  0  0  0  0
   -6.5608    7.9478    0.0000 C   0  0  0  0  0  0  0  0  0  0  0  0
   -6.0519    2.4545    0.0000 C   0  0  0  0  0  0  0  0  0  0  0  0
   -5.5884    1.0280    0.0000 C   0  0  0  0  0  0  0  0  0  0  0  0
   -7.5191    2.7664    0.0000 C   0  0  0  0  0  0  0  0  0  0  0  0
   -6.5921   -0.0868    0.0000 C   0  0  0  0  0  0  0  0  0  0  0  0
   -8.5228    1.6517    0.0000 C   0  0  0  0  0  0  0  0  0  0  0  0
   -8.0593    0.2251    0.0000 C   0  0  0  0  0  0  0  0  0  0  0  0
   -6.9790    5.3077    0.0000 C   0  0  0  0  0  0  0  0  0  0  0  0
   -5.5118    4.9958    0.0000 O   0  0  0  0  0  0  0  0  0  0  0  0
   -7.9827    4.1930    0.0000 C   0  0  0  0  0  0  0  0  0  0  0  0
   -6.1286   -1.5133    0.0000 O   0  0  0  0  0  0  0  0  0  0  0  0
   -4.6613   -1.8252    0.0000 C   0  0  0  0  0  0  0  0  0  0  0  0
   -4.1212    0.7161    0.0000 O   0  0  0  0  0  0  0  0  0  0  0  0
   -3.6576   -0.7105    0.0000 C   0  0  0  0  0  0  0  0  0  0  0  0
  1  2  1  0  0  0  0
  2  5  1  0  0  0  0
  2 11  1  0  0  0  0
  3 16  1  0  0  0  0
  4  6  2  0  0  0  0
  4  5  1  0  0  0  0
  5  7  2  0  0  0  0
  6  8  1  0  0  0  0
  7  9  1  0  0  0  0
  7 10  1  0  0  0  0
  8  9  2  0  0  0  0
 10 11  2  0  0  0  0
 10 18  1  0  0  0  0
 12 13  2  0  0  0  0
 12 14  1  0  0  0  0
 13 15  1  0  0  0  0
 13 23  1  0  0  0  0
 14 16  2  0  0  0  0
 14 20  1  0  0  0  0
 15 17  2  0  0  0  0
 15 21  1  0  0  0  0
 16 17  1  0  0  0  0
 18 19  2  0  0  0  0
 18 20  1  0  0  0  0
 21 22  1  0  0  0  0
 23 24  1  0  0  0  0
M  END
