46385
 OpenBabel03021519512D

 27 30  0  0  1  0  0  0  0  0999 V2000
    6.2207   -4.7745    0.0000 N   0  0  0  0  0  0  0  0  0  0  0  0
    7.5197   -7.0245    0.0000 N   0  0  0  0  0  0  0  0  0  0  0  0
    9.8272   -9.3782    0.0000 O   0  0  0  0  0  0  0  0  0  0  0  0
   10.2453   -4.3110    0.0000 N   0  0  0  0  0  0  0  0  0  0  0  0
   10.2453   -6.7381    0.0000 N   0  0  0  0  0  0  0  0  0  0  0  0
    7.5197    0.4755    0.0000 N   0  0  0  0  0  0  0  0  0  0  0  0
    4.9216    1.9755    0.0000 C   0  0  0  0  0  0  0  0  0  0  0  0
    4.9216    0.4755    0.0000 C   0  0  0  0  0  0  0  0  0  0  0  0
    6.2207    2.7255    0.0000 C   0  0  0  0  0  0  0  0  0  0  0  0
    7.5197    1.9755    0.0000 C   0  0  0  0  0  0  0  0  0  0  0  0
    6.2207   -0.2745    0.0000 C   0  0  0  0  0  0  0  0  0  0  0  0
    7.5197   -4.0245    0.0000 C   0  0  0  0  0  0  0  0  0  0  0  0
    8.8187   -4.7745    0.0000 C   0  0  0  0  0  0  0  0  0  0  0  0
    8.8187   -6.2745    0.0000 C   0  0  0  0  0  0  0  0  0  0  0  0
   11.1270   -5.5245    0.0000 C   0  0  0  0  0  0  0  0  0  0  0  0
    6.2207   -6.2745    0.0000 C   0  0  0  0  0  0  0  0  0  0  0  0
   10.7089   -8.1646    0.0000 C   0  0  3  0  0  0  0  0  0  0  0  0
   12.1355   -8.6282    0.0000 C   0  0  3  0  0  0  0  0  0  0  0  0
   12.1355  -10.1282    0.0000 C   0  0  3  0  0  0  0  0  0  0  0  0
   10.7089  -10.5917    0.0000 C   0  0  3  0  0  0  0  0  0  0  0  0
    4.9216   -7.0245    0.0000 N   0  0  0  0  0  0  0  0  0  0  0  0
    7.5197   -2.5245    0.0000 S   0  0  0  0  0  0  0  0  0  0  0  0
    6.2207   -1.7745    0.0000 C   0  0  0  0  0  0  0  0  0  0  0  0
   11.2491  -13.1330    0.0000 O   0  0  0  0  0  0  0  0  0  0  0  0
   10.2454  -12.0183    0.0000 C   0  0  0  0  0  0  0  0  0  0  0  0
   13.3490  -11.0098    0.0000 O   0  0  0  0  0  0  0  0  0  0  0  0
   13.3490   -7.7465    0.0000 O   0  0  0  0  0  0  0  0  0  0  0  0
  1 12  2  0  0  0  0
  1 16  1  0  0  0  0
  2 16  2  0  0  0  0
  2 14  1  0  0  0  0
  3 17  1  0  0  0  0
  3 20  1  0  0  0  0
  4 15  2  0  0  0  0
  4 13  1  0  0  0  0
  5 14  1  0  0  0  0
  5 15  1  0  0  0  0
  5 17  1  0  0  0  0
  6 11  2  0  0  0  0
  6 10  1  0  0  0  0
  7  8  2  0  0  0  0
  7  9  1  0  0  0  0
  8 11  1  0  0  0  0
  9 10  2  0  0  0  0
 11 23  1  0  0  0  0
 12 13  1  0  0  0  0
 12 22  1  0  0  0  0
 13 14  2  0  0  0  0
 16 21  1  0  0  0  0
 17 18  1  0  0  0  0
 18 19  1  0  0  0  0
 18 27  1  0  0  0  0
 19 20  1  0  0  0  0
 19 26  1  0  0  0  0
 20 25  1  0  0  0  0
 22 23  1  0  0  0  0
 24 25  1  0  0  0  0
M  END
