176736
 OpenBabel03021519512D

 19 20  0  0  0  0  0  0  0  0999 V2000
    0.7500   -5.9184    0.0000 Cl  0  0  0  0  0  0  0  0  0  0  0  0
    0.7500   -8.9184    0.0000 Cl  0  0  0  0  0  0  0  0  0  0  0  0
    0.7500   -1.4183    0.0000 Cl  0  0  0  0  0  0  0  0  0  0  0  0
    0.7500   -4.4183    0.0000 Cl  0  0  0  0  0  0  0  0  0  0  0  0
    3.3481   -4.4183    0.0000 C   0  0  0  0  0  0  0  0  0  0  0  0
    2.0490   -3.6683    0.0000 C   0  0  0  0  0  0  0  0  0  0  0  0
    4.6471   -3.6683    0.0000 C   0  0  0  0  0  0  0  0  0  0  0  0
    2.0490   -2.1683    0.0000 C   0  0  0  0  0  0  0  0  0  0  0  0
    4.6471   -2.1683    0.0000 C   0  0  0  0  0  0  0  0  0  0  0  0
    3.3481   -1.4183    0.0000 C   0  0  0  0  0  0  0  0  0  0  0  0
    3.3481   -5.9183    0.0000 C   0  0  0  0  0  0  0  0  0  0  0  0
    2.0490   -6.6684    0.0000 C   0  0  0  0  0  0  0  0  0  0  0  0
    4.6471   -6.6683    0.0000 C   0  0  0  0  0  0  0  0  0  0  0  0
    4.6471   -8.1683    0.0000 C   0  0  0  0  0  0  0  0  0  0  0  0
    2.0491   -8.1684    0.0000 C   0  0  0  0  0  0  0  0  0  0  0  0
    3.3481   -8.9183    0.0000 C   0  0  0  0  0  0  0  0  0  0  0  0
    5.9462   -5.9183    0.0000 N   0  0  0  0  0  0  0  0  0  0  0  0
    5.9462   -4.4183    0.0000 C   0  0  0  0  0  0  0  0  0  0  0  0
    7.2452   -3.6683    0.0000 O   0  0  0  0  0  0  0  0  0  0  0  0
  1 12  1  0  0  0  0
  2 15  1  0  0  0  0
  3  8  1  0  0  0  0
  4  6  1  0  0  0  0
  5  7  2  0  0  0  0
  5  6  1  0  0  0  0
  6  8  2  0  0  0  0
  7  9  1  0  0  0  0
  7 18  1  0  0  0  0
  8 10  1  0  0  0  0
  9 10  2  0  0  0  0
 11 13  2  0  0  0  0
 11 12  1  0  0  0  0
 12 15  2  0  0  0  0
 13 14  1  0  0  0  0
 13 17  1  0  0  0  0
 14 16  2  0  0  0  0
 15 16  1  0  0  0  0
 17 18  1  0  0  0  0
 18 19  2  0  0  0  0
M  END
