9782
 OpenBabel03021519512D

 24 27  0  0  1  0  0  0  0  0999 V2000
   -1.2853   -8.3724    0.0000 H   0  0  0  0  0  0  0  0  0  0  0  0
   -0.7451   -5.8311    0.0000 H   0  0  0  0  0  0  0  0  0  0  0  0
    1.3322   -7.5133    0.0000 H   0  0  0  0  0  0  0  0  0  0  0  0
    1.4721   -2.3347    0.0000 O   0  0  0  0  0  0  0  0  0  0  0  0
    1.4721   -3.8347    0.0000 C   0  0  0  0  0  0  0  0  0  0  0  0
    2.6856   -4.7164    0.0000 C   0  0  0  0  0  0  0  0  0  0  0  0
    0.2586   -4.7164    0.0000 C   0  0  1  0  0  0  0  0  0  0  0  0
   -1.2086   -4.4045    0.0000 C   0  0  0  0  0  0  0  0  0  0  0  0
   -2.2123   -5.5193    0.0000 C   0  0  0  0  0  0  0  0  0  0  0  0
    2.2221   -6.1430    0.0000 C   0  0  0  0  0  0  0  0  0  0  0  0
    0.7221   -6.1430    0.0000 C   0  0  1  0  0  0  0  0  0  0  0  0
   -1.7488   -6.9458    0.0000 C   0  0  1  0  0  0  0  0  0  0  0  0
   -0.2816   -7.2577    0.0000 C   0  0  1  0  0  0  0  0  0  0  0  0
   -2.7525   -8.0606    0.0000 C   0  0  0  0  0  0  0  0  0  0  0  0
   -4.2197   -7.7487    0.0000 C   0  0  0  0  0  0  0  0  0  0  0  0
   -5.2234   -8.8634    0.0000 C   0  0  0  0  0  0  0  0  0  0  0  0
    0.1819   -8.6843    0.0000 C   0  0  0  0  0  0  0  0  0  0  0  0
   -2.2890   -9.4871    0.0000 C   0  0  0  0  0  0  0  0  0  0  0  0
   -4.7599  -10.2900    0.0000 C   0  0  0  0  0  0  0  0  0  0  0  0
   -0.8217   -9.7990    0.0000 C   0  0  0  0  0  0  0  0  0  0  0  0
   -3.2927  -10.6019    0.0000 C   0  0  0  0  0  0  0  0  0  0  0  0
   -5.7636  -11.4047    0.0000 O   0  0  0  0  0  0  0  0  0  0  0  0
   -4.6832   -6.3221    0.0000 C   0  0  0  0  0  0  0  0  0  0  0  0
   -0.0533   -3.2492    0.0000 C   0  0  0  0  0  0  0  0  0  0  0  0
  4  5  2  0  0  0  0
  5  6  1  0  0  0  0
  5  7  1  0  0  0  0
  6 10  1  0  0  0  0
  7  8  1  0  0  0  0
  7 11  1  0  0  0  0
  7 24  1  1  0  0  0
  8  9  1  0  0  0  0
  9 12  1  0  0  0  0
 10 11  1  0  0  0  0
 11  3  1  6  0  0  0
 11 13  1  0  0  0  0
 12  1  1  6  0  0  0
 12 13  1  0  0  0  0
 12 14  1  0  0  0  0
 13  2  1  1  0  0  0
 13 17  1  0  0  0  0
 14 18  2  0  0  0  0
 14 15  1  0  0  0  0
 15 16  2  0  0  0  0
 15 23  1  0  0  0  0
 16 19  1  0  0  0  0
 17 20  2  0  0  0  0
 18 21  1  0  0  0  0
 18 20  1  0  0  0  0
 19 21  2  0  0  0  0
 19 22  1  0  0  0  0
M  END
