117268
 OpenBabel03021519512D

 25 27  0  0  1  0  0  0  0  0999 V2000
  -13.3654   -0.6495    0.0000 C   0  0  0  0  0  0  0  0  0  0  0  0
  -13.3654   -2.1495    0.0000 N   0  0  0  0  0  0  0  0  0  0  0  0
  -12.0663   -2.8995    0.0000 C   0  0  0  0  0  0  0  0  0  0  0  0
  -10.7673   -2.1495    0.0000 N   0  0  0  0  0  0  0  0  0  0  0  0
  -10.7673   -0.6495    0.0000 C   0  0  3  0  0  0  0  0  0  0  0  0
  -12.0663    0.1005    0.0000 N   0  0  0  0  0  0  0  0  0  0  0  0
   -9.4683    1.6005    0.0000 C   0  0  0  0  0  0  0  0  0  0  0  0
   -9.4683    0.1005    0.0000 C   0  0  0  0  0  0  0  0  0  0  0  0
   -8.1692   -0.6495    0.0000 C   0  0  0  0  0  0  0  0  0  0  0  0
   -6.8702    0.1005    0.0000 C   0  0  0  0  0  0  0  0  0  0  0  0
   -6.8702    1.6005    0.0000 C   0  0  0  0  0  0  0  0  0  0  0  0
   -8.1692    2.3505    0.0000 C   0  0  0  0  0  0  0  0  0  0  0  0
   -9.4683   -2.8995    0.0000 C   0  0  0  0  0  0  0  0  0  0  0  0
   -9.4683   -4.3995    0.0000 C   0  0  0  0  0  0  0  0  0  0  0  0
   -8.1692   -5.1495    0.0000 C   0  0  0  0  0  0  0  0  0  0  0  0
   -6.8702   -4.3995    0.0000 C   0  0  0  0  0  0  0  0  0  0  0  0
   -6.8702   -2.8995    0.0000 C   0  0  0  0  0  0  0  0  0  0  0  0
   -8.1692   -2.1495    0.0000 C   0  0  0  0  0  0  0  0  0  0  0  0
   -5.5711    2.3505    0.0000 Cl  0  0  0  0  0  0  0  0  0  0  0  0
   -5.5711   -5.1495    0.0000 S   0  0  0  0  0  0  0  0  0  0  0  0
   -6.3211   -6.4486    0.0000 O   0  0  0  0  0  0  0  0  0  0  0  0
   -4.8211   -3.8505    0.0000 O   0  0  0  0  0  0  0  0  0  0  0  0
   -4.2721   -5.8995    0.0000 N   0  0  0  0  0  0  0  0  0  0  0  0
  -12.0663   -4.3995    0.0000 N   0  0  0  0  0  0  0  0  0  0  0  0
  -14.6644    0.1005    0.0000 N   0  0  0  0  0  0  0  0  0  0  0  0
  1  2  1  0  0  0  0
  1  6  2  0  0  0  0
  1 25  1  0  0  0  0
  2  3  2  0  0  0  0
  3  4  1  0  0  0  0
  3 24  1  0  0  0  0
  4  5  1  0  0  0  0
  4 13  1  0  0  0  0
  5  6  1  0  0  0  0
  5  8  1  0  0  0  0
  7  8  2  0  0  0  0
  7 12  1  0  0  0  0
  8  9  1  0  0  0  0
  9 10  2  0  0  0  0
 10 11  1  0  0  0  0
 11 12  2  0  0  0  0
 11 19  1  0  0  0  0
 13 14  2  0  0  0  0
 13 18  1  0  0  0  0
 14 15  1  0  0  0  0
 15 16  2  0  0  0  0
 16 17  1  0  0  0  0
 16 20  1  0  0  0  0
 17 18  2  0  0  0  0
 20 21  2  0  0  0  0
 20 22  2  0  0  0  0
 20 23  1  0  0  0  0
M  END
