61929
 OpenBabel03021519512D

 14 15  0  0  1  0  0  0  0  0999 V2000
   -5.4774   -7.2481    0.0000 Cl  0  0  0  0  0  0  0  0  0  0  0  0
   -6.5965   -3.8041    0.0000 Cl  0  0  0  0  0  0  0  0  0  0  0  0
   -3.1352   -6.9296    0.0000 Cl  0  0  0  0  0  0  0  0  0  0  0  0
   -4.5143   -2.6850    0.0000 Cl  0  0  0  0  0  0  0  0  0  0  0  0
   -2.6198   -1.6398    0.0000 O   0  0  0  0  0  0  0  0  0  0  0  0
    0.0203   -3.5580    0.0000 Cl  0  0  0  0  0  0  0  0  0  0  0  0
   -3.8334   -4.0215    0.0000 C   0  0  3  0  0  0  0  0  0  0  0  0
   -3.3698   -5.4481    0.0000 C   0  0  3  0  0  0  0  0  0  0  0  0
   -2.6198   -3.1398    0.0000 C   0  0  0  0  0  0  0  0  0  0  0  0
   -5.2599   -4.4850    0.0000 C   0  0  0  0  0  0  0  0  0  0  0  0
   -1.4063   -4.0215    0.0000 C   0  0  0  0  0  0  0  0  0  0  0  0
   -4.7964   -5.9116    0.0000 C   0  0  0  0  0  0  0  0  0  0  0  0
   -1.8698   -5.4481    0.0000 C   0  0  0  0  0  0  0  0  0  0  0  0
   -0.9881   -6.6616    0.0000 O   0  0  0  0  0  0  0  0  0  0  0  0
  1 12  1  0  0  0  0
  2 10  1  0  0  0  0
  3  8  1  0  0  0  0
  4  7  1  0  0  0  0
  5  9  2  0  0  0  0
  6 11  1  0  0  0  0
  7  8  1  0  0  0  0
  7  9  1  0  0  0  0
  7 10  1  0  0  0  0
  8 12  1  0  0  0  0
  8 13  1  0  0  0  0
  9 11  1  0  0  0  0
 10 12  2  0  0  0  0
 11 13  2  0  0  0  0
 13 14  1  0  0  0  0
M  END
