372221
 OpenBabel03021519512D

 17 18  0  0  0  0  0  0  0  0999 V2000
    0.7500    3.3481    0.0000 C   0  0  0  0  0  0  0  0  0  0  0  0
    1.5000    4.6471    0.0000 C   0  0  0  0  0  0  0  0  0  0  0  0
    1.5000    2.0490    0.0000 C   0  0  0  0  0  0  0  0  0  0  0  0
    3.0000    4.6471    0.0000 C   0  0  0  0  0  0  0  0  0  0  0  0
    3.0000    2.0490    0.0000 C   0  0  0  0  0  0  0  0  0  0  0  0
    3.7500    3.3481    0.0000 C   0  0  0  0  0  0  0  0  0  0  0  0
    5.2500    3.3481    0.0000 N   0  0  0  0  0  0  0  0  0  0  0  0
    5.2500    5.9462    0.0000 O   0  0  0  0  0  0  0  0  0  0  0  0
    6.0000    2.0490    0.0000 C   0  0  0  0  0  0  0  0  0  0  0  0
    6.0000    4.6471    0.0000 C   0  0  0  0  0  0  0  0  0  0  0  0
    7.5000    2.0490    0.0000 N   0  0  0  0  0  0  0  0  0  0  0  0
    7.5000    4.6471    0.0000 N   0  0  0  0  0  0  0  0  0  0  0  0
    8.2500    3.3481    0.0000 C   0  0  0  0  0  0  0  0  0  0  0  0
    3.7500    5.9462    0.0000 C   0  0  0  0  0  0  0  0  0  0  0  0
    3.7500    0.7500    0.0000 C   0  0  0  0  0  0  0  0  0  0  0  0
    9.7500    3.3481    0.0000 N   0  0  0  0  0  0  0  0  0  0  0  0
   10.5000    4.6471    0.0000 C   0  0  0  0  0  0  0  0  0  0  0  0
  1  2  2  0  0  0  0
  1  3  1  0  0  0  0
  2  4  1  0  0  0  0
  3  5  2  0  0  0  0
  4  6  2  0  0  0  0
  4 14  1  0  0  0  0
  5  6  1  0  0  0  0
  5 15  1  0  0  0  0
  6  7  1  0  0  0  0
  7 10  1  0  0  0  0
  7  9  1  0  0  0  0
  8 10  2  0  0  0  0
  9 11  2  0  0  0  0
 10 12  1  0  0  0  0
 11 13  1  0  0  0  0
 12 13  2  0  0  0  0
 13 16  1  0  0  0  0
 16 17  1  0  0  0  0
M  END
