163158
 OpenBabel03021519512D

 13 14  0  0  0  0  0  0  0  0999 V2000
    2.9780    4.5000    0.0000 C   0  0  0  0  0  0  0  0  0  0  0  0
    2.9780    3.0000    0.0000 C   0  0  0  0  0  0  0  0  0  0  0  0
    4.2770    5.2500    0.0000 N   0  0  0  0  0  0  0  0  0  0  0  0
    4.2770    2.2500    0.0000 C   0  0  0  0  0  0  0  0  0  0  0  0
    5.5761    3.0000    0.0000 C   0  0  0  0  0  0  0  0  0  0  0  0
    5.5761    4.5000    0.0000 C   0  0  0  0  0  0  0  0  0  0  0  0
    7.0027    4.9635    0.0000 N   0  0  0  0  0  0  0  0  0  0  0  0
    7.4662    6.3901    0.0000 H   0  0  0  0  0  0  0  0  0  0  0  0
    7.8843    3.7500    0.0000 N   0  0  0  0  0  0  0  0  0  0  0  0
    7.0027    2.5365    0.0000 C   0  0  0  0  0  0  0  0  0  0  0  0
    1.6790    5.2500    0.0000 C   0  0  0  0  0  0  0  0  0  0  0  0
    4.2770    0.7500    0.0000 O   0  0  0  0  0  0  0  0  0  0  0  0
    7.4662    1.1099    0.0000 O   0  0  0  0  0  0  0  0  0  0  0  0
  1  3  2  0  0  0  0
  1  2  1  0  0  0  0
  1 11  1  0  0  0  0
  2  4  2  0  0  0  0
  3  6  1  0  0  0  0
  4  5  1  0  0  0  0
  4 12  1  0  0  0  0
  5  6  2  0  0  0  0
  5 10  1  0  0  0  0
  6  7  1  0  0  0  0
  7  8  1  0  0  0  0
  7  9  1  0  0  0  0
  9 10  2  0  0  0  0
 10 13  1  0  0  0  0
M  END
