63543
 OpenBabel03021519512D

 27 30  0  0  1  0  0  0  0  0999 V2000
   -1.0602    3.3363    0.0000 O   0  0  0  0  0  0  0  0  0  0  0  0
    2.8370    8.5863    0.0000 O   0  0  0  0  0  0  0  0  0  0  0  0
    4.1360    4.8362    0.0000 H   0  0  0  0  0  0  0  0  0  0  0  0
    5.4350    7.0862    0.0000 H   0  0  0  0  0  0  0  0  0  0  0  0
    6.8909    4.8445    0.0000 H   0  0  0  0  0  0  0  0  0  0  0  0
    8.1607    8.2998    0.0000 C   0  0  2  0  0  0  0  0  0  0  0  0
    6.7341    7.8362    0.0000 C   0  0  1  0  0  0  0  0  0  0  0  0
    9.0424    7.0862    0.0000 C   0  0  0  0  0  0  0  0  0  0  0  0
    5.4350    8.5862    0.0000 C   0  0  0  0  0  0  0  0  0  0  0  0
    4.1360    7.8363    0.0000 C   0  0  0  0  0  0  0  0  0  0  0  0
    8.1607    5.8727    0.0000 C   0  0  0  0  0  0  0  0  0  0  0  0
    6.7341    6.3362    0.0000 C   0  0  1  0  0  0  0  0  0  0  0  0
    4.1360    6.3362    0.0000 C   0  0  1  0  0  0  0  0  0  0  0  0
    5.4350    5.5862    0.0000 C   0  0  1  0  0  0  0  0  0  0  0  0
    2.8370    5.5863    0.0000 C   0  0  1  0  0  0  0  0  0  0  0  0
    1.5379    6.3363    0.0000 C   0  0  0  0  0  0  0  0  0  0  0  0
    0.2389    5.5863    0.0000 C   0  0  0  0  0  0  0  0  0  0  0  0
    5.4350    4.0862    0.0000 C   0  0  0  0  0  0  0  0  0  0  0  0
    2.8370    4.0863    0.0000 C   0  0  0  0  0  0  0  0  0  0  0  0
    0.2389    4.0863    0.0000 C   0  0  0  0  0  0  0  0  0  0  0  0
    4.1360    3.3362    0.0000 C   0  0  0  0  0  0  0  0  0  0  0  0
    1.5379    3.3363    0.0000 C   0  0  0  0  0  0  0  0  0  0  0  0
    2.8370    7.0863    0.0000 C   0  0  0  0  0  0  0  0  0  0  0  0
    6.8909    9.3280    0.0000 C   0  0  0  0  0  0  0  0  0  0  0  0
    8.6242    9.7264    0.0000 C   0  0  0  0  0  0  0  0  0  0  0  0
    7.6205   10.8411    0.0000 O   0  0  0  0  0  0  0  0  0  0  0  0
   10.0914   10.0382    0.0000 C   0  0  0  0  0  0  0  0  0  0  0  0
  1 20  2  0  0  0  0
  2 10  2  0  0  0  0
  6  7  1  0  0  0  0
  6  8  1  0  0  0  0
  6 25  1  1  0  0  0
  7  9  1  0  0  0  0
  7 12  1  0  0  0  0
  7 24  1  1  0  0  0
  8 11  1  0  0  0  0
  9 10  1  0  0  0  0
 10 13  1  0  0  0  0
 11 12  1  0  0  0  0
 12  5  1  6  0  0  0
 12 14  1  0  0  0  0
 13  3  1  6  0  0  0
 13 15  1  0  0  0  0
 13 14  1  0  0  0  0
 14  4  1  1  0  0  0
 14 18  1  0  0  0  0
 15 16  1  0  0  0  0
 15 19  1  0  0  0  0
 15 23  1  1  0  0  0
 16 17  2  0  0  0  0
 17 20  1  0  0  0  0
 18 21  1  0  0  0  0
 19 22  2  0  0  0  0
 19 21  1  0  0  0  0
 20 22  1  0  0  0  0
 25 26  2  0  0  0  0
 25 27  1  0  0  0  0
M  END
