337832
 OpenBabel03021519512D

 30 30  0  0  0  0  0  0  0  0999 V2000
   -3.8250    5.2672    0.0000 N   0  0  0  0  0  0  0  0  0  0  0  0
   -3.0750    6.5663    0.0000 C   0  0  0  0  0  0  0  0  0  0  0  0
   -3.0750    3.9682    0.0000 C   0  0  0  0  0  0  0  0  0  0  0  0
   -1.5750    3.9682    0.0000 N   0  0  0  0  0  0  0  0  0  0  0  0
   -1.5750    6.5663    0.0000 N   0  0  0  0  0  0  0  0  0  0  0  0
   -0.8250    5.2672    0.0000 C   0  0  0  0  0  0  0  0  0  0  0  0
   -0.8250    2.6692    0.0000 H   0  0  0  0  0  0  0  0  0  0  0  0
    2.9250    9.1644    0.0000 O   0  0  0  0  0  0  0  0  0  0  0  0
    3.6750   10.4634    0.0000 C   0  0  0  0  0  0  0  0  0  0  0  0
    5.1750   10.4634    0.0000 C   0  0  0  0  0  0  0  0  0  0  0  0
    2.9250   11.7624    0.0000 C   0  0  0  0  0  0  0  0  0  0  0  0
    3.6750   13.0615    0.0000 C   0  0  0  0  0  0  0  0  0  0  0  0
    5.9250   11.7624    0.0000 C   0  0  0  0  0  0  0  0  0  0  0  0
    5.1750   13.0615    0.0000 C   0  0  0  0  0  0  0  0  0  0  0  0
   -3.8250    7.8653    0.0000 N   0  0  0  0  0  0  0  0  0  0  0  0
   -4.4845    3.4552    0.0000 C   0  0  0  0  0  0  0  0  0  0  0  0
   -2.8145    2.4910    0.0000 C   0  0  0  0  0  0  0  0  0  0  0  0
    0.6750    5.2672    0.0000 N   0  0  0  0  0  0  0  0  0  0  0  0
    1.4250    6.5663    0.0000 C   0  0  0  0  0  0  0  0  0  0  0  0
    0.6750    7.8653    0.0000 C   0  0  0  0  0  0  0  0  0  0  0  0
    1.4250    9.1644    0.0000 C   0  0  0  0  0  0  0  0  0  0  0  0
    5.9250   14.3605    0.0000 N   0  3  0  0  0  0  0  0  0  0  0  0
    5.1750   15.6595    0.0000 O   0  5  0  0  0  0  0  0  0  0  0  0
    7.4250   14.3605    0.0000 O   0  0  0  0  0  0  0  0  0  0  0  0
   -4.7985   13.2771    0.0000 C   0  0  0  0  0  0  0  0  0  0  0  0
   -3.4995   14.0271    0.0000 C   0  0  0  0  0  0  0  0  0  0  0  0
   -4.7985   11.7771    0.0000 S   0  0  0  0  0  0  0  0  0  0  0  0
   -6.2985   11.7771    0.0000 O   0  0  0  0  0  0  0  0  0  0  0  0
   -3.2985   11.7771    0.0000 O   0  0  0  0  0  0  0  0  0  0  0  0
   -4.7985   10.2771    0.0000 O   0  0  0  0  0  0  0  0  0  0  0  0
  1  2  2  0  0  0  0
  1  3  1  0  0  0  0
  2  5  1  0  0  0  0
  2 15  1  0  0  0  0
  3  4  1  0  0  0  0
  3 16  1  0  0  0  0
  3 17  1  0  0  0  0
  4  6  1  0  0  0  0
  4  7  1  0  0  0  0
  5  6  2  0  0  0  0
  6 18  1  0  0  0  0
  8  9  1  0  0  0  0
  8 21  1  0  0  0  0
  9 11  2  0  0  0  0
  9 10  1  0  0  0  0
 10 13  2  0  0  0  0
 11 12  1  0  0  0  0
 12 14  2  0  0  0  0
 13 14  1  0  0  0  0
 14 22  1  0  0  0  0
 18 19  1  0  0  0  0
 19 20  1  0  0  0  0
 20 21  1  0  0  0  0
 22 23  1  0  0  0  0
 22 24  2  0  0  0  0
 25 26  1  0  0  0  0
 25 27  1  0  0  0  0
 27 28  2  0  0  0  0
 27 29  2  0  0  0  0
 27 30  1  0  0  0  0
M  CHG  2  22   1  23  -1
M  END
