121182
 OpenBabel03021519512D

 19 21  0  0  1  0  0  0  0  0999 V2000
    2.3236   -1.0245    0.0000 N   0  0  0  0  0  0  0  0  0  0  0  0
    3.6226   -3.2745    0.0000 N   0  0  0  0  0  0  0  0  0  0  0  0
    6.3482   -0.5610    0.0000 N   0  0  0  0  0  0  0  0  0  0  0  0
    6.3482   -2.9880    0.0000 N   0  0  0  0  0  0  0  0  0  0  0  0
    8.2383   -4.8782    0.0000 O   0  0  0  0  0  0  0  0  0  0  0  0
    3.6226   -0.2745    0.0000 C   0  0  0  0  0  0  0  0  0  0  0  0
    4.9216   -1.0245    0.0000 C   0  0  0  0  0  0  0  0  0  0  0  0
    4.9216   -2.5245    0.0000 C   0  0  0  0  0  0  0  0  0  0  0  0
    7.2299   -1.7745    0.0000 C   0  0  0  0  0  0  0  0  0  0  0  0
    2.3236   -2.5245    0.0000 C   0  0  0  0  0  0  0  0  0  0  0  0
    8.2383   -6.3782    0.0000 C   0  0  3  0  0  0  0  0  0  0  0  0
    6.8118   -6.8417    0.0000 C   0  0  3  0  0  0  0  0  0  0  0  0
    5.9301   -5.6282    0.0000 C   0  0  3  0  0  0  0  0  0  0  0  0
    6.8118   -4.4146    0.0000 C   0  0  3  0  0  0  0  0  0  0  0  0
    3.6226    1.2255    0.0000 N   0  0  0  0  0  0  0  0  0  0  0  0
    4.4301   -5.6282    0.0000 N   0  0  0  0  0  0  0  0  0  0  0  0
    6.3482   -8.2683    0.0000 O   0  0  0  0  0  0  0  0  0  0  0  0
    9.4519   -7.2598    0.0000 C   0  0  0  0  0  0  0  0  0  0  0  0
    9.2951   -8.7516    0.0000 O   0  0  0  0  0  0  0  0  0  0  0  0
  1  6  2  0  0  0  0
  1 10  1  0  0  0  0
  2 10  2  0  0  0  0
  2  8  1  0  0  0  0
  3  9  2  0  0  0  0
  3  7  1  0  0  0  0
  4  8  1  0  0  0  0
  4  9  1  0  0  0  0
  4 14  1  0  0  0  0
  5 11  1  0  0  0  0
  5 14  1  0  0  0  0
  6  7  1  0  0  0  0
  6 15  1  0  0  0  0
  7  8  2  0  0  0  0
 11 12  1  0  0  0  0
 11 18  1  0  0  0  0
 12 13  1  0  0  0  0
 12 17  1  0  0  0  0
 13 14  1  0  0  0  0
 13 16  1  0  0  0  0
 18 19  1  0  0  0  0
M  END
