13791
 OpenBabel03021519512D

 23 24  0  0  0  0  0  0  0  0999 V2000
   -1.8246    2.7103    0.0000 O   0  0  0  0  0  0  0  0  0  0  0  0
   11.0108    7.6714    0.0000 O   0  0  0  0  0  0  0  0  0  0  0  0
    5.6648    7.3096    0.0000 C   0  0  0  0  0  0  0  0  0  0  0  0
    6.9638    8.0596    0.0000 C   0  0  0  0  0  0  0  0  0  0  0  0
    5.6648    5.8096    0.0000 C   0  0  0  0  0  0  0  0  0  0  0  0
    8.2628    7.3096    0.0000 C   0  0  0  0  0  0  0  0  0  0  0  0
    6.9638    5.0596    0.0000 C   0  0  0  0  0  0  0  0  0  0  0  0
    4.3657    5.0596    0.0000 C   0  0  0  0  0  0  0  0  0  0  0  0
    3.0667    5.8096    0.0000 C   0  0  0  0  0  0  0  0  0  0  0  0
    1.7677    5.0596    0.0000 C   0  0  0  0  0  0  0  0  0  0  0  0
    4.3657    3.5596    0.0000 C   0  0  0  0  0  0  0  0  0  0  0  0
    1.7677    3.5596    0.0000 C   0  0  0  0  0  0  0  0  0  0  0  0
    8.2628    5.8096    0.0000 C   0  0  0  0  0  0  0  0  0  0  0  0
    3.0667    2.8096    0.0000 C   0  0  0  0  0  0  0  0  0  0  0  0
   -0.3757    2.3221    0.0000 As  0  0  0  0  0  0  0  0  0  0  0  0
    0.3742    3.6212    0.0000 O   0  0  0  0  0  0  0  0  0  0  0  0
    0.0125    0.8732    0.0000 O   0  0  0  0  0  0  0  0  0  0  0  0
    0.4686    5.8096    0.0000 N   0  3  0  0  0  0  0  0  0  0  0  0
   -0.8304    5.0596    0.0000 O   0  5  0  0  0  0  0  0  0  0  0  0
    0.4686    7.3096    0.0000 O   0  0  0  0  0  0  0  0  0  0  0  0
    9.5619    8.0596    0.0000 As  0  0  0  0  0  0  0  0  0  0  0  0
   10.8609    7.3096    0.0000 O   0  0  0  0  0  0  0  0  0  0  0  0
    9.3661    9.5468    0.0000 O   0  0  0  0  0  0  0  0  0  0  0  0
  1 15  2  0  0  0  0
  2 21  2  0  0  0  0
  3  4  2  0  0  0  0
  3  5  1  0  0  0  0
  4  6  1  0  0  0  0
  5  7  2  0  0  0  0
  5  8  1  0  0  0  0
  6 13  2  0  0  0  0
  6 21  1  0  0  0  0
  7 13  1  0  0  0  0
  8  9  2  0  0  0  0
  8 11  1  0  0  0  0
  9 10  1  0  0  0  0
 10 12  2  0  0  0  0
 10 18  1  0  0  0  0
 11 14  2  0  0  0  0
 12 14  1  0  0  0  0
 12 15  1  0  0  0  0
 15 16  1  0  0  0  0
 15 17  1  0  0  0  0
 18 19  1  0  0  0  0
 18 20  2  0  0  0  0
 21 22  1  0  0  0  0
 21 23  1  0  0  0  0
M  CHG  2  18   1  19  -1
M  END
