326921
 OpenBabel03021519512D

 18 19  0  0  0  0  0  0  0  0999 V2000
    3.6496  -13.3654    0.0000 C   0  0  0  0  0  0  0  0  0  0  0  0
    2.1496  -13.3654    0.0000 C   0  0  0  0  0  0  0  0  0  0  0  0
    4.3996  -12.0663    0.0000 C   0  0  0  0  0  0  0  0  0  0  0  0
    1.3996  -12.0663    0.0000 N   0  0  0  0  0  0  0  0  0  0  0  0
    3.6496  -10.7673    0.0000 C   0  0  0  0  0  0  0  0  0  0  0  0
    2.1496  -10.7673    0.0000 C   0  0  0  0  0  0  0  0  0  0  0  0
    1.3995   -9.4683    0.0000 S   0  0  0  0  0  0  0  0  0  0  0  0
   -0.0777   -4.5326    0.0000 S   0  0  0  0  0  0  0  0  0  0  0  0
   -1.0419   -3.3835    0.0000 C   0  0  0  0  0  0  0  0  0  0  0  0
   -0.5288   -1.9740    0.0000 C   0  0  0  0  0  0  0  0  0  0  0  0
   -1.4930   -0.8249    0.0000 C   0  0  0  0  0  0  0  0  0  0  0  0
   -2.5191   -3.6440    0.0000 N   0  0  0  0  0  0  0  0  0  0  0  0
   -3.4833   -2.4949    0.0000 C   0  0  0  0  0  0  0  0  0  0  0  0
   -2.9702   -1.0854    0.0000 C   0  0  0  0  0  0  0  0  0  0  0  0
    2.1495   -8.1692    0.0000 C   0  0  0  0  0  0  0  0  0  0  0  0
    1.3995   -6.8702    0.0000 C   0  0  0  0  0  0  0  0  0  0  0  0
    2.1495   -5.5712    0.0000 C   0  0  0  0  0  0  0  0  0  0  0  0
    1.3995   -4.2721    0.0000 C   0  0  0  0  0  0  0  0  0  0  0  0
  1  3  2  0  0  0  0
  1  2  1  0  0  0  0
  2  4  2  0  0  0  0
  3  5  1  0  0  0  0
  4  6  1  0  0  0  0
  5  6  2  0  0  0  0
  6  7  1  0  0  0  0
  7 15  1  0  0  0  0
  8  9  1  0  0  0  0
  8 18  1  0  0  0  0
  9 10  1  0  0  0  0
  9 12  2  0  0  0  0
 10 11  2  0  0  0  0
 11 14  1  0  0  0  0
 12 13  1  0  0  0  0
 13 14  2  0  0  0  0
 15 16  1  0  0  0  0
 16 17  2  0  0  0  0
 17 18  1  0  0  0  0
M  END
