26692
 OpenBabel03021519512D

 22 24  0  0  1  0  0  0  0  0999 V2000
   -5.3196   -1.8975    0.0000 O   0  0  0  0  0  0  0  0  0  0  0  0
   -3.8637   -4.1392    0.0000 N   0  0  0  0  0  0  0  0  0  0  0  0
   -1.7047   -6.4093    0.0000 C   0  0  0  0  0  0  0  0  0  0  0  0
   -0.7010   -7.5240    0.0000 C   0  0  0  0  0  0  0  0  0  0  0  0
   -3.1719   -6.7212    0.0000 C   0  0  0  0  0  0  0  0  0  0  0  0
   -1.1645   -8.9506    0.0000 C   0  0  0  0  0  0  0  0  0  0  0  0
   -3.6354   -8.1478    0.0000 C   0  0  0  0  0  0  0  0  0  0  0  0
   -4.1756   -5.6065    0.0000 C   0  0  0  0  0  0  0  0  0  0  0  0
   -5.6674   -5.7633    0.0000 C   0  0  3  0  0  0  0  0  0  0  0  0
   -6.4174   -7.0623    0.0000 C   0  0  0  0  0  0  0  0  0  0  0  0
   -2.6318   -9.2625    0.0000 C   0  0  0  0  0  0  0  0  0  0  0  0
   -7.9174   -7.0623    0.0000 C   0  0  0  0  0  0  0  0  0  0  0  0
   -5.6674   -8.3613    0.0000 C   0  0  0  0  0  0  0  0  0  0  0  0
   -6.4174   -9.6604    0.0000 C   0  0  0  0  0  0  0  0  0  0  0  0
   -8.6674   -8.3613    0.0000 C   0  0  0  0  0  0  0  0  0  0  0  0
   -7.9174   -9.6604    0.0000 C   0  0  0  0  0  0  0  0  0  0  0  0
   -5.1628   -3.3892    0.0000 C   0  0  0  0  0  0  0  0  0  0  0  0
   -0.1608  -10.0653    0.0000 O   0  0  0  0  0  0  0  0  0  0  0  0
    1.3064   -9.7535    0.0000 C   0  0  0  0  0  0  0  0  0  0  0  0
   -8.6674  -10.9594    0.0000 O   0  0  0  0  0  0  0  0  0  0  0  0
  -10.1674  -10.9594    0.0000 C   0  0  0  0  0  0  0  0  0  0  0  0
   -6.2775   -4.3929    0.0000 N   0  0  0  0  0  0  0  0  0  0  0  0
  1 17  2  0  0  0  0
  2  8  2  0  0  0  0
  2 17  1  0  0  0  0
  3  4  2  0  0  0  0
  3  5  1  0  0  0  0
  4  6  1  0  0  0  0
  5  7  2  0  0  0  0
  5  8  1  0  0  0  0
  6 11  2  0  0  0  0
  6 18  1  0  0  0  0
  7 11  1  0  0  0  0
  8  9  1  0  0  0  0
  9 10  1  0  0  0  0
  9 22  1  0  0  0  0
 10 13  2  0  0  0  0
 10 12  1  0  0  0  0
 12 15  2  0  0  0  0
 13 14  1  0  0  0  0
 14 16  2  0  0  0  0
 15 16  1  0  0  0  0
 16 20  1  0  0  0  0
 17 22  1  0  0  0  0
 18 19  1  0  0  0  0
 20 21  1  0  0  0  0
M  END
