278741
 OpenBabel03021519512D

 13 14  0  0  1  0  0  0  0  0999 V2000
   -4.4628    5.5085    0.0000 C   0  0  0  0  0  0  0  0  0  0  0  0
   -4.4628    7.0085    0.0000 C   0  0  0  0  0  0  0  0  0  0  0  0
   -3.1638    4.7585    0.0000 N   0  0  0  0  0  0  0  0  0  0  0  0
   -2.8519    3.2913    0.0000 C   0  0  0  0  0  0  0  0  0  0  0  0
   -3.1638    7.7585    0.0000 C   0  0  0  0  0  0  0  0  0  0  0  0
   -1.8647    7.0085    0.0000 C   0  0  0  0  0  0  0  0  0  0  0  0
   -1.8647    5.5085    0.0000 C   0  0  0  0  0  0  0  0  0  0  0  0
   -0.7500    4.5048    0.0000 N   0  0  0  0  0  0  0  0  0  0  0  0
   -1.3601    3.1345    0.0000 N   0  0  0  0  0  0  0  0  0  0  0  0
   -3.3921    0.7500    0.0000 C   0  0  0  0  0  0  0  0  0  0  0  0
   -5.3228    2.4884    0.0000 O   0  0  0  0  0  0  0  0  0  0  0  0
   -3.8556    2.1766    0.0000 C   0  0  3  0  0  0  0  0  0  0  0  0
   -3.1638    9.2585    0.0000 C   0  0  0  0  0  0  0  0  0  0  0  0
  1  2  2  0  0  0  0
  1  3  1  0  0  0  0
  2  5  1  0  0  0  0
  3  7  1  0  0  0  0
  3  4  1  0  0  0  0
  4  9  2  0  0  0  0
  4 12  1  0  0  0  0
  5  6  2  0  0  0  0
  5 13  1  0  0  0  0
  6  7  1  0  0  0  0
  7  8  2  0  0  0  0
  8  9  1  0  0  0  0
 10 12  1  0  0  0  0
 11 12  1  0  0  0  0
M  END
