118628
 OpenBabel03021519512D

 21 23  0  0  1  0  0  0  0  0999 V2000
   -6.2207   -4.7745    0.0000 O   0  0  0  0  0  0  0  0  0  0  0  0
   -3.6226   -0.2745    0.0000 C   0  0  0  0  0  0  0  0  0  0  0  0
   -4.9216   -1.0245    0.0000 C   0  0  0  0  0  0  0  0  0  0  0  0
   -2.3236   -1.0245    0.0000 C   0  0  0  0  0  0  0  0  0  0  0  0
   -6.2207   -0.2745    0.0000 C   0  0  3  0  0  0  0  0  0  0  0  0
   -7.5197   -1.0245    0.0000 C   0  0  3  0  0  0  0  0  0  0  0  0
   -8.8188   -0.2745    0.0000 C   0  0  3  0  0  0  0  0  0  0  0  0
  -10.1178   -1.0245    0.0000 C   0  0  0  0  0  0  0  0  0  0  0  0
   -2.3236   -2.5245    0.0000 C   0  0  0  0  0  0  0  0  0  0  0  0
   -4.9216   -2.5245    0.0000 C   0  0  0  0  0  0  0  0  0  0  0  0
   -7.5197   -2.5245    0.0000 C   0  0  3  0  0  0  0  0  0  0  0  0
  -10.1178   -2.5245    0.0000 C   0  0  0  0  0  0  0  0  0  0  0  0
   -3.6226   -3.2745    0.0000 C   0  0  0  0  0  0  0  0  0  0  0  0
   -6.2207   -3.2745    0.0000 C   0  0  0  0  0  0  0  0  0  0  0  0
   -8.8188   -3.2745    0.0000 C   0  0  0  0  0  0  0  0  0  0  0  0
   -8.8188    1.2255    0.0000 O   0  0  0  0  0  0  0  0  0  0  0  0
  -10.1178    1.9755    0.0000 C   0  0  0  0  0  0  0  0  0  0  0  0
  -11.4168    1.2255    0.0000 O   0  0  0  0  0  0  0  0  0  0  0  0
  -10.1178    3.4755    0.0000 C   0  0  0  0  0  0  0  0  0  0  0  0
   -6.2207    1.2255    0.0000 O   0  0  0  0  0  0  0  0  0  0  0  0
   -3.6226    1.2255    0.0000 O   0  0  0  0  0  0  0  0  0  0  0  0
  1 14  2  0  0  0  0
  2  4  2  0  0  0  0
  2  3  1  0  0  0  0
  2 21  1  0  0  0  0
  3 10  2  0  0  0  0
  3  5  1  0  0  0  0
  4  9  1  0  0  0  0
  5  6  1  0  0  0  0
  5 20  1  0  0  0  0
  6  7  1  0  0  0  0
  6 11  1  0  0  0  0
  7  8  1  0  0  0  0
  7 16  1  0  0  0  0
  8 12  2  0  0  0  0
  9 13  2  0  0  0  0
 10 13  1  0  0  0  0
 10 14  1  0  0  0  0
 11 15  1  0  0  0  0
 11 14  1  0  0  0  0
 12 15  1  0  0  0  0
 16 17  1  0  0  0  0
 17 18  2  0  0  0  0
 17 19  1  0  0  0  0
M  END
