150114
 OpenBabel03021519512D

 23 25  0  0  0  0  0  0  0  0999 V2000
    2.2717   -4.2496    0.0000 N   0  0  0  0  0  0  0  0  0  0  0  0
    5.2236   -3.2005    0.0000 C   0  0  0  0  0  0  0  0  0  0  0  0
    4.9118   -4.6678    0.0000 C   0  0  0  0  0  0  0  0  0  0  0  0
    6.6502   -2.7370    0.0000 C   0  0  0  0  0  0  0  0  0  0  0  0
    7.7649   -3.7407    0.0000 C   0  0  0  0  0  0  0  0  0  0  0  0
    6.0265   -5.6715    0.0000 C   0  0  0  0  0  0  0  0  0  0  0  0
    3.4852   -5.1313    0.0000 C   0  0  0  0  0  0  0  0  0  0  0  0
    3.0217   -6.5579    0.0000 C   0  0  0  0  0  0  0  0  0  0  0  0
    1.5217   -6.5579    0.0000 C   0  0  0  0  0  0  0  0  0  0  0  0
    1.0581   -5.1313    0.0000 C   0  0  0  0  0  0  0  0  0  0  0  0
    7.4531   -5.2079    0.0000 C   0  0  0  0  0  0  0  0  0  0  0  0
    1.2501   -9.1417    0.0000 C   0  0  0  0  0  0  0  0  0  0  0  0
    0.3684  -10.3553    0.0000 C   0  0  0  0  0  0  0  0  0  0  0  0
    2.7419   -9.2985    0.0000 C   0  0  0  0  0  0  0  0  0  0  0  0
    3.3520  -10.6688    0.0000 C   0  0  0  0  0  0  0  0  0  0  0  0
    0.9785  -11.7256    0.0000 C   0  0  0  0  0  0  0  0  0  0  0  0
    2.4703  -11.8824    0.0000 C   0  0  0  0  0  0  0  0  0  0  0  0
    0.6400   -7.7714    0.0000 C   0  0  0  0  0  0  0  0  0  0  0  0
   -0.8518   -7.6146    0.0000 O   0  0  0  0  0  0  0  0  0  0  0  0
    2.2717   -2.7496    0.0000 C   0  0  0  0  0  0  0  0  0  0  0  0
    0.7717   -2.7496    0.0000 C   0  0  0  0  0  0  0  0  0  0  0  0
    2.2717   -1.2496    0.0000 C   0  0  0  0  0  0  0  0  0  0  0  0
    3.7717   -2.7496    0.0000 C   0  0  0  0  0  0  0  0  0  0  0  0
  1  7  1  0  0  0  0
  1 10  1  0  0  0  0
  1 20  1  0  0  0  0
  2  4  2  0  0  0  0
  2  3  1  0  0  0  0
  3  6  2  0  0  0  0
  3  7  1  0  0  0  0
  4  5  1  0  0  0  0
  5 11  2  0  0  0  0
  6 11  1  0  0  0  0
  7  8  2  0  0  0  0
  8  9  1  0  0  0  0
  9 10  2  0  0  0  0
  9 18  1  0  0  0  0
 12 14  2  0  0  0  0
 12 13  1  0  0  0  0
 12 18  1  0  0  0  0
 13 16  2  0  0  0  0
 14 15  1  0  0  0  0
 15 17  2  0  0  0  0
 16 17  1  0  0  0  0
 18 19  2  0  0  0  0
 20 21  1  0  0  0  0
 20 22  1  0  0  0  0
 20 23  1  0  0  0  0
M  END
