288686
 OpenBabel03021519512D

 13 14  0  0  0  0  0  0  0  0999 V2000
    1.7577   -0.0445    0.0000 C   0  0  0  0  0  0  0  0  0  0  0  0
    1.7577   -1.5445    0.0000 C   0  0  0  0  0  0  0  0  0  0  0  0
    3.0568    0.7055    0.0000 C   0  0  0  0  0  0  0  0  0  0  0  0
    3.0568   -2.2945    0.0000 C   0  0  0  0  0  0  0  0  0  0  0  0
    4.3558   -0.0445    0.0000 C   0  0  0  0  0  0  0  0  0  0  0  0
    4.3558   -1.5445    0.0000 C   0  0  0  0  0  0  0  0  0  0  0  0
    5.6549   -2.2945    0.0000 C   0  0  0  0  0  0  0  0  0  0  0  0
    5.6549    0.7055    0.0000 C   0  0  0  0  0  0  0  0  0  0  0  0
    5.6549    2.2055    0.0000 Cl  0  0  0  0  0  0  0  0  0  0  0  0
    6.9539   -1.5445    0.0000 N   0  0  0  0  0  0  0  0  0  0  0  0
    6.9539   -0.0445    0.0000 C   0  0  0  0  0  0  0  0  0  0  0  0
    5.6549   -3.7945    0.0000 C   0  0  0  0  0  0  0  0  0  0  0  0
    5.6549   -5.2945    0.0000 N   0  0  0  0  0  0  0  0  0  0  0  0
  1  3  2  0  0  0  0
  1  2  1  0  0  0  0
  2  4  2  0  0  0  0
  3  5  1  0  0  0  0
  4  6  1  0  0  0  0
  5  8  1  0  0  0  0
  5  6  2  0  0  0  0
  6  7  1  0  0  0  0
  7 10  2  0  0  0  0
  7 12  1  0  0  0  0
  8  9  1  0  0  0  0
  8 11  2  0  0  0  0
 10 11  1  0  0  0  0
 12 13  3  0  0  0  0
M  END
