338106
 OpenBabel03021519512D

 19 21  0  0  0  0  0  0  0  0999 V2000
   -1.9413   -0.6468    0.0000 N   0  0  0  0  0  0  0  0  0  0  0  0
   -2.6913   -1.9459    0.0000 N   0  0  0  0  0  0  0  0  0  0  0  0
    0.6407    0.0450    0.0000 H   0  0  0  0  0  0  0  0  0  0  0  0
   -0.4741   -0.9587    0.0000 N   0  0  0  0  0  0  0  0  0  0  0  0
   -1.6876   -3.0606    0.0000 N   0  0  0  0  0  0  0  0  0  0  0  0
   -0.3173   -2.4505    0.0000 C   0  0  0  0  0  0  0  0  0  0  0  0
    0.9818   -3.2005    0.0000 N   0  0  0  0  0  0  0  0  0  0  0  0
    2.2808   -2.4505    0.0000 N   0  0  0  0  0  0  0  0  0  0  0  0
    3.5798   -3.2005    0.0000 C   0  0  0  0  0  0  0  0  0  0  0  0
    3.5798   -4.7005    0.0000 C   0  0  0  0  0  0  0  0  0  0  0  0
    4.8789   -2.4505    0.0000 C   0  0  0  0  0  0  0  0  0  0  0  0
    4.8789   -5.4505    0.0000 C   0  0  0  0  0  0  0  0  0  0  0  0
    6.1779   -4.7005    0.0000 C   0  0  0  0  0  0  0  0  0  0  0  0
    6.1779   -3.2005    0.0000 C   0  0  0  0  0  0  0  0  0  0  0  0
    7.4770   -2.4505    0.0000 C   0  0  0  0  0  0  0  0  0  0  0  0
    7.4770   -5.4505    0.0000 C   0  0  0  0  0  0  0  0  0  0  0  0
    8.7760   -3.2005    0.0000 C   0  0  0  0  0  0  0  0  0  0  0  0
    8.7760   -4.7005    0.0000 C   0  0  0  0  0  0  0  0  0  0  0  0
    4.8789   -0.9505    0.0000 O   0  0  0  0  0  0  0  0  0  0  0  0
  1  4  1  0  0  0  0
  1  2  2  0  0  0  0
  2  5  1  0  0  0  0
  3  4  1  0  0  0  0
  4  6  1  0  0  0  0
  5  6  2  0  0  0  0
  6  7  1  0  0  0  0
  7  8  2  0  0  0  0
  8  9  1  0  0  0  0
  9 11  2  0  0  0  0
  9 10  1  0  0  0  0
 10 12  2  0  0  0  0
 11 14  1  0  0  0  0
 11 19  1  0  0  0  0
 12 13  1  0  0  0  0
 13 14  2  0  0  0  0
 13 16  1  0  0  0  0
 14 15  1  0  0  0  0
 15 17  2  0  0  0  0
 16 18  2  0  0  0  0
 17 18  1  0  0  0  0
M  END
