43409
 OpenBabel03021519512D

 19 21  0  0  1  0  0  0  0  0999 V2000
  -11.9084   -0.0173    0.0000 N   0  0  0  0  0  0  0  0  0  0  0  0
  -12.1800    2.5666    0.0000 S   0  0  0  0  0  0  0  0  0  0  0  0
   -9.5350   -1.0740    0.0000 N   0  0  0  0  0  0  0  0  0  0  0  0
   -8.6533   -2.2876    0.0000 H   0  0  0  0  0  0  0  0  0  0  0  0
   -8.9249    2.7233    0.0000 N   0  0  0  0  0  0  0  0  0  0  0  0
   -7.4983    0.7598    0.0000 N   0  0  0  0  0  0  0  0  0  0  0  0
   -4.9144    0.4882    0.0000 O   0  0  0  0  0  0  0  0  0  0  0  0
  -11.2983    1.3530    0.0000 C   0  0  0  0  0  0  0  0  0  0  0  0
   -9.8065    1.5098    0.0000 C   0  0  0  0  0  0  0  0  0  0  0  0
   -8.9249    0.2963    0.0000 C   0  0  0  0  0  0  0  0  0  0  0  0
   -7.4983    2.2598    0.0000 C   0  0  0  0  0  0  0  0  0  0  0  0
  -11.0268   -1.2308    0.0000 C   0  0  0  0  0  0  0  0  0  0  0  0
   -3.7009   -0.3934    0.0000 C   0  0  3  0  0  0  0  0  0  0  0  0
   -3.8577   -1.8852    0.0000 C   0  0  0  0  0  0  0  0  0  0  0  0
   -5.2280   -2.4953    0.0000 C   0  0  0  0  0  0  0  0  0  0  0  0
   -6.4415   -1.6136    0.0000 C   0  0  0  0  0  0  0  0  0  0  0  0
   -6.2847   -0.1219    0.0000 C   0  0  3  0  0  0  0  0  0  0  0  0
   -2.3306    0.2167    0.0000 C   0  0  0  0  0  0  0  0  0  0  0  0
   -1.1171   -0.6650    0.0000 O   0  0  0  0  0  0  0  0  0  0  0  0
  1 12  2  0  0  0  0
  1  8  1  0  0  0  0
  2  8  2  0  0  0  0
  3 10  1  0  0  0  0
  3 12  1  0  0  0  0
  3  4  1  0  0  0  0
  5 11  2  0  0  0  0
  5  9  1  0  0  0  0
  6 10  1  0  0  0  0
  6 11  1  0  0  0  0
  6 17  1  0  0  0  0
  7 13  1  0  0  0  0
  7 17  1  0  0  0  0
  8  9  1  0  0  0  0
  9 10  2  0  0  0  0
 13 14  1  0  0  0  0
 13 18  1  0  0  0  0
 14 15  1  0  0  0  0
 15 16  1  0  0  0  0
 16 17  1  0  0  0  0
 18 19  1  0  0  0  0
M  END
