287065
 OpenBabel03021519512D

 14 15  0  0  0  0  0  0  0  0999 V2000
    3.6226    0.2745    0.0000 C   0  0  0  0  0  0  0  0  0  0  0  0
    3.6226   -1.2255    0.0000 C   0  0  0  0  0  0  0  0  0  0  0  0
    4.9216    1.0245    0.0000 C   0  0  0  0  0  0  0  0  0  0  0  0
    4.9216   -1.9755    0.0000 C   0  0  0  0  0  0  0  0  0  0  0  0
    6.2207    0.2745    0.0000 C   0  0  0  0  0  0  0  0  0  0  0  0
    6.2207   -1.2255    0.0000 C   0  0  0  0  0  0  0  0  0  0  0  0
    7.6473   -1.6890    0.0000 N   0  0  0  0  0  0  0  0  0  0  0  0
    7.6473    0.7381    0.0000 N   0  0  0  0  0  0  0  0  0  0  0  0
    8.1108   -3.1156    0.0000 H   0  0  0  0  0  0  0  0  0  0  0  0
    8.5289   -0.4755    0.0000 C   0  0  0  0  0  0  0  0  0  0  0  0
    2.3236    1.0245    0.0000 N   0  3  0  0  0  0  0  0  0  0  0  0
    1.0245    0.2745    0.0000 O   0  5  0  0  0  0  0  0  0  0  0  0
    2.3236    2.5245    0.0000 O   0  0  0  0  0  0  0  0  0  0  0  0
   10.0289   -0.4755    0.0000 N   0  0  0  0  0  0  0  0  0  0  0  0
  1  3  2  0  0  0  0
  1  2  1  0  0  0  0
  1 11  1  0  0  0  0
  2  4  2  0  0  0  0
  3  5  1  0  0  0  0
  4  6  1  0  0  0  0
  5  8  1  0  0  0  0
  5  6  2  0  0  0  0
  6  7  1  0  0  0  0
  7 10  1  0  0  0  0
  7  9  1  0  0  0  0
  8 10  2  0  0  0  0
 10 14  1  0  0  0  0
 11 12  1  0  0  0  0
 11 13  2  0  0  0  0
M  CHG  2  11   1  12  -1
M  END
