305329
 OpenBabel03021519512D

 21 24  0  0  0  0  0  0  0  0999 V2000
    4.4235    2.8431    0.0000 C   0  0  0  0  0  0  0  0  0  0  0  0
    5.7324    2.1104    0.0000 C   0  0  0  0  0  0  0  0  0  0  0  0
    3.1346    2.0758    0.0000 C   0  0  0  0  0  0  0  0  0  0  0  0
    0.8365    1.2952    0.0000 C   0  0  0  0  0  0  0  0  0  0  0  0
    5.7524    0.6106    0.0000 C   0  0  0  0  0  0  0  0  0  0  0  0
    3.1546    0.5760    0.0000 C   0  0  0  0  0  0  0  0  0  0  0  0
   -1.3960   -0.0337    0.0000 C   0  0  0  0  0  0  0  0  0  0  0  0
   -4.0135    0.7784    0.0000 C   0  0  0  0  0  0  0  0  0  0  0  0
    4.4635   -0.1567    0.0000 C   0  0  0  0  0  0  0  0  0  0  0  0
   -2.8856   -0.2103    0.0000 C   0  0  0  0  0  0  0  0  0  0  0  0
   -5.4338    0.2960    0.0000 C   0  0  0  0  0  0  0  0  0  0  0  0
   -1.8690   -2.4142    0.0000 C   0  0  0  0  0  0  0  0  0  0  0  0
   -3.1779   -1.6816    0.0000 C   0  0  0  0  0  0  0  0  0  0  0  0
   -5.7261   -1.1753    0.0000 C   0  0  0  0  0  0  0  0  0  0  0  0
   -4.5982   -2.1641    0.0000 C   0  0  0  0  0  0  0  0  0  0  0  0
   -1.6923   -3.9038    0.0000 O   0  0  0  0  0  0  0  0  0  0  0  0
   -0.6634    1.2752    0.0000 N   0  0  0  0  0  0  0  0  0  0  0  0
    1.2898   -1.3391    0.0000 H   0  0  0  0  0  0  0  0  0  0  0  0
    1.7343    0.0935    0.0000 N   0  0  0  0  0  0  0  0  0  0  0  0
    1.7020    2.5203    0.0000 N   0  0  0  0  0  0  0  0  0  0  0  0
   -0.7677   -1.3958    0.0000 N   0  0  0  0  0  0  0  0  0  0  0  0
  1  2  2  0  0  0  0
  1  3  1  0  0  0  0
  2  5  1  0  0  0  0
  3 20  1  0  0  0  0
  3  6  2  0  0  0  0
  4 20  2  0  0  0  0
  4 17  1  0  0  0  0
  4 19  1  0  0  0  0
  5  9  2  0  0  0  0
  6 19  1  0  0  0  0
  6  9  1  0  0  0  0
  7 17  2  0  0  0  0
  7 10  1  0  0  0  0
  7 21  1  0  0  0  0
  8 10  2  0  0  0  0
  8 11  1  0  0  0  0
 10 13  1  0  0  0  0
 11 14  2  0  0  0  0
 12 13  1  0  0  0  0
 12 16  2  0  0  0  0
 12 21  1  0  0  0  0
 13 15  2  0  0  0  0
 14 15  1  0  0  0  0
 18 19  1  0  0  0  0
M  END
