27305
 OpenBabel03021519512D

 23 26  0  0  1  0  0  0  0  0999 V2000
  -11.7549    2.9207    0.0000 N   0  0  0  0  0  0  0  0  0  0  0  0
  -10.4559    5.1707    0.0000 S   0  0  0  0  0  0  0  0  0  0  0  0
  -10.4559    0.6707    0.0000 N   0  0  0  0  0  0  0  0  0  0  0  0
  -10.4559   -0.8293    0.0000 H   0  0  0  0  0  0  0  0  0  0  0  0
   -4.4135   -2.8965    0.0000 O   0  0  0  0  0  0  0  0  0  0  0  0
   -7.7303    3.3842    0.0000 N   0  0  0  0  0  0  0  0  0  0  0  0
   -8.1484   -1.6830    0.0000 O   0  0  0  0  0  0  0  0  0  0  0  0
   -4.4136   -0.4694    0.0000 O   0  0  0  0  0  0  0  0  0  0  0  0
   -7.7303    0.9571    0.0000 N   0  0  0  0  0  0  0  0  0  0  0  0
  -10.4559    3.6707    0.0000 C   0  0  0  0  0  0  0  0  0  0  0  0
   -9.1568    2.9207    0.0000 C   0  0  0  0  0  0  0  0  0  0  0  0
   -9.1569    1.4207    0.0000 C   0  0  0  0  0  0  0  0  0  0  0  0
   -6.8486    2.1707    0.0000 C   0  0  0  0  0  0  0  0  0  0  0  0
  -11.7549    1.4207    0.0000 C   0  0  0  0  0  0  0  0  0  0  0  0
   -7.2667   -0.4694    0.0000 C   0  0  3  0  0  0  0  0  0  0  0  0
   -5.8401   -0.9330    0.0000 C   0  0  3  0  0  0  0  0  0  0  0  0
   -5.8401   -2.4330    0.0000 C   0  0  3  0  0  0  0  0  0  0  0  0
   -7.2667   -2.8965    0.0000 C   0  0  3  0  0  0  0  0  0  0  0  0
   -3.5319   -1.6829    0.0000 C   0  0  0  0  0  0  0  0  0  0  0  0
   -6.7265   -5.4378    0.0000 O   0  0  0  0  0  0  0  0  0  0  0  0
   -7.7302   -4.3231    0.0000 C   0  0  0  0  0  0  0  0  0  0  0  0
   -2.4172   -2.6866    0.0000 C   0  0  0  0  0  0  0  0  0  0  0  0
   -2.4172   -0.6792    0.0000 C   0  0  0  0  0  0  0  0  0  0  0  0
  1 14  2  0  0  0  0
  1 10  1  0  0  0  0
  2 10  2  0  0  0  0
  3 12  1  0  0  0  0
  3 14  1  0  0  0  0
  3  4  1  0  0  0  0
  5 17  1  0  0  0  0
  5 19  1  0  0  0  0
  6 13  2  0  0  0  0
  6 11  1  0  0  0  0
  7 15  1  0  0  0  0
  7 18  1  0  0  0  0
  8 16  1  0  0  0  0
  8 19  1  0  0  0  0
  9 12  1  0  0  0  0
  9 13  1  0  0  0  0
  9 15  1  0  0  0  0
 10 11  1  0  0  0  0
 11 12  2  0  0  0  0
 15 16  1  0  0  0  0
 16 17  1  0  0  0  0
 17 18  1  0  0  0  0
 18 21  1  0  0  0  0
 19 22  1  0  0  0  0
 19 23  1  0  0  0  0
 20 21  1  0  0  0  0
M  END
