67436
 OpenBabel03021519512D

 37 41  0  0  0  0  0  0  0  0999 V2000
    9.3983    0.7127    0.0000 H   0  0  0  0  0  0  0  0  0  0  0  0
    7.9717    1.1762    0.0000 N   0  0  0  0  0  0  0  0  0  0  0  0
    5.5446    1.1762    0.0000 N   0  0  0  0  0  0  0  0  0  0  0  0
    5.4591   -7.9555    0.0000 Cl  0  0  0  0  0  0  0  0  0  0  0  0
   16.0083  -16.9472    0.0000 N   0  0  0  0  0  0  0  0  0  0  0  0
   17.5336  -13.3781    0.0000 H   0  0  0  0  0  0  0  0  0  0  0  0
   17.2218  -14.8453    0.0000 N   0  0  0  0  0  0  0  0  0  0  0  0
   13.2534  -12.4554    0.0000 C   0  0  0  0  0  0  0  0  0  0  0  0
   14.5524  -13.2054    0.0000 C   0  0  0  0  0  0  0  0  0  0  0  0
   11.9543  -13.2054    0.0000 C   0  0  0  0  0  0  0  0  0  0  0  0
   14.5524  -14.7054    0.0000 C   0  0  0  0  0  0  0  0  0  0  0  0
   11.9544  -14.7054    0.0000 C   0  0  0  0  0  0  0  0  0  0  0  0
   15.8515  -15.4554    0.0000 C   0  0  0  0  0  0  0  0  0  0  0  0
   13.2534  -15.4554    0.0000 C   0  0  0  0  0  0  0  0  0  0  0  0
    9.3563   -8.7054    0.0000 C   0  0  0  0  0  0  0  0  0  0  0  0
    9.3563  -10.2054    0.0000 C   0  0  0  0  0  0  0  0  0  0  0  0
    8.0572   -7.9554    0.0000 C   0  0  0  0  0  0  0  0  0  0  0  0
    8.0572  -10.9554    0.0000 C   0  0  0  0  0  0  0  0  0  0  0  0
    6.7582   -8.7054    0.0000 C   0  0  0  0  0  0  0  0  0  0  0  0
    6.7582  -10.2054    0.0000 C   0  0  0  0  0  0  0  0  0  0  0  0
    8.0572   -3.4554    0.0000 C   0  0  0  0  0  0  0  0  0  0  0  0
    8.0572   -1.9554    0.0000 C   0  0  0  0  0  0  0  0  0  0  0  0
    6.7582   -4.2054    0.0000 C   0  0  0  0  0  0  0  0  0  0  0  0
    5.4591   -3.4555    0.0000 C   0  0  0  0  0  0  0  0  0  0  0  0
    6.7582   -1.2054    0.0000 C   0  0  0  0  0  0  0  0  0  0  0  0
    5.4591   -1.9555    0.0000 C   0  0  0  0  0  0  0  0  0  0  0  0
    6.7582    0.2946    0.0000 C   0  0  0  0  0  0  0  0  0  0  0  0
   18.2255  -15.9600    0.0000 C   0  0  0  0  0  0  0  0  0  0  0  0
   17.4755  -17.2591    0.0000 C   0  0  0  0  0  0  0  0  0  0  0  0
    7.5082    2.6028    0.0000 C   0  0  0  0  0  0  0  0  0  0  0  0
    6.0082    2.6028    0.0000 C   0  0  0  0  0  0  0  0  0  0  0  0
    6.7582   -5.7054    0.0000 N   0  0  0  0  0  0  0  0  0  0  0  0
    8.0572   -6.4554    0.0000 C   0  0  0  0  0  0  0  0  0  0  0  0
    9.3563   -5.7054    0.0000 O   0  0  0  0  0  0  0  0  0  0  0  0
   10.6553  -10.9554    0.0000 C   0  0  0  0  0  0  0  0  0  0  0  0
   11.9543  -10.2054    0.0000 O   0  0  0  0  0  0  0  0  0  0  0  0
   10.6553  -12.4554    0.0000 N   0  0  0  0  0  0  0  0  0  0  0  0
  1  2  1  0  0  0  0
  2 27  1  0  0  0  0
  2 30  1  0  0  0  0
  3 27  2  0  0  0  0
  3 31  1  0  0  0  0
  4 19  1  0  0  0  0
  5 13  2  0  0  0  0
  5 29  1  0  0  0  0
  6  7  1  0  0  0  0
  7 13  1  0  0  0  0
  7 28  1  0  0  0  0
  8  9  2  0  0  0  0
  8 10  1  0  0  0  0
  9 11  1  0  0  0  0
 10 12  2  0  0  0  0
 10 37  1  0  0  0  0
 11 14  2  0  0  0  0
 11 13  1  0  0  0  0
 12 14  1  0  0  0  0
 15 16  2  0  0  0  0
 15 17  1  0  0  0  0
 16 18  1  0  0  0  0
 16 35  1  0  0  0  0
 17 19  2  0  0  0  0
 17 33  1  0  0  0  0
 18 20  2  0  0  0  0
 19 20  1  0  0  0  0
 21 22  2  0  0  0  0
 21 23  1  0  0  0  0
 22 25  1  0  0  0  0
 23 24  2  0  0  0  0
 23 32  1  0  0  0  0
 24 26  1  0  0  0  0
 25 26  2  0  0  0  0
 25 27  1  0  0  0  0
 28 29  1  0  0  0  0
 30 31  1  0  0  0  0
 32 33  1  0  0  0  0
 33 34  2  0  0  0  0
 35 36  2  0  0  0  0
 35 37  1  0  0  0  0
M  END
