108750
 OpenBabel03021519512D

 19 21  0  0  1  0  0  0  0  0999 V2000
    1.8156   -2.9915    0.0000 C   0  0  0  0  0  0  0  0  0  0  0  0
    0.3484   -3.3034    0.0000 C   0  0  0  0  0  0  0  0  0  0  0  0
    2.8193   -4.1062    0.0000 C   0  0  0  0  0  0  0  0  0  0  0  0
    2.3558   -5.5328    0.0000 C   0  0  0  0  0  0  0  0  0  0  0  0
   -0.1151   -4.7299    0.0000 C   0  0  0  0  0  0  0  0  0  0  0  0
    0.8886   -5.8447    0.0000 C   0  0  0  0  0  0  0  0  0  0  0  0
    0.4250   -7.2712    0.0000 C   0  0  3  0  0  0  0  0  0  0  0  0
   -1.0016   -7.7348    0.0000 C   0  0  0  0  0  0  0  0  0  0  0  0
    1.3067   -8.4848    0.0000 C   0  0  0  0  0  0  0  0  0  0  0  0
   -2.3006   -6.9848    0.0000 C   0  0  0  0  0  0  0  0  0  0  0  0
   -3.5996   -7.7348    0.0000 C   0  0  0  0  0  0  0  0  0  0  0  0
    0.4250   -9.6983    0.0000 C   0  0  0  0  0  0  0  0  0  0  0  0
   -1.0016   -9.2348    0.0000 C   0  0  0  0  0  0  0  0  0  0  0  0
   -3.5996   -9.2348    0.0000 C   0  0  0  0  0  0  0  0  0  0  0  0
   -2.3006   -9.9848    0.0000 C   0  0  0  0  0  0  0  0  0  0  0  0
    0.8886  -11.1249    0.0000 N   0  0  0  0  0  0  0  0  0  0  0  0
    2.8067   -8.4848    0.0000 C   0  0  0  0  0  0  0  0  0  0  0  0
    3.5567   -9.7838    0.0000 O   0  0  0  0  0  0  0  0  0  0  0  0
    3.5567   -7.1857    0.0000 N   0  0  0  0  0  0  0  0  0  0  0  0
  1  3  2  0  0  0  0
  1  2  1  0  0  0  0
  2  5  2  0  0  0  0
  3  4  1  0  0  0  0
  4  6  2  0  0  0  0
  5  6  1  0  0  0  0
  6  7  1  0  0  0  0
  7  8  1  0  0  0  0
  7  9  1  0  0  0  0
  8 13  2  0  0  0  0
  8 10  1  0  0  0  0
  9 12  2  0  0  0  0
  9 17  1  0  0  0  0
 10 11  2  0  0  0  0
 11 14  1  0  0  0  0
 12 13  1  0  0  0  0
 12 16  1  0  0  0  0
 13 15  1  0  0  0  0
 14 15  2  0  0  0  0
 17 18  2  0  0  0  0
 17 19  1  0  0  0  0
M  END
