169458
 OpenBabel03021519512D

 13 13  0  0  1  0  0  0  0  0999 V2000
   -0.6937    3.4021    0.0000 H   0  0  0  0  0  0  0  0  0  0  0  0
    2.1324    1.7704    0.0000 S   0  0  0  0  0  0  0  0  0  0  0  0
    0.6766    4.0122    0.0000 N   0  0  0  0  0  0  0  0  0  0  0  0
    3.0904    4.2659    0.0000 O   0  0  0  0  0  0  0  0  0  0  0  0
    4.7303    6.9352    0.0000 O   0  0  0  0  0  0  0  0  0  0  0  0
    6.9803    8.2343    0.0000 C   0  0  0  0  0  0  0  0  0  0  0  0
    0.9885    5.4794    0.0000 C   0  0  0  0  0  0  0  0  0  0  0  0
    2.4803    5.6362    0.0000 C   0  0  3  0  0  0  0  0  0  0  0  0
    1.9756    3.2622    0.0000 C   0  0  0  0  0  0  0  0  0  0  0  0
    3.2303    6.9352    0.0000 C   0  0  0  0  0  0  0  0  0  0  0  0
    5.4803    8.2343    0.0000 C   0  0  3  0  0  0  0  0  0  0  0  0
    4.7303    9.5333    0.0000 C   0  0  0  0  0  0  0  0  0  0  0  0
    8.4803    8.2343    0.0000 C   0  0  0  0  0  0  0  0  0  0  0  0
  1  3  1  0  0  0  0
  2  9  2  0  0  0  0
  3  7  1  0  0  0  0
  3  9  1  0  0  0  0
  4  8  1  0  0  0  0
  4  9  1  0  0  0  0
  5 10  1  0  0  0  0
  5 11  1  0  0  0  0
  6 11  1  0  0  0  0
  6 13  3  0  0  0  0
  7  8  1  0  0  0  0
  8 10  1  0  0  0  0
 11 12  1  0  0  0  0
M  END
