120622
 OpenBabel03021519512D

 23 24  0  0  0  0  0  0  0  0999 V2000
    3.0367   -2.0586    0.0000 O   0  0  0  0  0  0  0  0  0  0  0  0
    0.5886   -3.3444    0.0000 O   0  0  0  0  0  0  0  0  0  0  0  0
    3.1867   -3.3444    0.0000 C   0  0  0  0  0  0  0  0  0  0  0  0
    4.4858   -4.0944    0.0000 C   0  0  0  0  0  0  0  0  0  0  0  0
    1.8877   -4.0944    0.0000 C   0  0  0  0  0  0  0  0  0  0  0  0
    4.4858   -5.5944    0.0000 C   0  0  0  0  0  0  0  0  0  0  0  0
    1.8877   -5.5944    0.0000 C   0  0  0  0  0  0  0  0  0  0  0  0
    3.1867   -6.3444    0.0000 C   0  0  0  0  0  0  0  0  0  0  0  0
    4.7067   -0.0683    0.0000 C   0  0  0  0  0  0  0  0  0  0  0  0
    6.1163    0.4447    0.0000 C   0  0  0  0  0  0  0  0  0  0  0  0
    4.4463   -1.5456    0.0000 C   0  0  0  0  0  0  0  0  0  0  0  0
    5.5954   -2.5097    0.0000 C   0  0  0  0  0  0  0  0  0  0  0  0
    7.2654   -0.5195    0.0000 C   0  0  0  0  0  0  0  0  0  0  0  0
    7.0049   -1.9967    0.0000 C   0  0  0  0  0  0  0  0  0  0  0  0
    8.9354    1.4708    0.0000 C   0  0  0  0  0  0  0  0  0  0  0  0
    7.7863    2.4349    0.0000 O   0  0  0  0  0  0  0  0  0  0  0  0
   10.3449    1.9838    0.0000 C   0  0  0  0  0  0  0  0  0  0  0  0
    8.6749   -0.0064    0.0000 N   0  0  0  0  0  0  0  0  0  0  0  0
    1.8877   -1.0944    0.0000 C   0  0  0  0  0  0  0  0  0  0  0  0
    0.5886   -1.8444    0.0000 C   0  0  0  0  0  0  0  0  0  0  0  0
    5.7848   -6.3444    0.0000 N   0  3  0  0  0  0  0  0  0  0  0  0
    7.0838   -5.5944    0.0000 O   0  5  0  0  0  0  0  0  0  0  0  0
    5.7848   -7.8444    0.0000 O   0  0  0  0  0  0  0  0  0  0  0  0
  1 11  1  0  0  0  0
  1 19  1  0  0  0  0
  2  5  1  0  0  0  0
  2 20  1  0  0  0  0
  3  4  2  0  0  0  0
  3  5  1  0  0  0  0
  4  6  1  0  0  0  0
  5  7  2  0  0  0  0
  6  8  2  0  0  0  0
  6 21  1  0  0  0  0
  7  8  1  0  0  0  0
  9 10  2  0  0  0  0
  9 11  1  0  0  0  0
 10 13  1  0  0  0  0
 11 12  2  0  0  0  0
 12 14  1  0  0  0  0
 13 14  2  0  0  0  0
 13 18  1  0  0  0  0
 15 16  2  0  0  0  0
 15 17  1  0  0  0  0
 15 18  1  0  0  0  0
 19 20  1  0  0  0  0
 21 22  1  0  0  0  0
 21 23  2  0  0  0  0
M  CHG  2  21   1  22  -1
M  END
