205842
 OpenBabel03021519512D

 22 23  0  0  0  0  0  0  0  0999 V2000
   -2.2231    5.1495    0.0000 C   0  0  0  0  0  0  0  0  0  0  0  0
   -0.9240    4.3995    0.0000 C   0  0  0  0  0  0  0  0  0  0  0  0
   -3.5221    4.3995    0.0000 C   0  0  0  0  0  0  0  0  0  0  0  0
   -0.9240    2.8995    0.0000 C   0  0  0  0  0  0  0  0  0  0  0  0
   -3.5221    2.8995    0.0000 C   0  0  0  0  0  0  0  0  0  0  0  0
   -2.2231    2.1495    0.0000 C   0  0  0  0  0  0  0  0  0  0  0  0
    0.3750    9.6495    0.0000 C   0  0  0  0  0  0  0  0  0  0  0  0
    1.6740    8.8995    0.0000 C   0  0  0  0  0  0  0  0  0  0  0  0
    0.3750   11.1495    0.0000 C   0  0  0  0  0  0  0  0  0  0  0  0
    1.6740   11.8995    0.0000 C   0  0  0  0  0  0  0  0  0  0  0  0
    2.9731    9.6495    0.0000 C   0  0  0  0  0  0  0  0  0  0  0  0
    2.9731   11.1495    0.0000 C   0  0  0  0  0  0  0  0  0  0  0  0
   -2.2231    6.6495    0.0000 C   0  0  0  0  0  0  0  0  0  0  0  0
    0.3750    2.1495    0.0000 C   0  0  0  0  0  0  0  0  0  0  0  0
    0.3750    5.1495    0.0000 N   0  0  0  0  0  0  0  0  0  0  0  0
    0.3750    6.6495    0.0000 C   0  0  0  0  0  0  0  0  0  0  0  0
   -0.9240    7.3995    0.0000 O   0  0  0  0  0  0  0  0  0  0  0  0
    1.6740    7.3995    0.0000 N   0  0  0  0  0  0  0  0  0  0  0  0
    1.6740   13.3995    0.0000 S   0  0  0  0  0  0  0  0  0  0  0  0
    3.1740   13.3995    0.0000 O   0  0  0  0  0  0  0  0  0  0  0  0
    0.1740   13.3995    0.0000 O   0  0  0  0  0  0  0  0  0  0  0  0
    1.6740   14.8995    0.0000 N   0  0  0  0  0  0  0  0  0  0  0  0
  1  2  2  0  0  0  0
  1  3  1  0  0  0  0
  1 13  1  0  0  0  0
  2  4  1  0  0  0  0
  2 15  1  0  0  0  0
  3  5  2  0  0  0  0
  4  6  2  0  0  0  0
  4 14  1  0  0  0  0
  5  6  1  0  0  0  0
  7  9  2  0  0  0  0
  7  8  1  0  0  0  0
  8 11  2  0  0  0  0
  8 18  1  0  0  0  0
  9 10  1  0  0  0  0
 10 12  2  0  0  0  0
 10 19  1  0  0  0  0
 11 12  1  0  0  0  0
 15 16  1  0  0  0  0
 16 17  2  0  0  0  0
 16 18  1  0  0  0  0
 19 20  2  0  0  0  0
 19 21  2  0  0  0  0
 19 22  1  0  0  0  0
M  END
