525721
 OpenBabel03021519512D

 19 21  0  0  0  0  0  0  0  0999 V2000
    8.1692    2.1495    0.0000 C   0  0  0  0  0  0  0  0  0  0  0  0
    2.9731    2.1495    0.0000 C   0  0  0  0  0  0  0  0  0  0  0  0
    9.4683    1.3995    0.0000 C   0  0  0  0  0  0  0  0  0  0  0  0
    6.8702    1.3995    0.0000 C   0  0  0  0  0  0  0  0  0  0  0  0
    4.2721    1.3995    0.0000 C   0  0  0  0  0  0  0  0  0  0  0  0
    1.6740    1.3995    0.0000 C   0  0  0  0  0  0  0  0  0  0  0  0
    9.4683   -0.1005    0.0000 C   0  0  0  0  0  0  0  0  0  0  0  0
    6.8702   -0.1005    0.0000 C   0  0  0  0  0  0  0  0  0  0  0  0
    4.2721   -0.1005    0.0000 C   0  0  0  0  0  0  0  0  0  0  0  0
    1.6740   -0.1005    0.0000 C   0  0  0  0  0  0  0  0  0  0  0  0
    8.1692   -0.8505    0.0000 C   0  0  0  0  0  0  0  0  0  0  0  0
    2.9731   -0.8505    0.0000 C   0  0  0  0  0  0  0  0  0  0  0  0
    5.5712   -0.8505    0.0000 N   0  0  0  0  0  0  0  0  0  0  0  0
    5.5712    2.1495    0.0000 S   0  0  0  0  0  0  0  0  0  0  0  0
    5.5712   -2.3505    0.0000 C   0  0  0  0  0  0  0  0  0  0  0  0
    6.9807   -2.8635    0.0000 C   0  0  0  0  0  0  0  0  0  0  0  0
    7.2412   -4.3407    0.0000 C   0  0  0  0  0  0  0  0  0  0  0  0
    6.0921   -5.3049    0.0000 O   0  0  0  0  0  0  0  0  0  0  0  0
    8.6507   -4.8537    0.0000 O   0  0  0  0  0  0  0  0  0  0  0  0
  1  3  2  0  0  0  0
  1  4  1  0  0  0  0
  2  6  2  0  0  0  0
  2  5  1  0  0  0  0
  3  7  1  0  0  0  0
  4 14  1  0  0  0  0
  4  8  2  0  0  0  0
  5 14  1  0  0  0  0
  5  9  2  0  0  0  0
  6 10  1  0  0  0  0
  7 11  2  0  0  0  0
  8 11  1  0  0  0  0
  8 13  1  0  0  0  0
  9 13  1  0  0  0  0
  9 12  1  0  0  0  0
 10 12  2  0  0  0  0
 13 15  1  0  0  0  0
 15 16  1  0  0  0  0
 16 17  1  0  0  0  0
 17 18  2  0  0  0  0
 17 19  1  0  0  0  0
M  END
