159686
 OpenBabel03021519512D

 19 20  0  0  0  0  0  0  0  0999 V2000
    5.5712    0.8505    0.0000 O   0  0  0  0  0  0  0  0  0  0  0  0
    4.2721    0.1005    0.0000 C   0  0  0  0  0  0  0  0  0  0  0  0
    4.2721   -1.3995    0.0000 C   0  0  0  0  0  0  0  0  0  0  0  0
    2.9731   -2.1495    0.0000 C   0  0  0  0  0  0  0  0  0  0  0  0
    5.5712   -2.1495    0.0000 C   0  0  0  0  0  0  0  0  0  0  0  0
    2.9731   -3.6495    0.0000 C   0  0  0  0  0  0  0  0  0  0  0  0
    5.5712   -3.6495    0.0000 C   0  0  0  0  0  0  0  0  0  0  0  0
    4.2721   -4.3995    0.0000 C   0  0  0  0  0  0  0  0  0  0  0  0
    5.5712   -8.1495    0.0000 O   0  0  0  0  0  0  0  0  0  0  0  0
    5.5712   -6.6495    0.0000 C   0  0  0  0  0  0  0  0  0  0  0  0
    2.9731    0.8505    0.0000 O   0  0  0  0  0  0  0  0  0  0  0  0
    1.6740   -1.3995    0.0000 O   0  0  0  0  0  0  0  0  0  0  0  0
    4.2721   -5.8995    0.0000 N   0  0  0  0  0  0  0  0  0  0  0  0
    6.8702   -5.8995    0.0000 C   0  0  0  0  0  0  0  0  0  0  0  0
    6.8702   -4.3995    0.0000 C   0  0  0  0  0  0  0  0  0  0  0  0
    8.1692   -3.6495    0.0000 C   0  0  0  0  0  0  0  0  0  0  0  0
    9.4683   -4.3995    0.0000 C   0  0  0  0  0  0  0  0  0  0  0  0
    9.4683   -5.8995    0.0000 C   0  0  0  0  0  0  0  0  0  0  0  0
    8.1692   -6.6495    0.0000 C   0  0  0  0  0  0  0  0  0  0  0  0
  1  2  2  0  0  0  0
  2  3  1  0  0  0  0
  2 11  1  0  0  0  0
  3  5  2  0  0  0  0
  3  4  1  0  0  0  0
  4  6  2  0  0  0  0
  4 12  1  0  0  0  0
  5  7  1  0  0  0  0
  6  8  1  0  0  0  0
  7  8  2  0  0  0  0
  8 13  1  0  0  0  0
  9 10  2  0  0  0  0
 10 13  1  0  0  0  0
 10 14  1  0  0  0  0
 14 15  2  0  0  0  0
 14 19  1  0  0  0  0
 15 16  1  0  0  0  0
 16 17  2  0  0  0  0
 17 18  1  0  0  0  0
 18 19  2  0  0  0  0
M  END
