82339
 OpenBabel03021519512D

 14 16  0  0  1  0  0  0  0  0999 V2000
    5.2145    2.1378    0.0000 C   0  0  3  0  0  0  0  0  0  0  0  0
    5.9864    0.8517    0.0000 N   0  0  3  0  0  0  0  0  0  0  0  0
    7.4862    0.8771    0.0000 C   0  0  0  0  0  0  0  0  0  0  0  0
    8.2141    2.1887    0.0000 C   0  0  0  0  0  0  0  0  0  0  0  0
    7.4421    3.4748    0.0000 C   0  0  0  0  0  0  0  0  0  0  0  0
    5.9423    3.4494    0.0000 N   0  0  3  0  0  0  0  0  0  0  0  0
    3.7147    2.1124    0.0000 C   0  0  0  0  0  0  0  0  0  0  0  0
    2.9428    3.3985    0.0000 C   0  0  0  0  0  0  0  0  0  0  0  0
    1.4430    3.3730    0.0000 C   0  0  0  0  0  0  0  0  0  0  0  0
    0.7151    2.0615    0.0000 N   0  0  0  0  0  0  0  0  0  0  0  0
    1.4871    0.7753    0.0000 C   0  0  0  0  0  0  0  0  0  0  0  0
    2.9868    0.8008    0.0000 C   0  0  0  0  0  0  0  0  0  0  0  0
    7.0782    2.8190    0.0000 C   0  0  0  0  0  0  0  0  0  0  0  0
    7.1002    1.5202    0.0000 C   0  0  0  0  0  0  0  0  0  0  0  0
  1  2  1  0  0  0  0
  1  6  1  0  0  0  0
  1  7  1  0  0  0  0
  2  3  1  0  0  0  0
  2 14  1  0  0  0  0
  3  4  1  0  0  0  0
  4  5  1  0  0  0  0
  5  6  1  0  0  0  0
  6 13  1  0  0  0  0
  7  8  2  0  0  0  0
  7 12  1  0  0  0  0
  8  9  1  0  0  0  0
  9 10  2  0  0  0  0
 10 11  1  0  0  0  0
 11 12  2  0  0  0  0
 13 14  1  0  0  0  0
M  END
