638080
 OpenBabel03021519512D

 16 16  0  0  0  0  0  0  0  0999 V2000
   -7.2452   -2.2500    0.0000 C   0  0  0  0  0  0  0  0  0  0  0  0
   -8.5442   -3.0000    0.0000 C   0  0  0  0  0  0  0  0  0  0  0  0
   -9.8433   -2.2500    0.0000 O   0  0  0  0  0  0  0  0  0  0  0  0
   -5.9462   -3.0000    0.0000 C   0  0  0  0  0  0  0  0  0  0  0  0
   -5.9462   -4.5000    0.0000 C   0  0  0  0  0  0  0  0  0  0  0  0
   -7.2452   -5.2500    0.0000 C   0  0  0  0  0  0  0  0  0  0  0  0
   -8.5442   -4.5000    0.0000 C   0  0  0  0  0  0  0  0  0  0  0  0
   -4.6471   -2.2500    0.0000 C   0  0  0  0  0  0  0  0  0  0  0  0
   -3.3481   -3.0000    0.0000 C   0  0  0  0  0  0  0  0  0  0  0  0
   -3.3481   -4.5000    0.0000 C   0  0  0  0  0  0  0  0  0  0  0  0
   -3.3481   -6.0000    0.0000 N   0  0  0  0  0  0  0  0  0  0  0  0
   -2.0490   -2.2500    0.0000 C   0  0  0  0  0  0  0  0  0  0  0  0
   -2.0490   -0.7500    0.0000 O   0  0  0  0  0  0  0  0  0  0  0  0
   -0.7500   -3.0000    0.0000 N   0  0  0  0  0  0  0  0  0  0  0  0
   -9.8433   -5.2500    0.0000 O   0  0  0  0  0  0  0  0  0  0  0  0
   -7.2452   -6.7500    0.0000 O   0  0  0  0  0  0  0  0  0  0  0  0
  1  2  2  0  0  0  0
  1  4  1  0  0  0  0
  2  7  1  0  0  0  0
  2  3  1  0  0  0  0
  4  5  2  0  0  0  0
  4  8  1  0  0  0  0
  5  6  1  0  0  0  0
  6  7  2  0  0  0  0
  6 16  1  0  0  0  0
  7 15  1  0  0  0  0
  8  9  2  0  0  0  0
  9 10  1  0  0  0  0
  9 12  1  0  0  0  0
 10 11  3  0  0  0  0
 12 13  2  0  0  0  0
 12 14  1  0  0  0  0
M  END
