36923
 OpenBabel03021519512D

 26 29  0  0  1  0  0  0  0  0999 V2000
   -5.6908   -2.6966    0.0000 O   0  0  0  0  0  0  0  0  0  0  0  0
   -3.0928   -2.7044    0.0000 N   0  0  0  0  0  0  0  0  0  0  0  0
   -0.4903   -1.2121    0.0000 H   0  0  0  0  0  0  0  0  0  0  0  0
    0.8155    1.0340    0.0000 H   0  0  0  0  0  0  0  0  0  0  0  0
    2.2646   -1.2121    0.0000 H   0  0  0  0  0  0  0  0  0  0  0  0
    3.5447    2.2395    0.0000 C   0  0  2  0  0  0  0  0  0  0  0  0
    2.1167    1.7802    0.0000 C   0  0  1  0  0  0  0  0  0  0  0  0
    4.4228    1.0233    0.0000 C   0  0  0  0  0  0  0  0  0  0  0  0
    0.8199    2.5340    0.0000 C   0  0  0  0  0  0  0  0  0  0  0  0
   -0.4813    1.7879    0.0000 C   0  0  0  0  0  0  0  0  0  0  0  0
    3.5375   -0.1876    0.0000 C   0  0  0  0  0  0  0  0  0  0  0  0
    2.1123    0.2802    0.0000 C   0  0  1  0  0  0  0  0  0  0  0  0
   -0.4858    0.2879    0.0000 C   0  0  1  0  0  0  0  0  0  0  0  0
    0.8110   -0.4660    0.0000 C   0  0  1  0  0  0  0  0  0  0  0  0
   -1.7871   -0.4582    0.0000 C   0  0  1  0  0  0  0  0  0  0  0  0
   -3.0839    0.2956    0.0000 C   0  0  0  0  0  0  0  0  0  0  0  0
   -4.3851   -0.4505    0.0000 C   0  0  0  0  0  0  0  0  0  0  0  0
    0.8065   -1.9659    0.0000 C   0  0  0  0  0  0  0  0  0  0  0  0
   -1.7915   -1.9582    0.0000 C   0  0  0  0  0  0  0  0  0  0  0  0
   -4.3896   -1.9505    0.0000 C   0  0  0  0  0  0  0  0  0  0  0  0
   -0.4947   -2.7121    0.0000 C   0  0  0  0  0  0  0  0  0  0  0  0
   -3.0972   -4.2043    0.0000 C   0  0  0  0  0  0  0  0  0  0  0  0
   -1.7826    1.0418    0.0000 C   0  0  0  0  0  0  0  0  0  0  0  0
    2.0165    3.2768    0.0000 C   0  0  0  0  0  0  0  0  0  0  0  0
    2.9387    3.6116    0.0000 O   0  0  0  0  0  0  0  0  0  0  0  0
    4.8460    2.9856    0.0000 C   0  0  0  0  0  0  0  0  0  0  0  0
  1 20  2  0  0  0  0
  2 19  1  0  0  0  0
  2 20  1  0  0  0  0
  2 22  1  0  0  0  0
  6  7  1  0  0  0  0
  6  8  1  0  0  0  0
  6 25  1  1  0  0  0
  6 26  1  0  0  0  0
  7  9  1  0  0  0  0
  7 12  1  0  0  0  0
  7 24  1  1  0  0  0
  8 11  1  0  0  0  0
  9 10  1  0  0  0  0
 10 13  1  0  0  0  0
 11 12  1  0  0  0  0
 12  5  1  6  0  0  0
 12 14  1  0  0  0  0
 13  3  1  6  0  0  0
 13 15  1  0  0  0  0
 13 14  1  0  0  0  0
 14  4  1  1  0  0  0
 14 18  1  0  0  0  0
 15 16  1  0  0  0  0
 15 19  1  0  0  0  0
 15 23  1  1  0  0  0
 16 17  1  0  0  0  0
 17 20  1  0  0  0  0
 18 21  1  0  0  0  0
 19 21  2  0  0  0  0
M  END
