110332
 OpenBabel03021519512D

 22 23  0  0  0  0  0  0  0  0999 V2000
   -7.2631   -0.4862    0.0000 C   0  0  0  0  0  0  0  0  0  0  0  0
   -5.9641   -1.2362    0.0000 C   0  0  0  0  0  0  0  0  0  0  0  0
   -8.5622   -1.2362    0.0000 C   0  0  0  0  0  0  0  0  0  0  0  0
   -5.9641   -2.7362    0.0000 C   0  0  0  0  0  0  0  0  0  0  0  0
   -8.5622   -2.7362    0.0000 C   0  0  0  0  0  0  0  0  0  0  0  0
   -7.2631   -3.4862    0.0000 C   0  0  0  0  0  0  0  0  0  0  0  0
  -12.4593    1.0138    0.0000 C   0  0  0  0  0  0  0  0  0  0  0  0
  -13.9365    0.7533    0.0000 C   0  0  0  0  0  0  0  0  0  0  0  0
  -14.4495   -0.6562    0.0000 C   0  0  0  0  0  0  0  0  0  0  0  0
  -11.4951   -0.1352    0.0000 C   0  0  0  0  0  0  0  0  0  0  0  0
  -13.4853   -1.8053    0.0000 C   0  0  0  0  0  0  0  0  0  0  0  0
  -12.0081   -1.5448    0.0000 C   0  0  0  0  0  0  0  0  0  0  0  0
  -12.9723    2.4234    0.0000 C   0  0  0  0  0  0  0  0  0  0  0  0
  -13.4854    3.8329    0.0000 N   0  0  0  0  0  0  0  0  0  0  0  0
  -11.1603    1.7638    0.0000 N   0  0  0  0  0  0  0  0  0  0  0  0
  -11.1603    3.2638    0.0000 O   0  0  0  0  0  0  0  0  0  0  0  0
   -9.8612    1.0138    0.0000 C   0  0  0  0  0  0  0  0  0  0  0  0
   -8.5622    1.7638    0.0000 O   0  0  0  0  0  0  0  0  0  0  0  0
   -9.8612   -0.4862    0.0000 N   0  0  0  0  0  0  0  0  0  0  0  0
   -4.6651   -3.4862    0.0000 O   0  0  0  0  0  0  0  0  0  0  0  0
   -3.3660   -2.7362    0.0000 C   0  0  0  0  0  0  0  0  0  0  0  0
   -2.0670   -3.4862    0.0000 C   0  0  0  0  0  0  0  0  0  0  0  0
  1  2  2  0  0  0  0
  1  3  1  0  0  0  0
  2  4  1  0  0  0  0
  3  5  2  0  0  0  0
  3 19  1  0  0  0  0
  4  6  2  0  0  0  0
  4 20  1  0  0  0  0
  5  6  1  0  0  0  0
  7  8  1  0  0  0  0
  7 10  1  0  0  0  0
  7 13  1  0  0  0  0
  7 15  1  0  0  0  0
  8  9  1  0  0  0  0
  9 11  1  0  0  0  0
 10 12  1  0  0  0  0
 11 12  1  0  0  0  0
 13 14  3  0  0  0  0
 15 16  1  0  0  0  0
 15 17  1  0  0  0  0
 17 18  2  0  0  0  0
 17 19  1  0  0  0  0
 20 21  1  0  0  0  0
 21 22  1  0  0  0  0
M  END
