28080
 OpenBabel03021519512D

 23 25  0  0  1  0  0  0  0  0999 V2000
    0.2859   -7.1124    0.0000 O   0  0  0  0  0  0  0  0  0  0  0  0
   -1.0131   -4.8624    0.0000 C   0  0  3  0  0  0  0  0  0  0  0  0
   -2.3122   -4.1124    0.0000 C   0  0  0  0  0  0  0  0  0  0  0  0
   -3.6112   -4.8624    0.0000 C   0  0  0  0  0  0  0  0  0  0  0  0
   -1.0131   -6.3624    0.0000 C   0  0  0  0  0  0  0  0  0  0  0  0
   -3.6112   -6.3624    0.0000 C   0  0  0  0  0  0  0  0  0  0  0  0
   -2.3122   -7.1124    0.0000 C   0  0  0  0  0  0  0  0  0  0  0  0
   -4.9102   -7.1124    0.0000 C   0  0  0  0  0  0  0  0  0  0  0  0
   -6.2093   -6.3624    0.0000 C   0  0  0  0  0  0  0  0  0  0  0  0
   -7.5083   -7.1124    0.0000 C   0  0  0  0  0  0  0  0  0  0  0  0
   -2.3122   -8.6124    0.0000 C   0  0  0  0  0  0  0  0  0  0  0  0
   -4.9102   -8.6124    0.0000 C   0  0  0  0  0  0  0  0  0  0  0  0
   -7.5083   -8.6124    0.0000 C   0  0  0  0  0  0  0  0  0  0  0  0
   -3.6112   -9.3624    0.0000 C   0  0  0  0  0  0  0  0  0  0  0  0
   -6.2093   -9.3624    0.0000 C   0  0  0  0  0  0  0  0  0  0  0  0
   -3.6112  -10.8624    0.0000 O   0  0  0  0  0  0  0  0  0  0  0  0
   -4.9102  -11.6124    0.0000 C   0  0  0  0  0  0  0  0  0  0  0  0
   -0.5001   -3.4529    0.0000 C   0  0  0  0  0  0  0  0  0  0  0  0
    0.9771   -3.1924    0.0000 O   0  0  0  0  0  0  0  0  0  0  0  0
   -1.4643   -2.3038    0.0000 O   0  0  0  0  0  0  0  0  0  0  0  0
   -2.9415   -2.5643    0.0000 C   0  0  0  0  0  0  0  0  0  0  0  0
    0.4641   -5.1229    0.0000 C   0  0  0  0  0  0  0  0  0  0  0  0
    0.9771   -6.5324    0.0000 C   0  0  0  0  0  0  0  0  0  0  0  0
  1  5  2  0  0  0  0
  2  3  1  0  0  0  0
  2  5  1  0  0  0  0
  2 18  1  0  0  0  0
  2 22  1  0  0  0  0
  3  4  1  0  0  0  0
  4  6  1  0  0  0  0
  5  7  1  0  0  0  0
  6  7  2  0  0  0  0
  6  8  1  0  0  0  0
  7 11  1  0  0  0  0
  8 12  2  0  0  0  0
  8  9  1  0  0  0  0
  9 10  2  0  0  0  0
 10 13  1  0  0  0  0
 11 14  2  0  0  0  0
 12 15  1  0  0  0  0
 12 14  1  0  0  0  0
 13 15  2  0  0  0  0
 14 16  1  0  0  0  0
 16 17  1  0  0  0  0
 18 19  2  0  0  0  0
 18 20  1  0  0  0  0
 20 21  1  0  0  0  0
 22 23  1  0  0  0  0
M  END
