13487
 OpenBabel03021519512D

 29 32  0  0  0  0  0  0  0  0999 V2000
   -9.8433    9.7500    0.0000 N   0  0  0  0  0  0  0  0  0  0  0  0
   -5.9462    6.0000    0.0000 C   0  0  0  0  0  0  0  0  0  0  0  0
   -4.6471    5.2500    0.0000 C   0  0  0  0  0  0  0  0  0  0  0  0
   -7.2452    5.2500    0.0000 C   0  0  0  0  0  0  0  0  0  0  0  0
   -4.6471    3.7500    0.0000 C   0  0  0  0  0  0  0  0  0  0  0  0
   -7.2452    3.7500    0.0000 C   0  0  0  0  0  0  0  0  0  0  0  0
   -5.9462    3.0000    0.0000 C   0  0  0  0  0  0  0  0  0  0  0  0
  -11.1423   12.0000    0.0000 C   0  0  0  0  0  0  0  0  0  0  0  0
  -11.1423   10.5000    0.0000 C   0  0  0  0  0  0  0  0  0  0  0  0
  -12.4414   12.7500    0.0000 C   0  0  0  0  0  0  0  0  0  0  0  0
  -12.4414    9.7500    0.0000 C   0  0  0  0  0  0  0  0  0  0  0  0
  -13.7404   12.0000    0.0000 C   0  0  0  0  0  0  0  0  0  0  0  0
  -12.4414    8.2500    0.0000 C   0  0  0  0  0  0  0  0  0  0  0  0
   -9.8433    8.2500    0.0000 C   0  0  0  0  0  0  0  0  0  0  0  0
  -11.1423    7.5000    0.0000 C   0  0  0  0  0  0  0  0  0  0  0  0
  -13.7404   10.5000    0.0000 C   0  0  0  0  0  0  0  0  0  0  0  0
  -13.7404    7.5000    0.0000 C   0  0  0  0  0  0  0  0  0  0  0  0
  -15.0394    8.2500    0.0000 C   0  0  0  0  0  0  0  0  0  0  0  0
  -13.7404    6.0000    0.0000 C   0  0  0  0  0  0  0  0  0  0  0  0
  -15.0394    5.2500    0.0000 C   0  0  0  0  0  0  0  0  0  0  0  0
  -16.3385    7.5000    0.0000 C   0  0  0  0  0  0  0  0  0  0  0  0
  -16.3385    6.0000    0.0000 C   0  0  0  0  0  0  0  0  0  0  0  0
   -8.5442    7.5000    0.0000 C   0  0  0  0  0  0  0  0  0  0  0  0
   -8.5442    6.0000    0.0000 C   0  0  0  0  0  0  0  0  0  0  0  0
   -3.3481    3.0000    0.0000 N   0  0  0  0  0  0  0  0  0  0  0  0
   -2.0491    3.7500    0.0000 C   0  0  0  0  0  0  0  0  0  0  0  0
   -0.7500    3.0000    0.0000 C   0  0  0  0  0  0  0  0  0  0  0  0
   -3.3481    1.5000    0.0000 C   0  0  0  0  0  0  0  0  0  0  0  0
   -2.0490    0.7500    0.0000 C   0  0  0  0  0  0  0  0  0  0  0  0
  1 14  2  0  0  0  0
  1  9  1  0  0  0  0
  2  3  2  0  0  0  0
  2  4  1  0  0  0  0
  3  5  1  0  0  0  0
  4  6  2  0  0  0  0
  4 24  1  0  0  0  0
  5  7  2  0  0  0  0
  5 25  1  0  0  0  0
  6  7  1  0  0  0  0
  8 10  2  0  0  0  0
  8  9  1  0  0  0  0
  9 11  2  0  0  0  0
 10 12  1  0  0  0  0
 11 13  1  0  0  0  0
 11 16  1  0  0  0  0
 12 16  2  0  0  0  0
 13 15  2  0  0  0  0
 13 17  1  0  0  0  0
 14 15  1  0  0  0  0
 14 23  1  0  0  0  0
 17 19  2  0  0  0  0
 17 18  1  0  0  0  0
 18 21  2  0  0  0  0
 19 20  1  0  0  0  0
 20 22  2  0  0  0  0
 21 22  1  0  0  0  0
 23 24  2  0  0  0  0
 25 26  1  0  0  0  0
 25 28  1  0  0  0  0
 26 27  1  0  0  0  0
 28 29  1  0  0  0  0
M  END
