33005
 OpenBabel03021519512D

 17 19  0  0  0  0  0  0  0  0999 V2000
   -7.6317   -1.0365    0.0000 S   0  0  0  0  0  0  0  0  0  0  0  0
   -7.6317   -3.4635    0.0000 N   0  0  0  0  0  0  0  0  0  0  0  0
   -4.5000   -0.9510    0.0000 C   0  0  0  0  0  0  0  0  0  0  0  0
   -5.2500   -2.2500    0.0000 C   0  0  0  0  0  0  0  0  0  0  0  0
   -3.0000   -0.9510    0.0000 C   0  0  0  0  0  0  0  0  0  0  0  0
   -2.2500   -2.2500    0.0000 C   0  0  0  0  0  0  0  0  0  0  0  0
   -4.5000   -3.5490    0.0000 C   0  0  0  0  0  0  0  0  0  0  0  0
   -6.7500   -2.2500    0.0000 C   0  0  0  0  0  0  0  0  0  0  0  0
   -3.0000   -3.5490    0.0000 C   0  0  0  0  0  0  0  0  0  0  0  0
  -10.3573   -0.7500    0.0000 C   0  0  0  0  0  0  0  0  0  0  0  0
  -11.6563   -1.5000    0.0000 C   0  0  0  0  0  0  0  0  0  0  0  0
   -9.0583   -1.5000    0.0000 C   0  0  0  0  0  0  0  0  0  0  0  0
   -9.0583   -3.0000    0.0000 C   0  0  0  0  0  0  0  0  0  0  0  0
  -11.6563   -3.0000    0.0000 C   0  0  0  0  0  0  0  0  0  0  0  0
  -10.3573   -3.7500    0.0000 C   0  0  0  0  0  0  0  0  0  0  0  0
   -5.2500   -4.8481    0.0000 O   0  0  0  0  0  0  0  0  0  0  0  0
   -0.7500   -2.2500    0.0000 O   0  0  0  0  0  0  0  0  0  0  0  0
  1  8  1  0  0  0  0
  1 12  1  0  0  0  0
  2  8  2  0  0  0  0
  2 13  1  0  0  0  0
  3  5  2  0  0  0  0
  3  4  1  0  0  0  0
  4  7  2  0  0  0  0
  4  8  1  0  0  0  0
  5  6  1  0  0  0  0
  6  9  2  0  0  0  0
  6 17  1  0  0  0  0
  7  9  1  0  0  0  0
  7 16  1  0  0  0  0
 10 11  2  0  0  0  0
 10 12  1  0  0  0  0
 11 14  1  0  0  0  0
 12 13  2  0  0  0  0
 13 15  1  0  0  0  0
 14 15  2  0  0  0  0
M  END
