106461
 OpenBabel03021519512D

 17 19  0  0  0  0  0  0  0  0999 V2000
   -6.9236    6.5370    0.0000 N   0  0  0  0  0  0  0  0  0  0  0  0
   -7.9452    2.6541    0.0000 N   0  0  0  0  0  0  0  0  0  0  0  0
   -5.7279    3.6413    0.0000 S   0  0  0  0  0  0  0  0  0  0  0  0
   -6.9415    1.5394    0.0000 N   0  0  0  0  0  0  0  0  0  0  0  0
   -2.9731    2.1495    0.0000 N   0  0  0  0  0  0  0  0  0  0  0  0
   -5.5712    2.1495    0.0000 C   0  0  0  0  0  0  0  0  0  0  0  0
   -4.2721    1.3995    0.0000 C   0  0  0  0  0  0  0  0  0  0  0  0
   -4.2721   -0.1005    0.0000 C   0  0  0  0  0  0  0  0  0  0  0  0
   -2.9731   -0.8505    0.0000 C   0  0  0  0  0  0  0  0  0  0  0  0
   -1.6740    1.3995    0.0000 C   0  0  0  0  0  0  0  0  0  0  0  0
   -1.6740   -0.1005    0.0000 C   0  0  0  0  0  0  0  0  0  0  0  0
   -7.1952    3.9532    0.0000 C   0  0  0  0  0  0  0  0  0  0  0  0
   -7.8053    5.3235    0.0000 C   0  0  0  0  0  0  0  0  0  0  0  0
   -9.2971    5.4803    0.0000 C   0  0  0  0  0  0  0  0  0  0  0  0
   -9.9072    6.8506    0.0000 C   0  0  0  0  0  0  0  0  0  0  0  0
   -9.0255    8.0641    0.0000 C   0  0  0  0  0  0  0  0  0  0  0  0
   -7.5337    7.9073    0.0000 C   0  0  0  0  0  0  0  0  0  0  0  0
  1 13  2  0  0  0  0
  1 17  1  0  0  0  0
  2 12  2  0  0  0  0
  2  4  1  0  0  0  0
  3  6  1  0  0  0  0
  3 12  1  0  0  0  0
  4  6  2  0  0  0  0
  5  7  2  0  0  0  0
  5 10  1  0  0  0  0
  6  7  1  0  0  0  0
  7  8  1  0  0  0  0
  8  9  2  0  0  0  0
  9 11  1  0  0  0  0
 10 11  2  0  0  0  0
 12 13  1  0  0  0  0
 13 14  1  0  0  0  0
 14 15  2  0  0  0  0
 15 16  1  0  0  0  0
 16 17  2  0  0  0  0
M  END
