139168
 OpenBabel03021519512D

 28 31  0  0  1  0  0  0  0  0999 V2000
    4.6471    6.7500    0.0000 O   0  0  0  0  0  0  0  0  0  0  0  0
    5.9462    7.5000    0.0000 O   0  0  0  0  0  0  0  0  0  0  0  0
    9.8433    2.2500    0.0000 O   0  0  0  0  0  0  0  0  0  0  0  0
    8.5442    7.5000    0.0000 C   0  0  0  0  0  0  0  0  0  0  0  0
    7.2452    6.7500    0.0000 C   0  0  0  0  0  0  0  0  0  0  0  0
    9.8433    6.7500    0.0000 C   0  0  0  0  0  0  0  0  0  0  0  0
    9.8433    5.2500    0.0000 C   0  0  3  0  0  0  0  0  0  0  0  0
    7.2452    5.2500    0.0000 C   0  0  3  0  0  0  0  0  0  0  0  0
    8.5442    4.5000    0.0000 C   0  0  3  0  0  0  0  0  0  0  0  0
   11.1423    4.5000    0.0000 C   0  0  0  0  0  0  0  0  0  0  0  0
    5.9462    4.5000    0.0000 C   0  0  3  0  0  0  0  0  0  0  0  0
    4.6471    5.2500    0.0000 C   0  0  0  0  0  0  0  0  0  0  0  0
    3.3481    4.5000    0.0000 C   0  0  0  0  0  0  0  0  0  0  0  0
   11.1423    3.0000    0.0000 C   0  0  3  0  0  0  0  0  0  0  0  0
    8.5442    3.0000    0.0000 C   0  0  3  0  0  0  0  0  0  0  0  0
    5.9462    3.0000    0.0000 C   0  0  3  0  0  0  0  0  0  0  0  0
    3.3481    3.0000    0.0000 C   0  0  0  0  0  0  0  0  0  0  0  0
    7.2452    2.2500    0.0000 C   0  0  0  0  0  0  0  0  0  0  0  0
    4.6471    2.2500    0.0000 C   0  0  3  0  0  0  0  0  0  0  0  0
    2.0490    5.2500    0.0000 O   0  0  0  0  0  0  0  0  0  0  0  0
    0.7500    4.5000    0.0000 C   0  0  0  0  0  0  0  0  0  0  0  0
    4.6471    0.7500    0.0000 C   0  0  0  0  0  0  0  0  0  0  0  0
    5.9462    6.0000    0.0000 C   0  0  0  0  0  0  0  0  0  0  0  0
    7.2452    3.7500    0.0000 C   0  0  0  0  0  0  0  0  0  0  0  0
    8.5442    9.0000    0.0000 O   0  0  0  0  0  0  0  0  0  0  0  0
    7.2452    9.7500    0.0000 C   0  0  0  0  0  0  0  0  0  0  0  0
   11.1423    7.5000    0.0000 C   0  0  0  0  0  0  0  0  0  0  0  0
   12.4414    2.2500    0.0000 O   0  0  0  0  0  0  0  0  0  0  0  0
  1 12  2  0  0  0  0
  2  5  2  0  0  0  0
  3 14  1  0  0  0  0
  3 15  1  0  0  0  0
  4  6  2  0  0  0  0
  4  5  1  0  0  0  0
  4 25  1  0  0  0  0
  5  8  1  0  0  0  0
  6  7  1  0  0  0  0
  6 27  1  0  0  0  0
  7  9  1  0  0  0  0
  7 10  1  0  0  0  0
  8  9  1  0  0  0  0
  8 11  1  0  0  0  0
  9 15  1  0  0  0  0
  9 24  1  0  0  0  0
 10 14  1  0  0  0  0
 11 12  1  0  0  0  0
 11 16  1  0  0  0  0
 11 23  1  0  0  0  0
 12 13  1  0  0  0  0
 13 17  2  0  0  0  0
 13 20  1  0  0  0  0
 14 28  1  0  0  0  0
 15 18  1  0  0  0  0
 16 19  1  0  0  0  0
 16 18  1  0  0  0  0
 17 19  1  0  0  0  0
 19 22  1  0  0  0  0
 20 21  1  0  0  0  0
 25 26  1  0  0  0  0
M  END
