292253
 OpenBabel03021519512D

 32 36  0  0  1  0  0  0  0  0999 V2000
  -12.0430   -0.6627    0.0000 C   0  0  0  0  0  0  0  0  0  0  0  0
  -11.2930    0.6364    0.0000 C   0  0  0  0  0  0  0  0  0  0  0  0
  -12.0430    1.9354    0.0000 C   0  0  0  0  0  0  0  0  0  0  0  0
  -11.2930   -1.9617    0.0000 C   0  0  0  0  0  0  0  0  0  0  0  0
   -9.7930   -1.9617    0.0000 C   0  0  1  0  0  0  0  0  0  0  0  0
   -9.0430   -0.6626    0.0000 C   0  0  3  0  0  0  0  0  0  0  0  0
   -9.7930    0.6364    0.0000 C   0  0  1  0  0  0  0  0  0  0  0  0
   -9.4048    2.0853    0.0000 C   0  0  3  0  0  0  0  0  0  0  0  0
  -10.7039    2.8353    0.0000 O   0  0  0  0  0  0  0  0  0  0  0  0
   -7.5451   -0.5841    0.0000 C   0  0  0  0  0  0  0  0  0  0  0  0
   -6.9350    0.7862    0.0000 C   0  0  0  0  0  0  0  0  0  0  0  0
   -7.8790    1.9519    0.0000 C   0  0  0  0  0  0  0  0  0  0  0  0
  -13.5430   -0.6627    0.0000 C   0  0  0  0  0  0  0  0  0  0  0  0
  -14.2930    0.6364    0.0000 C   0  0  0  0  0  0  0  0  0  0  0  0
  -13.5430    1.9354    0.0000 C   0  0  0  0  0  0  0  0  0  0  0  0
   -8.2930   -1.9617    0.0000 N   0  0  0  0  0  0  0  0  0  0  0  0
   -7.5430   -0.6626    0.0000 C   0  0  0  0  0  0  0  0  0  0  0  0
   -8.2930    0.6364    0.0000 C   0  0  0  0  0  0  0  0  0  0  0  0
   -7.5430   -3.2607    0.0000 C   0  0  0  0  0  0  0  0  0  0  0  0
   -7.1748    3.2763    0.0000 O   0  0  0  0  0  0  0  0  0  0  0  0
  -14.2930    3.2345    0.0000 O   0  0  0  0  0  0  0  0  0  0  0  0
   -6.0430   -3.2607    0.0000 C   0  0  0  0  0  0  0  0  0  0  0  0
   -5.1613   -4.4742    0.0000 C   0  0  0  0  0  0  0  0  0  0  0  0
   -3.7348   -4.0107    0.0000 O   0  0  0  0  0  0  0  0  0  0  0  0
   -3.7348   -2.5107    0.0000 C   0  0  0  0  0  0  0  0  0  0  0  0
   -5.1614   -2.0472    0.0000 C   0  0  0  0  0  0  0  0  0  0  0  0
  -10.5430   -0.6627    0.0000 O   0  0  0  0  0  0  0  0  0  0  0  0
  -13.1646   -4.9792    0.0000 C   0  0  0  0  0  0  0  0  0  0  0  0
  -11.6646   -4.9792    0.0000 S   0  0  0  0  0  0  0  0  0  0  0  0
  -11.6646   -6.4792    0.0000 O   0  0  0  0  0  0  0  0  0  0  0  0
  -11.6646   -3.4792    0.0000 O   0  0  0  0  0  0  0  0  0  0  0  0
  -10.1646   -4.9792    0.0000 O   0  0  0  0  0  0  0  0  0  0  0  0
  1  2  2  0  0  0  0
  1  4  1  0  0  0  0
  1 13  1  0  0  0  0
  2  3  1  0  0  0  0
  3  9  1  0  0  0  0
  3 15  2  0  0  0  0
  5  4  1  1  0  0  0
  5  6  1  0  0  0  0
  5 16  1  0  0  0  0
  6  7  1  0  0  0  0
  6 10  1  0  0  0  0
  6 27  1  0  0  0  0
  7  2  1  1  0  0  0
  7  8  1  0  0  0  0
  7 18  1  0  0  0  0
  8  9  1  0  0  0  0
  8 12  1  0  0  0  0
 10 11  1  0  0  0  0
 11 12  1  0  0  0  0
 12 20  2  0  0  0  0
 13 14  2  0  0  0  0
 14 15  1  0  0  0  0
 15 21  1  0  0  0  0
 16 17  1  0  0  0  0
 16 19  1  0  0  0  0
 17 18  1  0  0  0  0
 19 22  1  0  0  0  0
 22 23  2  0  0  0  0
 22 26  1  0  0  0  0
 23 24  1  0  0  0  0
 24 25  1  0  0  0  0
 25 26  2  0  0  0  0
 28 29  1  0  0  0  0
 29 30  2  0  0  0  0
 29 31  2  0  0  0  0
 29 32  1  0  0  0  0
M  END
