179822
 OpenBabel03021519512D

 19 21  0  0  0  0  0  0  0  0999 V2000
   -5.7295   -1.9846    0.0000 O   0  0  0  0  0  0  0  0  0  0  0  0
   -3.0039   -6.1981    0.0000 O   0  0  0  0  0  0  0  0  0  0  0  0
   -1.7048   -3.9481    0.0000 O   0  0  0  0  0  0  0  0  0  0  0  0
   -3.0039   -1.6981    0.0000 C   0  0  0  0  0  0  0  0  0  0  0  0
   -4.3029   -2.4481    0.0000 C   0  0  0  0  0  0  0  0  0  0  0  0
   -1.7049   -2.4481    0.0000 C   0  0  0  0  0  0  0  0  0  0  0  0
   -4.3029   -3.9481    0.0000 C   0  0  0  0  0  0  0  0  0  0  0  0
   -3.0039   -4.6981    0.0000 C   0  0  0  0  0  0  0  0  0  0  0  0
   -5.7295   -4.4116    0.0000 C   0  0  0  0  0  0  0  0  0  0  0  0
   -8.1030   -3.3549    0.0000 C   0  0  0  0  0  0  0  0  0  0  0  0
   -6.6112   -3.1981    0.0000 C   0  0  0  0  0  0  0  0  0  0  0  0
   -8.7131   -4.7252    0.0000 C   0  0  0  0  0  0  0  0  0  0  0  0
   -7.8314   -5.9388    0.0000 C   0  0  0  0  0  0  0  0  0  0  0  0
   -6.3396   -5.7820    0.0000 C   0  0  0  0  0  0  0  0  0  0  0  0
  -10.2049   -4.8820    0.0000 O   0  0  0  0  0  0  0  0  0  0  0  0
  -10.8150   -6.2524    0.0000 C   0  0  0  0  0  0  0  0  0  0  0  0
   -8.4415   -7.3091    0.0000 O   0  0  0  0  0  0  0  0  0  0  0  0
   -9.9333   -7.4659    0.0000 C   0  0  0  0  0  0  0  0  0  0  0  0
   -0.4058   -1.6981    0.0000 C   0  0  0  0  0  0  0  0  0  0  0  0
  1  5  1  0  0  0  0
  1 11  1  0  0  0  0
  2  8  2  0  0  0  0
  3  6  1  0  0  0  0
  3  8  1  0  0  0  0
  4  6  2  0  0  0  0
  4  5  1  0  0  0  0
  5  7  2  0  0  0  0
  6 19  1  0  0  0  0
  7  8  1  0  0  0  0
  7  9  1  0  0  0  0
  9 11  2  0  0  0  0
  9 14  1  0  0  0  0
 10 12  2  0  0  0  0
 10 11  1  0  0  0  0
 12 13  1  0  0  0  0
 12 15  1  0  0  0  0
 13 14  2  0  0  0  0
 13 17  1  0  0  0  0
 15 16  1  0  0  0  0
 17 18  1  0  0  0  0
M  END
