83237
 OpenBabel03021519512D

 15 16  0  0  0  0  0  0  0  0999 V2000
   -0.4331    2.2502    0.0000 H   0  0  0  0  0  0  0  0  0  0  0  0
    0.8659    3.0002    0.0000 N   0  0  0  0  0  0  0  0  0  0  0  0
    5.3923    6.7984    0.0000 C   0  0  0  0  0  0  0  0  0  0  0  0
    6.3565    7.9474    0.0000 C   0  0  0  0  0  0  0  0  0  0  0  0
    5.9054    5.3888    0.0000 C   0  0  0  0  0  0  0  0  0  0  0  0
    7.8337    7.6870    0.0000 C   0  0  0  0  0  0  0  0  0  0  0  0
    7.3826    5.1284    0.0000 C   0  0  0  0  0  0  0  0  0  0  0  0
    8.3468    6.2774    0.0000 C   0  0  0  0  0  0  0  0  0  0  0  0
    3.4640    4.5002    0.0000 C   0  0  0  0  0  0  0  0  0  0  0  0
    2.1649    5.2502    0.0000 C   0  0  0  0  0  0  0  0  0  0  0  0
    0.8659    4.5002    0.0000 C   0  0  0  0  0  0  0  0  0  0  0  0
    3.4640    3.0002    0.0000 C   0  0  0  0  0  0  0  0  0  0  0  0
    2.1649    2.2502    0.0000 C   0  0  0  0  0  0  0  0  0  0  0  0
    3.9770    5.9098    0.0000 O   0  0  0  0  0  0  0  0  0  0  0  0
    4.9412    4.2398    0.0000 C   0  0  0  0  0  0  0  0  0  0  0  0
  1  2  1  0  0  0  0
  2 11  1  0  0  0  0
  2 13  1  0  0  0  0
  3  4  2  0  0  0  0
  3  5  1  0  0  0  0
  4  6  1  0  0  0  0
  5  7  2  0  0  0  0
  5 15  1  0  0  0  0
  6  8  2  0  0  0  0
  7  8  1  0  0  0  0
  9 10  1  0  0  0  0
  9 12  1  0  0  0  0
  9 14  1  0  0  0  0
  9 15  1  0  0  0  0
 10 11  1  0  0  0  0
 12 13  1  0  0  0  0
M  END
