136513
 OpenBabel03021519512D

 30 33  0  0  0  0  0  0  0  0999 V2000
   -1.9492    2.5328    0.0000 O   0  0  0  0  0  0  0  0  0  0  0  0
    5.5359    5.9979    0.0000 O   0  0  0  0  0  0  0  0  0  0  0  0
    6.5127    3.7761    0.0000 O   0  0  0  0  0  0  0  0  0  0  0  0
    2.9255    5.1633    0.0000 C   0  0  0  0  0  0  0  0  0  0  0  0
    2.0381    3.9539    0.0000 C   0  0  0  0  0  0  0  0  0  0  0  0
    4.4165    4.9995    0.0000 C   0  0  0  0  0  0  0  0  0  0  0  0
    5.0202    3.6263    0.0000 C   0  0  0  0  0  0  0  0  0  0  0  0
    2.6417    2.5807    0.0000 C   0  0  0  0  0  0  0  0  0  0  0  0
    4.1328    2.4169    0.0000 C   0  0  0  0  0  0  0  0  0  0  0  0
    6.8314    5.2418    0.0000 C   0  0  0  0  0  0  0  0  0  0  0  0
   -0.4805    2.8378    0.0000 C   0  0  0  0  0  0  0  0  0  0  0  0
    0.2633    1.5352    0.0000 C   0  0  0  0  0  0  0  0  0  0  0  0
   -0.7456    0.4252    0.0000 C   0  0  0  0  0  0  0  0  0  0  0  0
   -2.1130    1.0418    0.0000 C   0  0  0  0  0  0  0  0  0  0  0  0
   -1.5601   -2.0419    0.0000 C   0  0  0  0  0  0  0  0  0  0  0  0
   -1.2551   -3.5106    0.0000 C   0  0  0  0  0  0  0  0  0  0  0  0
   -2.9845   -1.5716    0.0000 C   0  0  0  0  0  0  0  0  0  0  0  0
   -4.1039   -2.5701    0.0000 C   0  0  0  0  0  0  0  0  0  0  0  0
   -2.3746   -4.5090    0.0000 C   0  0  0  0  0  0  0  0  0  0  0  0
   -3.7989   -4.0388    0.0000 C   0  0  0  0  0  0  0  0  0  0  0  0
   -2.0696   -5.9777    0.0000 O   0  0  0  0  0  0  0  0  0  0  0  0
   -0.6452   -6.4479    0.0000 C   0  0  0  0  0  0  0  0  0  0  0  0
   -0.4406   -1.0435    0.0000 C   0  0  0  0  0  0  0  0  0  0  0  0
    0.9837   -1.5137    0.0000 O   0  0  0  0  0  0  0  0  0  0  0  0
   -4.9184   -5.0372    0.0000 O   0  0  0  0  0  0  0  0  0  0  0  0
   -4.6134   -6.5059    0.0000 C   0  0  0  0  0  0  0  0  0  0  0  0
    1.7544    1.3714    0.0000 C   0  0  0  0  0  0  0  0  0  0  0  0
    2.3580   -0.0018    0.0000 O   0  0  0  0  0  0  0  0  0  0  0  0
   -5.5283   -2.0998    0.0000 O   0  0  0  0  0  0  0  0  0  0  0  0
   -5.8332   -0.6312    0.0000 C   0  0  0  0  0  0  0  0  0  0  0  0
  1 11  1  0  0  0  0
  1 14  1  0  0  0  0
  2  6  1  0  0  0  0
  2 10  1  0  0  0  0
  3  7  1  0  0  0  0
  3 10  1  0  0  0  0
  4  5  2  0  0  0  0
  4  6  1  0  0  0  0
  5  8  1  0  0  0  0
  6  7  2  0  0  0  0
  7  9  1  0  0  0  0
  8  9  2  0  0  0  0
  8 27  1  0  0  0  0
 11 12  2  0  0  0  0
 12 13  1  0  0  0  0
 12 27  1  0  0  0  0
 13 14  2  0  0  0  0
 13 23  1  0  0  0  0
 15 16  2  0  0  0  0
 15 17  1  0  0  0  0
 15 23  1  0  0  0  0
 16 19  1  0  0  0  0
 17 18  2  0  0  0  0
 18 20  1  0  0  0  0
 18 29  1  0  0  0  0
 19 20  2  0  0  0  0
 19 21  1  0  0  0  0
 20 25  1  0  0  0  0
 21 22  1  0  0  0  0
 23 24  2  0  0  0  0
 25 26  1  0  0  0  0
 27 28  2  0  0  0  0
 29 30  1  0  0  0  0
M  END
