166634
 OpenBabel03021519512D

 15 16  0  0  0  0  0  0  0  0999 V2000
   -6.1527   -2.0986    0.0000 N   0  0  0  0  0  0  0  0  0  0  0  0
   -5.2257   -4.9517    0.0000 N   0  0  0  0  0  0  0  0  0  0  0  0
   -3.4720   -1.5288    0.0000 N   0  0  0  0  0  0  0  0  0  0  0  0
   -2.2584   -2.4104    0.0000 N   0  0  0  0  0  0  0  0  0  0  0  0
   -4.6855   -2.4104    0.0000 C   0  0  0  0  0  0  0  0  0  0  0  0
   -4.2220   -3.8370    0.0000 C   0  0  0  0  0  0  0  0  0  0  0  0
   -2.7220   -3.8370    0.0000 C   0  0  0  0  0  0  0  0  0  0  0  0
   -7.1564   -3.2133    0.0000 C   0  0  0  0  0  0  0  0  0  0  0  0
   -6.6929   -4.6399    0.0000 C   0  0  0  0  0  0  0  0  0  0  0  0
   -8.6236   -2.9014    0.0000 C   0  0  0  0  0  0  0  0  0  0  0  0
   -8.9355   -4.3687    0.0000 Cl  0  0  0  0  0  0  0  0  0  0  0  0
  -10.0909   -2.5896    0.0000 Cl  0  0  0  0  0  0  0  0  0  0  0  0
   -8.3118   -1.4342    0.0000 Cl  0  0  0  0  0  0  0  0  0  0  0  0
   -3.4720   -0.0288    0.0000 C   0  0  0  0  0  0  0  0  0  0  0  0
   -1.8403   -5.0506    0.0000 N   0  0  0  0  0  0  0  0  0  0  0  0
  1  8  2  0  0  0  0
  1  5  1  0  0  0  0
  2  9  2  0  0  0  0
  2  6  1  0  0  0  0
  3  4  1  0  0  0  0
  3  5  1  0  0  0  0
  3 14  1  0  0  0  0
  4  7  2  0  0  0  0
  5  6  2  0  0  0  0
  6  7  1  0  0  0  0
  7 15  1  0  0  0  0
  8  9  1  0  0  0  0
  8 10  1  0  0  0  0
 10 11  1  0  0  0  0
 10 12  1  0  0  0  0
 10 13  1  0  0  0  0
M  END
