17128
 OpenBabel03021519512D

 27 30  0  0  1  0  0  0  0  0999 V2000
   -6.7182  -12.4649    0.0000 O   0  0  0  0  0  0  0  0  0  0  0  0
   -2.2398   -9.4326    0.0000 F   0  0  0  0  0  0  0  0  0  0  0  0
   -1.6997   -6.8913    0.0000 H   0  0  0  0  0  0  0  0  0  0  0  0
    0.3777   -8.5735    0.0000 H   0  0  0  0  0  0  0  0  0  0  0  0
    0.5175   -4.8949    0.0000 C   0  0  1  0  0  0  0  0  0  0  0  0
    1.7311   -5.7766    0.0000 C   0  0  0  0  0  0  0  0  0  0  0  0
   -0.6960   -5.7766    0.0000 C   0  0  1  0  0  0  0  0  0  0  0  0
   -2.1632   -5.4647    0.0000 C   0  0  0  0  0  0  0  0  0  0  0  0
   -3.1669   -6.5794    0.0000 C   0  0  1  0  0  0  0  0  0  0  0  0
    1.2676   -7.2032    0.0000 C   0  0  0  0  0  0  0  0  0  0  0  0
   -0.2325   -7.2032    0.0000 C   0  0  1  0  0  0  0  0  0  0  0  0
   -2.7034   -8.0060    0.0000 C   0  0  2  0  0  0  0  0  0  0  0  0
   -1.2361   -8.3179    0.0000 C   0  0  1  0  0  0  0  0  0  0  0  0
   -3.7071   -9.1207    0.0000 C   0  0  1  0  0  0  0  0  0  0  0  0
   -5.1743   -8.8089    0.0000 C   0  0  0  0  0  0  0  0  0  0  0  0
   -6.1780   -9.9236    0.0000 C   0  0  0  0  0  0  0  0  0  0  0  0
   -0.7726   -9.7445    0.0000 C   0  0  0  0  0  0  0  0  0  0  0  0
   -3.2435  -10.5473    0.0000 C   0  0  0  0  0  0  0  0  0  0  0  0
   -5.7145  -11.3502    0.0000 C   0  0  0  0  0  0  0  0  0  0  0  0
   -1.7763  -10.8592    0.0000 C   0  0  0  0  0  0  0  0  0  0  0  0
   -4.2472  -11.6620    0.0000 C   0  0  0  0  0  0  0  0  0  0  0  0
   -4.1706   -7.6941    0.0000 C   0  0  0  0  0  0  0  0  0  0  0  0
   -4.6341   -6.2676    0.0000 O   0  0  0  0  0  0  0  0  0  0  0  0
   -1.0078   -4.3093    0.0000 C   0  0  0  0  0  0  0  0  0  0  0  0
    0.5175   -3.3949    0.0000 C   0  0  0  0  0  0  0  0  0  0  0  0
   -0.7815   -2.6449    0.0000 O   0  0  0  0  0  0  0  0  0  0  0  0
    1.8166   -2.6449    0.0000 C   0  0  0  0  0  0  0  0  0  0  0  0
  1 19  2  0  0  0  0
  5  6  1  0  0  0  0
  5  7  1  0  0  0  0
  5 25  1  1  0  0  0
  6 10  1  0  0  0  0
  7  8  1  0  0  0  0
  7 11  1  0  0  0  0
  7 24  1  1  0  0  0
  8  9  1  0  0  0  0
  9 12  1  0  0  0  0
  9 23  1  1  0  0  0
 10 11  1  0  0  0  0
 11  4  1  6  0  0  0
 11 13  1  0  0  0  0
 12  2  1  6  0  0  0
 12 13  1  0  0  0  0
 12 14  1  0  0  0  0
 13  3  1  1  0  0  0
 13 17  1  0  0  0  0
 14 15  1  0  0  0  0
 14 18  1  0  0  0  0
 14 22  1  1  0  0  0
 15 16  1  0  0  0  0
 16 19  1  0  0  0  0
 17 20  1  0  0  0  0
 18 21  2  0  0  0  0
 18 20  1  0  0  0  0
 19 21  1  0  0  0  0
 25 26  2  0  0  0  0
 25 27  1  0  0  0  0
M  END
