216607
 OpenBabel03021519512D

 23 24  0  0  0  0  0  0  0  0999 V2000
    1.4586   12.5094    0.0000 F   0  0  0  0  0  0  0  0  0  0  0  0
   -5.0366    7.2594    0.0000 O   0  0  0  0  0  0  0  0  0  0  0  0
   -7.4847    5.9736    0.0000 O   0  0  0  0  0  0  0  0  0  0  0  0
   -1.1395    9.5094    0.0000 C   0  0  0  0  0  0  0  0  0  0  0  0
    0.1595   10.2594    0.0000 C   0  0  0  0  0  0  0  0  0  0  0  0
   -2.4385   10.2594    0.0000 C   0  0  0  0  0  0  0  0  0  0  0  0
    0.1595   11.7594    0.0000 C   0  0  0  0  0  0  0  0  0  0  0  0
   -2.4385   11.7594    0.0000 C   0  0  0  0  0  0  0  0  0  0  0  0
   -1.1395   12.5094    0.0000 C   0  0  0  0  0  0  0  0  0  0  0  0
   -4.8866    5.9736    0.0000 C   0  0  0  0  0  0  0  0  0  0  0  0
   -6.1857    5.2236    0.0000 C   0  0  0  0  0  0  0  0  0  0  0  0
   -3.5876    5.2236    0.0000 C   0  0  0  0  0  0  0  0  0  0  0  0
   -6.1857    3.7236    0.0000 C   0  0  0  0  0  0  0  0  0  0  0  0
   -3.5876    3.7236    0.0000 C   0  0  0  0  0  0  0  0  0  0  0  0
   -4.8866    2.9736    0.0000 C   0  0  0  0  0  0  0  0  0  0  0  0
   -3.7376    9.5094    0.0000 N   0  0  0  0  0  0  0  0  0  0  0  0
   -3.7376    8.0094    0.0000 C   0  0  0  0  0  0  0  0  0  0  0  0
   -2.4385    7.2594    0.0000 O   0  0  0  0  0  0  0  0  0  0  0  0
   -6.1857    8.2236    0.0000 C   0  0  0  0  0  0  0  0  0  0  0  0
   -7.4847    7.4736    0.0000 C   0  0  0  0  0  0  0  0  0  0  0  0
   -2.2886    2.9736    0.0000 N   0  3  0  0  0  0  0  0  0  0  0  0
   -0.9895    3.7236    0.0000 O   0  5  0  0  0  0  0  0  0  0  0  0
   -2.2886    1.4736    0.0000 O   0  0  0  0  0  0  0  0  0  0  0  0
  1  7  1  0  0  0  0
  2 17  1  0  0  0  0
  2 19  1  0  0  0  0
  3 11  1  0  0  0  0
  3 20  1  0  0  0  0
  4  5  2  0  0  0  0
  4  6  1  0  0  0  0
  5  7  1  0  0  0  0
  6  8  2  0  0  0  0
  6 16  1  0  0  0  0
  7  9  2  0  0  0  0
  8  9  1  0  0  0  0
 10 12  2  0  0  0  0
 10 11  1  0  0  0  0
 11 13  2  0  0  0  0
 12 14  1  0  0  0  0
 13 15  1  0  0  0  0
 14 15  2  0  0  0  0
 14 21  1  0  0  0  0
 16 17  1  0  0  0  0
 17 18  2  0  0  0  0
 19 20  1  0  0  0  0
 21 22  1  0  0  0  0
 21 23  2  0  0  0  0
M  CHG  2  21   1  22  -1
M  END
