11668
 OpenBabel03021519512D

 26 29  0  0  0  0  0  0  0  0999 V2000
   -9.4602    0.1144    0.0000 C   0  0  0  0  0  0  0  0  0  0  0  0
   -9.4602   -1.3856    0.0000 N   0  0  0  0  0  0  0  0  0  0  0  0
   -8.1612   -2.1356    0.0000 C   0  0  0  0  0  0  0  0  0  0  0  0
   -6.8621   -1.3856    0.0000 C   0  0  0  0  0  0  0  0  0  0  0  0
   -6.8621    0.1144    0.0000 C   0  0  0  0  0  0  0  0  0  0  0  0
   -8.1612    0.8644    0.0000 N   0  0  0  0  0  0  0  0  0  0  0  0
   -5.4355   -1.8491    0.0000 C   0  0  0  0  0  0  0  0  0  0  0  0
   -4.5539   -0.6356    0.0000 N   0  0  0  0  0  0  0  0  0  0  0  0
   -5.4355    0.5780    0.0000 N   0  0  0  0  0  0  0  0  0  0  0  0
  -12.0583    0.1145    0.0000 C   0  0  0  0  0  0  0  0  0  0  0  0
  -13.3573    0.8645    0.0000 C   0  0  0  0  0  0  0  0  0  0  0  0
  -14.6564    0.1145    0.0000 C   0  0  0  0  0  0  0  0  0  0  0  0
  -14.6564   -1.3855    0.0000 C   0  0  0  0  0  0  0  0  0  0  0  0
  -13.3573   -2.1356    0.0000 C   0  0  0  0  0  0  0  0  0  0  0  0
  -12.0583   -1.3856    0.0000 C   0  0  0  0  0  0  0  0  0  0  0  0
  -13.3573   -3.6356    0.0000 Cl  0  0  0  0  0  0  0  0  0  0  0  0
   -4.9720    2.0046    0.0000 C   0  0  0  0  0  0  0  0  0  0  0  0
   -6.8621   -4.3855    0.0000 C   0  0  0  0  0  0  0  0  0  0  0  0
   -6.8621   -5.8855    0.0000 C   0  0  0  0  0  0  0  0  0  0  0  0
   -5.5631   -6.6355    0.0000 C   0  0  0  0  0  0  0  0  0  0  0  0
   -4.2640   -5.8855    0.0000 C   0  0  0  0  0  0  0  0  0  0  0  0
   -4.2640   -4.3855    0.0000 C   0  0  0  0  0  0  0  0  0  0  0  0
   -5.5631   -3.6355    0.0000 C   0  0  0  0  0  0  0  0  0  0  0  0
   -2.9650   -3.6356    0.0000 Cl  0  0  0  0  0  0  0  0  0  0  0  0
  -10.7592    0.8644    0.0000 N   0  0  0  0  0  0  0  0  0  0  0  0
   -8.1612   -3.6355    0.0000 N   0  0  0  0  0  0  0  0  0  0  0  0
  1  2  2  0  0  0  0
  1  6  1  0  0  0  0
  1 25  1  0  0  0  0
  2  3  1  0  0  0  0
  3  4  2  0  0  0  0
  3 26  1  0  0  0  0
  4  5  1  0  0  0  0
  4  7  1  0  0  0  0
  5  6  2  0  0  0  0
  5  9  1  0  0  0  0
  7  8  2  0  0  0  0
  8  9  1  0  0  0  0
  9 17  1  0  0  0  0
 10 11  2  0  0  0  0
 10 15  1  0  0  0  0
 10 25  1  0  0  0  0
 11 12  1  0  0  0  0
 12 13  2  0  0  0  0
 13 14  1  0  0  0  0
 14 15  2  0  0  0  0
 14 16  1  0  0  0  0
 18 19  2  0  0  0  0
 18 23  1  0  0  0  0
 18 26  1  0  0  0  0
 19 20  1  0  0  0  0
 20 21  2  0  0  0  0
 21 22  1  0  0  0  0
 22 23  2  0  0  0  0
 22 24  1  0  0  0  0
M  END
