194308
 OpenBabel03021519512D

 19 20  0  0  1  0  0  0  0  0999 V2000
   -0.4533    5.1043    0.0000 C   0  0  0  0  0  0  0  0  0  0  0  0
    6.0419    5.8543    0.0000 C   0  0  0  0  0  0  0  0  0  0  0  0
    0.8457    5.8543    0.0000 C   0  0  3  0  0  0  0  0  0  0  0  0
    0.8457    4.3543    0.0000 C   0  0  0  0  0  0  0  0  0  0  0  0
    2.1447    5.1043    0.0000 C   0  0  3  0  0  0  0  0  0  0  0  0
   -0.4533    3.6043    0.0000 C   0  0  3  0  0  0  0  0  0  0  0  0
    2.1447    3.6043    0.0000 C   0  0  0  0  0  0  0  0  0  0  0  0
    0.8457    2.8543    0.0000 C   0  0  0  0  0  0  0  0  0  0  0  0
   -1.9305    4.8438    0.0000 C   0  0  0  0  0  0  0  0  0  0  0  0
   -0.9664    6.5138    0.0000 C   0  0  0  0  0  0  0  0  0  0  0  0
    3.4438    5.8543    0.0000 C   0  0  0  0  0  0  0  0  0  0  0  0
    4.7428    5.1043    0.0000 N   0  0  0  0  0  0  0  0  0  0  0  0
    6.0419    7.3543    0.0000 N   0  0  0  0  0  0  0  0  0  0  0  0
    7.3409    5.1043    0.0000 C   0  0  0  0  0  0  0  0  0  0  0  0
    8.6399    5.8543    0.0000 S   0  0  0  0  0  0  0  0  0  0  0  0
    8.6399    7.3543    0.0000 S   0  0  0  0  0  0  0  0  0  0  0  0
    7.1399    7.3543    0.0000 O   0  0  0  0  0  0  0  0  0  0  0  0
   10.1399    7.3543    0.0000 O   0  0  0  0  0  0  0  0  0  0  0  0
    8.6399    8.8543    0.0000 O   0  0  0  0  0  0  0  0  0  0  0  0
  1  3  1  0  0  0  0
  1  6  1  0  0  0  0
  1  9  1  0  0  0  0
  1 10  1  0  0  0  0
  2 12  1  0  0  0  0
  2 13  2  0  0  0  0
  2 14  1  0  0  0  0
  3  4  1  0  0  0  0
  3  5  1  0  0  0  0
  4  6  1  0  0  0  0
  5  7  1  0  0  0  0
  5 11  1  0  0  0  0
  6  8  1  0  0  0  0
  7  8  1  0  0  0  0
 11 12  1  0  0  0  0
 14 15  1  0  0  0  0
 15 16  1  0  0  0  0
 16 17  2  0  0  0  0
 16 18  2  0  0  0  0
 16 19  1  0  0  0  0
M  END
