40275
 OpenBabel03021519512D

 20 22  0  0  0  0  0  0  0  0999 V2000
    1.4285   -5.0258    0.0000 C   0  0  0  0  0  0  0  0  0  0  0  0
    2.7275   -5.7758    0.0000 C   0  0  0  0  0  0  0  0  0  0  0  0
    1.4285   -3.5258    0.0000 C   0  0  0  0  0  0  0  0  0  0  0  0
    2.7275   -2.7758    0.0000 C   0  0  0  0  0  0  0  0  0  0  0  0
    4.0266   -5.0258    0.0000 C   0  0  0  0  0  0  0  0  0  0  0  0
    4.0266   -3.5258    0.0000 C   0  0  0  0  0  0  0  0  0  0  0  0
    0.1294   -7.2758    0.0000 C   0  0  0  0  0  0  0  0  0  0  0  0
    1.4285   -8.0258    0.0000 C   0  0  0  0  0  0  0  0  0  0  0  0
   -1.1696   -8.0258    0.0000 C   0  0  0  0  0  0  0  0  0  0  0  0
   -2.4686   -7.2758    0.0000 C   0  0  0  0  0  0  0  0  0  0  0  0
   -3.7677   -8.0258    0.0000 C   0  0  0  0  0  0  0  0  0  0  0  0
    1.4285   -9.5258    0.0000 C   0  0  0  0  0  0  0  0  0  0  0  0
   -1.1696   -9.5258    0.0000 C   0  0  0  0  0  0  0  0  0  0  0  0
   -3.7677   -9.5258    0.0000 C   0  0  0  0  0  0  0  0  0  0  0  0
    0.1294  -10.2758    0.0000 C   0  0  0  0  0  0  0  0  0  0  0  0
   -2.4686  -10.2758    0.0000 C   0  0  0  0  0  0  0  0  0  0  0  0
    2.7275  -10.2758    0.0000 C   0  0  0  0  0  0  0  0  0  0  0  0
    4.0266   -9.5258    0.0000 O   0  0  0  0  0  0  0  0  0  0  0  0
    2.7275  -11.7758    0.0000 O   0  0  0  0  0  0  0  0  0  0  0  0
    2.7275   -7.2758    0.0000 N   0  0  0  0  0  0  0  0  0  0  0  0
  1  3  2  0  0  0  0
  1  2  1  0  0  0  0
  2  5  2  0  0  0  0
  2 20  1  0  0  0  0
  3  4  1  0  0  0  0
  4  6  2  0  0  0  0
  5  6  1  0  0  0  0
  7  8  2  0  0  0  0
  7  9  1  0  0  0  0
  8 12  1  0  0  0  0
  8 20  1  0  0  0  0
  9 13  2  0  0  0  0
  9 10  1  0  0  0  0
 10 11  2  0  0  0  0
 11 14  1  0  0  0  0
 12 15  2  0  0  0  0
 12 17  1  0  0  0  0
 13 16  1  0  0  0  0
 13 15  1  0  0  0  0
 14 16  2  0  0  0  0
 17 18  2  0  0  0  0
 17 19  1  0  0  0  0
M  END
