292140
 OpenBabel03021519512D

 26 29  0  0  0  0  0  0  0  0999 V2000
   -1.3545    4.8092    0.0000 C   0  0  0  0  0  0  0  0  0  0  0  0
   -1.3545    3.3092    0.0000 C   0  0  0  0  0  0  0  0  0  0  0  0
   -1.2690    7.9409    0.0000 N   0  0  0  0  0  0  0  0  0  0  0  0
   -0.0555    5.5592    0.0000 C   0  0  0  0  0  0  0  0  0  0  0  0
   -0.0555    2.5592    0.0000 C   0  0  0  0  0  0  0  0  0  0  0  0
   -0.0555    1.0592    0.0000 Cl  0  0  0  0  0  0  0  0  0  0  0  0
   -0.0555    7.0592    0.0000 N   0  0  0  0  0  0  0  0  0  0  0  0
    1.2435    4.8092    0.0000 C   0  0  0  0  0  0  0  0  0  0  0  0
    1.2435    3.3092    0.0000 C   0  0  0  0  0  0  0  0  0  0  0  0
   -0.8055    9.3675    0.0000 C   0  0  0  0  0  0  0  0  0  0  0  0
    1.1580    7.9409    0.0000 C   0  0  0  0  0  0  0  0  0  0  0  0
    0.6945    9.3675    0.0000 C   0  0  0  0  0  0  0  0  0  0  0  0
    1.2347   11.9088    0.0000 O   0  0  0  0  0  0  0  0  0  0  0  0
    2.6253    7.6290    0.0000 N   0  0  0  0  0  0  0  0  0  0  0  0
    3.0888    6.2024    0.0000 H   0  0  0  0  0  0  0  0  0  0  0  0
    1.6982   10.4822    0.0000 C   0  0  0  0  0  0  0  0  0  0  0  0
    3.6289    8.7437    0.0000 C   0  0  0  0  0  0  0  0  0  0  0  0
    3.1654   10.1703    0.0000 N   0  0  0  0  0  0  0  0  0  0  0  0
    5.0962    8.4319    0.0000 O   0  0  0  0  0  0  0  0  0  0  0  0
    4.1691   11.2850    0.0000 C   0  0  0  0  0  0  0  0  0  0  0  0
    5.6363   10.9732    0.0000 C   0  0  0  0  0  0  0  0  0  0  0  0
    3.7056   12.7116    0.0000 C   0  0  0  0  0  0  0  0  0  0  0  0
    4.7093   13.8263    0.0000 C   0  0  0  0  0  0  0  0  0  0  0  0
    6.6400   12.0879    0.0000 C   0  0  0  0  0  0  0  0  0  0  0  0
    6.1765   13.5145    0.0000 C   0  0  0  0  0  0  0  0  0  0  0  0
    8.1073   11.7760    0.0000 Cl  0  0  0  0  0  0  0  0  0  0  0  0
  1  4  1  0  0  0  0
  1  2  2  0  0  0  0
  2  5  1  0  0  0  0
  3 10  2  0  0  0  0
  3  7  1  0  0  0  0
  4  7  1  0  0  0  0
  4  8  2  0  0  0  0
  5  9  2  0  0  0  0
  5  6  1  0  0  0  0
  7 11  1  0  0  0  0
  8  9  1  0  0  0  0
 10 12  1  0  0  0  0
 11 12  2  0  0  0  0
 11 14  1  0  0  0  0
 12 16  1  0  0  0  0
 13 16  2  0  0  0  0
 14 17  1  0  0  0  0
 14 15  1  0  0  0  0
 16 18  1  0  0  0  0
 17 18  1  0  0  0  0
 17 19  2  0  0  0  0
 18 20  1  0  0  0  0
 20 22  2  0  0  0  0
 20 21  1  0  0  0  0
 21 24  2  0  0  0  0
 22 23  1  0  0  0  0
 23 25  2  0  0  0  0
 24 25  1  0  0  0  0
 24 26  1  0  0  0  0
M  END
