54260
 OpenBabel03021519512D

 12 13  0  0  0  0  0  0  0  0999 V2000
    2.0490    3.0000    0.0000 N   0  0  0  0  0  0  0  0  0  0  0  0
    3.3481    0.7500    0.0000 N   0  0  0  0  0  0  0  0  0  0  0  0
    6.0737    3.4635    0.0000 N   0  0  0  0  0  0  0  0  0  0  0  0
    6.5372    4.8901    0.0000 H   0  0  0  0  0  0  0  0  0  0  0  0
    6.0737    1.0365    0.0000 N   0  0  0  0  0  0  0  0  0  0  0  0
    3.3481    3.7500    0.0000 C   0  0  0  0  0  0  0  0  0  0  0  0
    4.6471    3.0000    0.0000 C   0  0  0  0  0  0  0  0  0  0  0  0
    4.6471    1.5000    0.0000 C   0  0  0  0  0  0  0  0  0  0  0  0
    6.9554    2.2500    0.0000 C   0  0  0  0  0  0  0  0  0  0  0  0
    2.0490    1.5000    0.0000 C   0  0  0  0  0  0  0  0  0  0  0  0
    0.7500    0.7500    0.0000 N   0  0  0  0  0  0  0  0  0  0  0  0
    8.4554    2.2500    0.0000 N   0  0  0  0  0  0  0  0  0  0  0  0
  1  6  2  0  0  0  0
  1 10  1  0  0  0  0
  2 10  2  0  0  0  0
  2  8  1  0  0  0  0
  3  7  1  0  0  0  0
  3  9  1  0  0  0  0
  3  4  1  0  0  0  0
  5  9  2  0  0  0  0
  5  8  1  0  0  0  0
  6  7  1  0  0  0  0
  7  8  2  0  0  0  0
  9 12  1  0  0  0  0
 10 11  1  0  0  0  0
M  END
