78609
 OpenBabel03021519512D

 11 11  0  0  0  0  0  0  0  0999 V2000
    1.8238    3.1860    0.0000 N   0  0  0  0  0  0  0  0  0  0  0  0
    2.2873    1.7594    0.0000 S   0  0  0  0  0  0  0  0  0  0  0  0
    3.0373    4.0677    0.0000 N   0  0  0  0  0  0  0  0  0  0  0  0
    4.2508    3.1860    0.0000 C   0  0  0  0  0  0  0  0  0  0  0  0
    3.7873    1.7594    0.0000 C   0  0  0  0  0  0  0  0  0  0  0  0
    5.6774    3.6496    0.0000 N   0  0  0  0  0  0  0  0  0  0  0  0
    6.7922    2.6459    0.0000 C   0  0  0  0  0  0  0  0  0  0  0  0
    8.2187    3.1094    0.0000 O   0  0  0  0  0  0  0  0  0  0  0  0
    6.4803    1.1786    0.0000 O   0  0  0  0  0  0  0  0  0  0  0  0
    5.0537    0.7151    0.0000 C   0  0  0  0  0  0  0  0  0  0  0  0
    4.7418   -0.7521    0.0000 C   0  0  0  0  0  0  0  0  0  0  0  0
  1  3  2  0  0  0  0
  1  2  1  0  0  0  0
  2  5  1  0  0  0  0
  3  4  1  0  0  0  0
  4  5  2  0  0  0  0
  4  6  1  0  0  0  0
  6  7  1  0  0  0  0
  7  8  2  0  0  0  0
  7  9  1  0  0  0  0
  9 10  1  0  0  0  0
 10 11  1  0  0  0  0
M  END
