77913
 OpenBabel03021519512D

 15 17  0  0  0  0  0  0  0  0999 V2000
    1.6740    0.1005    0.0000 C   0  0  0  0  0  0  0  0  0  0  0  0
    1.6740   -1.3995    0.0000 C   0  0  0  0  0  0  0  0  0  0  0  0
    2.9731    0.8505    0.0000 C   0  0  0  0  0  0  0  0  0  0  0  0
    2.9731   -2.1495    0.0000 N   0  0  0  0  0  0  0  0  0  0  0  0
    3.2849   -3.6167    0.0000 C   0  0  0  0  0  0  0  0  0  0  0  0
    4.2721   -1.3995    0.0000 C   0  0  0  0  0  0  0  0  0  0  0  0
    4.7767   -3.7735    0.0000 C   0  0  0  0  0  0  0  0  0  0  0  0
    4.2721    0.1005    0.0000 C   0  0  0  0  0  0  0  0  0  0  0  0
    5.3868   -2.4032    0.0000 N   0  0  0  0  0  0  0  0  0  0  0  0
    5.5267   -5.0726    0.0000 C   0  0  0  0  0  0  0  0  0  0  0  0
    7.0267   -5.0726    0.0000 C   0  0  0  0  0  0  0  0  0  0  0  0
    7.7767   -6.3716    0.0000 C   0  0  0  0  0  0  0  0  0  0  0  0
    7.0267   -7.6707    0.0000 C   0  0  0  0  0  0  0  0  0  0  0  0
    5.5267   -7.6707    0.0000 C   0  0  0  0  0  0  0  0  0  0  0  0
    4.7767   -6.3716    0.0000 C   0  0  0  0  0  0  0  0  0  0  0  0
  1  3  1  0  0  0  0
  1  2  2  0  0  0  0
  2  4  1  0  0  0  0
  3  8  2  0  0  0  0
  4  6  1  0  0  0  0
  4  5  1  0  0  0  0
  5  7  2  0  0  0  0
  6  8  1  0  0  0  0
  6  9  2  0  0  0  0
  7  9  1  0  0  0  0
  7 10  1  0  0  0  0
 10 11  2  0  0  0  0
 10 15  1  0  0  0  0
 11 12  1  0  0  0  0
 12 13  2  0  0  0  0
 13 14  1  0  0  0  0
 14 15  2  0  0  0  0
M  END
