15362
 OpenBabel03021519512D

 17 18  0  0  0  0  0  0  0  0999 V2000
  -10.7673    3.8505    0.0000 C   0  0  0  0  0  0  0  0  0  0  0  0
   -9.4683    3.1005    0.0000 C   0  0  0  0  0  0  0  0  0  0  0  0
  -12.0664    3.1005    0.0000 C   0  0  0  0  0  0  0  0  0  0  0  0
   -2.9731    0.8505    0.0000 C   0  0  0  0  0  0  0  0  0  0  0  0
   -4.2721    1.6005    0.0000 C   0  0  0  0  0  0  0  0  0  0  0  0
   -9.4683    1.6005    0.0000 C   0  0  0  0  0  0  0  0  0  0  0  0
  -12.0664    1.6005    0.0000 C   0  0  0  0  0  0  0  0  0  0  0  0
   -2.9731   -0.6495    0.0000 C   0  0  0  0  0  0  0  0  0  0  0  0
   -5.5712    0.8505    0.0000 C   0  0  0  0  0  0  0  0  0  0  0  0
  -10.7673    0.8505    0.0000 C   0  0  0  0  0  0  0  0  0  0  0  0
   -4.2721   -1.3995    0.0000 C   0  0  0  0  0  0  0  0  0  0  0  0
   -5.5712   -0.6495    0.0000 C   0  0  0  0  0  0  0  0  0  0  0  0
   -6.8702    1.6005    0.0000 C   0  0  0  0  0  0  0  0  0  0  0  0
   -6.8702    3.1005    0.0000 O   0  0  0  0  0  0  0  0  0  0  0  0
  -10.7673    5.3505    0.0000 N   0  0  0  0  0  0  0  0  0  0  0  0
   -8.1692    0.8505    0.0000 N   0  0  0  0  0  0  0  0  0  0  0  0
   -1.6740   -1.3995    0.0000 N   0  0  0  0  0  0  0  0  0  0  0  0
  1  3  2  0  0  0  0
  1  2  1  0  0  0  0
  1 15  1  0  0  0  0
  2  6  2  0  0  0  0
  3  7  1  0  0  0  0
  4  5  1  0  0  0  0
  4  8  2  0  0  0  0
  5  9  2  0  0  0  0
  6 10  1  0  0  0  0
  6 16  1  0  0  0  0
  7 10  2  0  0  0  0
  8 11  1  0  0  0  0
  8 17  1  0  0  0  0
  9 13  1  0  0  0  0
  9 12  1  0  0  0  0
 11 12  2  0  0  0  0
 13 14  2  0  0  0  0
 13 16  1  0  0  0  0
M  END
