270916
 OpenBabel03021519512D

 26 30  0  0  1  0  0  0  0  0999 V2000
   -8.6842   -7.9003    0.0000 C   0  0  0  0  0  0  0  0  0  0  0  0
   -9.5659   -9.1138    0.0000 N   0  0  0  0  0  0  0  0  0  0  0  0
   -8.6842  -10.3274    0.0000 O   0  0  0  0  0  0  0  0  0  0  0  0
   -7.2576   -8.3638    0.0000 C   0  0  0  0  0  0  0  0  0  0  0  0
   -7.2576   -9.8638    0.0000 C   0  0  0  0  0  0  0  0  0  0  0  0
   -5.9586   -7.6138    0.0000 C   0  0  0  0  0  0  0  0  0  0  0  0
   -5.9586  -10.6138    0.0000 C   0  0  0  0  0  0  0  0  0  0  0  0
   -4.6596   -8.3638    0.0000 C   0  0  3  0  0  0  0  0  0  0  0  0
   -4.6596   -9.8638    0.0000 C   0  0  0  0  0  0  0  0  0  0  0  0
   -3.3605   -6.1138    0.0000 C   0  0  0  0  0  0  0  0  0  0  0  0
   -3.3605   -7.6138    0.0000 C   0  0  3  0  0  0  0  0  0  0  0  0
   -3.3605  -10.6138    0.0000 C   0  0  0  0  0  0  0  0  0  0  0  0
   -2.0615   -5.3638    0.0000 C   0  0  0  0  0  0  0  0  0  0  0  0
   -2.0615   -8.3638    0.0000 C   0  0  3  0  0  0  0  0  0  0  0  0
   -2.0615   -9.8638    0.0000 C   0  0  0  0  0  0  0  0  0  0  0  0
   -0.7624   -7.6138    0.0000 C   0  0  3  0  0  0  0  0  0  0  0  0
   -0.7625   -6.1138    0.0000 C   0  0  3  0  0  0  0  0  0  0  0  0
    0.6641   -5.6503    0.0000 C   0  0  3  0  0  0  0  0  0  0  0  0
    0.6641   -8.0773    0.0000 C   0  0  0  0  0  0  0  0  0  0  0  0
    1.5458   -6.8638    0.0000 C   0  0  0  0  0  0  0  0  0  0  0  0
    0.3012   -4.1948    0.0000 C   0  0  0  0  0  0  0  0  0  0  0  0
   -0.0616   -2.7394    0.0000 C   0  0  0  0  0  0  0  0  0  0  0  0
   -0.4245   -1.2840    0.0000 H   0  0  0  0  0  0  0  0  0  0  0  0
   -4.6596   -6.8638    0.0000 C   0  0  0  0  0  0  0  0  0  0  0  0
   -0.6057   -4.6220    0.0000 C   0  0  0  0  0  0  0  0  0  0  0  0
    1.9632   -4.9003    0.0000 O   0  0  0  0  0  0  0  0  0  0  0  0
  1  4  1  0  0  0  0
  1  2  2  0  0  0  0
  2  3  1  0  0  0  0
  3  5  1  0  0  0  0
  4  6  1  0  0  0  0
  4  5  2  0  0  0  0
  5  7  1  0  0  0  0
  6  8  1  0  0  0  0
  7  9  2  0  0  0  0
  8 11  1  0  0  0  0
  8  9  1  0  0  0  0
  8 24  1  0  0  0  0
  9 12  1  0  0  0  0
 10 13  1  0  0  0  0
 10 11  1  0  0  0  0
 11 14  1  0  0  0  0
 12 15  1  0  0  0  0
 13 17  1  0  0  0  0
 14 16  1  0  0  0  0
 14 15  1  0  0  0  0
 16 17  1  0  0  0  0
 16 19  1  0  0  0  0
 17 18  1  0  0  0  0
 17 25  1  0  0  0  0
 18 21  1  0  0  0  0
 18 20  1  0  0  0  0
 18 26  1  0  0  0  0
 19 20  1  0  0  0  0
 21 22  3  0  0  0  0
 22 23  1  0  0  0  0
M  END
