217697
 OpenBabel03021519512D

 29 32  0  0  0  0  0  0  0  0999 V2000
    2.2272    4.5000    0.0000 C   0  0  0  0  0  0  0  0  0  0  0  0
    3.5262    5.2500    0.0000 N   0  0  0  0  0  0  0  0  0  0  0  0
    3.5262    6.7500    0.0000 H   0  0  0  0  0  0  0  0  0  0  0  0
   13.9186    6.7500    0.0000 H   0  0  0  0  0  0  0  0  0  0  0  0
   13.9186    5.2500    0.0000 N   0  0  0  0  0  0  0  0  0  0  0  0
   15.2176    4.5000    0.0000 C   0  0  0  0  0  0  0  0  0  0  0  0
   15.2176    3.0000    0.0000 C   0  0  0  0  0  0  0  0  0  0  0  0
   13.9186    2.2500    0.0000 C   0  0  0  0  0  0  0  0  0  0  0  0
   11.3205    5.2500    0.0000 C   0  0  0  0  0  0  0  0  0  0  0  0
   10.0214    4.5000    0.0000 C   0  0  0  0  0  0  0  0  0  0  0  0
   12.6195    4.5000    0.0000 C   0  0  0  0  0  0  0  0  0  0  0  0
   10.0214    3.0000    0.0000 C   0  0  0  0  0  0  0  0  0  0  0  0
   12.6195    3.0000    0.0000 C   0  0  0  0  0  0  0  0  0  0  0  0
   11.3205    2.2500    0.0000 C   0  0  0  0  0  0  0  0  0  0  0  0
    2.2272    3.0000    0.0000 C   0  0  0  0  0  0  0  0  0  0  0  0
    3.5263    2.2500    0.0000 C   0  0  0  0  0  0  0  0  0  0  0  0
    4.8253    3.0000    0.0000 C   0  0  0  0  0  0  0  0  0  0  0  0
    6.1243    5.2500    0.0000 C   0  0  0  0  0  0  0  0  0  0  0  0
    4.8253    4.5000    0.0000 C   0  0  0  0  0  0  0  0  0  0  0  0
    7.4234    4.5000    0.0000 C   0  0  0  0  0  0  0  0  0  0  0  0
    7.4234    3.0000    0.0000 C   0  0  0  0  0  0  0  0  0  0  0  0
    6.1243    2.2500    0.0000 C   0  0  0  0  0  0  0  0  0  0  0  0
    0.7500    4.2395    0.0000 C   0  0  0  0  0  0  0  0  0  0  0  0
    1.7142    5.9095    0.0000 C   0  0  0  0  0  0  0  0  0  0  0  0
    3.5263    0.7500    0.0000 C   0  0  0  0  0  0  0  0  0  0  0  0
    8.7224    2.2500    0.0000 C   0  0  0  0  0  0  0  0  0  0  0  0
   13.9186    0.7500    0.0000 C   0  0  0  0  0  0  0  0  0  0  0  0
   15.7306    5.9095    0.0000 C   0  0  0  0  0  0  0  0  0  0  0  0
   16.6948    4.2395    0.0000 C   0  0  0  0  0  0  0  0  0  0  0  0
  1  2  1  0  0  0  0
  1 15  1  0  0  0  0
  1 23  1  0  0  0  0
  1 24  1  0  0  0  0
  2 19  1  0  0  0  0
  2  3  1  0  0  0  0
  4  5  1  0  0  0  0
  5  6  1  0  0  0  0
  5 11  1  0  0  0  0
  6  7  1  0  0  0  0
  6 28  1  0  0  0  0
  6 29  1  0  0  0  0
  7  8  2  0  0  0  0
  8 13  1  0  0  0  0
  8 27  1  0  0  0  0
  9 10  2  0  0  0  0
  9 11  1  0  0  0  0
 10 12  1  0  0  0  0
 11 13  2  0  0  0  0
 12 14  2  0  0  0  0
 12 26  1  0  0  0  0
 13 14  1  0  0  0  0
 15 16  2  0  0  0  0
 16 17  1  0  0  0  0
 16 25  1  0  0  0  0
 17 19  2  0  0  0  0
 17 22  1  0  0  0  0
 18 20  2  0  0  0  0
 18 19  1  0  0  0  0
 20 21  1  0  0  0  0
 21 22  2  0  0  0  0
 21 26  1  0  0  0  0
M  END
