88811
 OpenBabel03021519512D

 16 17  0  0  0  0  0  0  0  0999 V2000
   -1.3657   -9.8654    0.0000 O   0  0  0  0  0  0  0  0  0  0  0  0
   -1.3657   -5.3654    0.0000 N   0  0  0  0  0  0  0  0  0  0  0  0
   -0.0666   -7.6154    0.0000 N   0  0  0  0  0  0  0  0  0  0  0  0
    1.2324   -3.8654    0.0000 C   0  0  0  0  0  0  0  0  0  0  0  0
    2.5315   -3.1154    0.0000 C   0  0  0  0  0  0  0  0  0  0  0  0
    1.2324   -5.3654    0.0000 C   0  0  0  0  0  0  0  0  0  0  0  0
    3.8305   -3.8654    0.0000 C   0  0  0  0  0  0  0  0  0  0  0  0
    2.5315   -6.1154    0.0000 C   0  0  0  0  0  0  0  0  0  0  0  0
   -0.0666   -6.1154    0.0000 C   0  0  0  0  0  0  0  0  0  0  0  0
    3.8305   -5.3654    0.0000 C   0  0  0  0  0  0  0  0  0  0  0  0
   -2.6647   -6.1154    0.0000 C   0  0  0  0  0  0  0  0  0  0  0  0
   -2.6647   -7.6154    0.0000 C   0  0  0  0  0  0  0  0  0  0  0  0
   -1.3657   -8.3654    0.0000 C   0  0  0  0  0  0  0  0  0  0  0  0
   -0.0666  -10.6154    0.0000 C   0  0  0  0  0  0  0  0  0  0  0  0
    1.2324   -9.8654    0.0000 C   0  0  0  0  0  0  0  0  0  0  0  0
    2.5315  -10.6154    0.0000 C   0  0  0  0  0  0  0  0  0  0  0  0
  1 13  1  0  0  0  0
  1 14  1  0  0  0  0
  2  9  2  0  0  0  0
  2 11  1  0  0  0  0
  3 13  2  0  0  0  0
  3  9  1  0  0  0  0
  4  5  2  0  0  0  0
  4  6  1  0  0  0  0
  5  7  1  0  0  0  0
  6  8  2  0  0  0  0
  6  9  1  0  0  0  0
  7 10  2  0  0  0  0
  8 10  1  0  0  0  0
 11 12  2  0  0  0  0
 12 13  1  0  0  0  0
 14 15  1  0  0  0  0
 15 16  2  0  0  0  0
M  END
