122987
 OpenBabel03021519512D

 16 21  0  0  1  0  0  0  0  0999 V2000
    3.4189   -1.4789    0.0000 C   0  0  3  0  0  0  0  0  0  0  0  0
    2.1408   -0.6938    0.0000 C   0  0  3  0  0  0  0  0  0  0  0  0
    3.4598    0.0205    0.0000 C   0  0  3  0  0  0  0  0  0  0  0  0
    4.5606   -0.5060    0.0000 C   0  0  0  0  0  0  0  0  0  0  0  0
    2.4926    0.7644    0.0000 C   0  0  0  0  0  0  0  0  0  0  0  0
    2.0464    0.5228    0.0000 C   0  0  0  0  0  0  0  0  0  0  0  0
    3.9881    0.8805    0.0000 C   0  0  3  0  0  0  0  0  0  0  0  0
    3.7163    3.6182    0.0000 C   0  0  3  0  0  0  0  0  0  0  0  0
    2.6849    4.7074    0.0000 C   0  0  3  0  0  0  0  0  0  0  0  0
    2.2573    3.2696    0.0000 C   0  0  3  0  0  0  0  0  0  0  0  0
    2.3311    4.1937    0.0000 C   0  0  0  0  0  0  0  0  0  0  0  0
    0.7578    3.2320    0.0000 C   0  0  0  0  0  0  0  0  0  0  0  0
    1.4497    5.5583    0.0000 C   0  0  0  0  0  0  0  0  0  0  0  0
    0.2586    4.6465    0.0000 C   0  0  3  0  0  0  0  0  0  0  0  0
   -0.0932    1.9967    0.0000 N   0  0  0  0  0  0  0  0  0  0  0  0
    0.5511    0.6421    0.0000 N   0  0  0  0  0  0  0  0  0  0  0  0
  1  2  1  0  0  0  0
  1  3  1  0  0  0  0
  1  4  1  0  0  0  0
  2  5  1  0  0  0  0
  2  3  1  0  0  0  0
  3  6  1  0  0  0  0
  4  7  1  0  0  0  0
  5  7  1  0  0  0  0
  6  7  1  0  0  0  0
  6 16  2  0  0  0  0
  8  9  1  0  0  0  0
  8 10  1  0  0  0  0
  8 11  1  0  0  0  0
  9 13  1  0  0  0  0
  9 10  1  0  0  0  0
 10 12  1  0  0  0  0
 11 14  1  0  0  0  0
 12 14  1  0  0  0  0
 12 15  2  0  0  0  0
 13 14  1  0  0  0  0
 15 16  1  0  0  0  0
M  END
