60377
 OpenBabel03021519512D

 12 12  0  0  0  0  0  0  0  0999 V2000
    2.2754    2.8938    0.0000 N   0  0  0  0  0  0  0  0  0  0  0  0
    1.0619    3.7755    0.0000 C   0  0  0  0  0  0  0  0  0  0  0  0
   -0.1517    2.8938    0.0000 C   0  0  0  0  0  0  0  0  0  0  0  0
    0.3119    1.4672    0.0000 C   0  0  0  0  0  0  0  0  0  0  0  0
    1.8119    1.4672    0.0000 C   0  0  0  0  0  0  0  0  0  0  0  0
    3.7020    3.3573    0.0000 C   0  0  0  0  0  0  0  0  0  0  0  0
    4.8167    2.3536    0.0000 O   0  0  0  0  0  0  0  0  0  0  0  0
    4.0138    4.8246    0.0000 C   0  0  0  0  0  0  0  0  0  0  0  0
    5.4404    5.2881    0.0000 C   0  0  0  0  0  0  0  0  0  0  0  0
    6.5551    4.2844    0.0000 C   0  0  0  0  0  0  0  0  0  0  0  0
    7.9817    4.7479    0.0000 C   0  0  0  0  0  0  0  0  0  0  0  0
    9.0964    3.7442    0.0000 C   0  0  0  0  0  0  0  0  0  0  0  0
  1  2  1  0  0  0  0
  1  5  1  0  0  0  0
  1  6  1  0  0  0  0
  2  3  1  0  0  0  0
  3  4  1  0  0  0  0
  4  5  1  0  0  0  0
  6  7  2  0  0  0  0
  6  8  1  0  0  0  0
  8  9  1  0  0  0  0
  9 10  1  0  0  0  0
 10 11  1  0  0  0  0
 11 12  1  0  0  0  0
M  END
