63161
 OpenBabel03021519512D

 20 22  0  0  0  0  0  0  0  0999 V2000
   -6.1211   -4.4001    0.0000 N   0  0  0  0  0  0  0  0  0  0  0  0
   -4.6539   -4.0882    0.0000 N   0  0  0  0  0  0  0  0  0  0  0  0
   -4.9076   -6.5019    0.0000 N   0  0  0  0  0  0  0  0  0  0  0  0
   -2.1405   -2.9602    0.0000 C   0  0  0  0  0  0  0  0  0  0  0  0
   -1.2589   -1.7466    0.0000 C   0  0  0  0  0  0  0  0  0  0  0  0
   -1.5304   -4.3305    0.0000 C   0  0  0  0  0  0  0  0  0  0  0  0
    0.2329   -1.9034    0.0000 C   0  0  0  0  0  0  0  0  0  0  0  0
   -0.0386   -4.4873    0.0000 C   0  0  0  0  0  0  0  0  0  0  0  0
    0.8430   -3.2737    0.0000 C   0  0  0  0  0  0  0  0  0  0  0  0
   -3.9039   -5.3872    0.0000 C   0  0  0  0  0  0  0  0  0  0  0  0
   -6.2779   -5.8918    0.0000 C   0  0  0  0  0  0  0  0  0  0  0  0
   -7.5769   -8.1418    0.0000 C   0  0  0  0  0  0  0  0  0  0  0  0
   -6.2779   -8.8918    0.0000 C   0  0  0  0  0  0  0  0  0  0  0  0
   -8.8760   -8.8919    0.0000 C   0  0  0  0  0  0  0  0  0  0  0  0
   -6.2779  -10.3918    0.0000 C   0  0  0  0  0  0  0  0  0  0  0  0
   -8.8760  -10.3919    0.0000 C   0  0  0  0  0  0  0  0  0  0  0  0
   -7.5769  -11.1418    0.0000 C   0  0  0  0  0  0  0  0  0  0  0  0
   -7.5769   -6.6418    0.0000 C   0  0  0  0  0  0  0  0  0  0  0  0
   -4.5957   -7.9692    0.0000 N   0  0  0  0  0  0  0  0  0  0  0  0
   -2.4121   -5.5440    0.0000 C   0  0  0  0  0  0  0  0  0  0  0  0
  1  2  1  0  0  0  0
  1 11  2  0  0  0  0
  2 10  2  0  0  0  0
  3 10  1  0  0  0  0
  3 11  1  0  0  0  0
  3 19  1  0  0  0  0
  4  5  2  0  0  0  0
  4  6  1  0  0  0  0
  5  7  1  0  0  0  0
  6  8  2  0  0  0  0
  6 20  1  0  0  0  0
  7  9  2  0  0  0  0
  8  9  1  0  0  0  0
 10 20  1  0  0  0  0
 11 18  1  0  0  0  0
 12 13  2  0  0  0  0
 12 14  1  0  0  0  0
 12 18  1  0  0  0  0
 13 15  1  0  0  0  0
 14 16  2  0  0  0  0
 15 17  2  0  0  0  0
 16 17  1  0  0  0  0
M  END
