139105
 OpenBabel03021519512D

 36 37  0  0  0  0  0  0  0  0999 V2000
    2.0491   -9.0000    0.0000 Cl  0  0  0  0  0  0  0  0  0  0  0  0
    3.3481  -15.7500    0.0000 N   0  0  0  0  0  0  0  0  0  0  0  0
    4.6471   -7.5000    0.0000 O   0  0  0  0  0  0  0  0  0  0  0  0
    4.6471  -13.5000    0.0000 N   0  0  0  0  0  0  0  0  0  0  0  0
    5.9462  -15.7500    0.0000 N   0  0  0  0  0  0  0  0  0  0  0  0
    4.6471   -4.5000    0.0000 C   0  0  0  0  0  0  0  0  0  0  0  0
    4.6471   -3.0000    0.0000 C   0  0  0  0  0  0  0  0  0  0  0  0
    5.9462   -5.2500    0.0000 C   0  0  0  0  0  0  0  0  0  0  0  0
    5.9462   -2.2500    0.0000 C   0  0  0  0  0  0  0  0  0  0  0  0
    7.2452   -4.5000    0.0000 C   0  0  0  0  0  0  0  0  0  0  0  0
    7.2452   -3.0000    0.0000 C   0  0  0  0  0  0  0  0  0  0  0  0
    4.6471   -9.0000    0.0000 C   0  0  0  0  0  0  0  0  0  0  0  0
    3.3481   -9.7500    0.0000 C   0  0  0  0  0  0  0  0  0  0  0  0
    5.9462   -9.7500    0.0000 C   0  0  0  0  0  0  0  0  0  0  0  0
    5.9462  -11.2500    0.0000 C   0  0  0  0  0  0  0  0  0  0  0  0
    3.3481  -11.2500    0.0000 C   0  0  0  0  0  0  0  0  0  0  0  0
    4.6471  -12.0000    0.0000 C   0  0  0  0  0  0  0  0  0  0  0  0
    5.9462  -14.2500    0.0000 C   0  0  0  0  0  0  0  0  0  0  0  0
    3.3481  -14.2500    0.0000 C   0  0  0  0  0  0  0  0  0  0  0  0
    4.6472  -16.5000    0.0000 C   0  0  0  0  0  0  0  0  0  0  0  0
    2.0491  -13.5000    0.0000 N   0  0  0  0  0  0  0  0  0  0  0  0
    4.6472  -18.0000    0.0000 N   0  0  0  0  0  0  0  0  0  0  0  0
    5.9462   -6.7500    0.0000 C   0  0  0  0  0  0  0  0  0  0  0  0
    6.4592  -12.8405    0.0000 C   0  0  0  0  0  0  0  0  0  0  0  0
    7.4234  -14.5105    0.0000 C   0  0  0  0  0  0  0  0  0  0  0  0
   10.9724  -10.0245    0.0000 C   0  0  0  0  0  0  0  0  0  0  0  0
   10.2224  -11.3235    0.0000 C   0  0  0  0  0  0  0  0  0  0  0  0
   10.2224   -8.7255    0.0000 S   0  0  0  0  0  0  0  0  0  0  0  0
   11.5215   -7.9755    0.0000 O   0  0  0  0  0  0  0  0  0  0  0  0
    8.9234   -9.4755    0.0000 O   0  0  0  0  0  0  0  0  0  0  0  0
    9.4724   -7.4264    0.0000 O   0  0  0  0  0  0  0  0  0  0  0  0
    3.3481   -2.2500    0.0000 C   0  0  0  0  0  0  0  0  0  0  0  0
    3.3481   -0.7500    0.0000 O   0  0  0  0  0  0  0  0  0  0  0  0
    2.0490   -3.0000    0.0000 N   0  0  0  0  0  0  0  0  0  0  0  0
    2.0491   -4.5000    0.0000 C   0  0  0  0  0  0  0  0  0  0  0  0
    0.7500   -2.2500    0.0000 C   0  0  0  0  0  0  0  0  0  0  0  0
  1 13  1  0  0  0  0
  2 19  2  0  0  0  0
  2 20  1  0  0  0  0
  3 12  1  0  0  0  0
  3 23  1  0  0  0  0
  4 17  1  0  0  0  0
  4 18  1  0  0  0  0
  4 19  1  0  0  0  0
  5 20  2  0  0  0  0
  5 18  1  0  0  0  0
  6  8  2  0  0  0  0
  6  7  1  0  0  0  0
  7  9  2  0  0  0  0
  7 32  1  0  0  0  0
  8 10  1  0  0  0  0
  8 23  1  0  0  0  0
  9 11  1  0  0  0  0
 10 11  2  0  0  0  0
 12 13  2  0  0  0  0
 12 14  1  0  0  0  0
 13 16  1  0  0  0  0
 14 15  2  0  0  0  0
 15 17  1  0  0  0  0
 16 17  2  0  0  0  0
 18 24  1  0  0  0  0
 18 25  1  0  0  0  0
 19 21  1  0  0  0  0
 20 22  1  0  0  0  0
 26 27  1  0  0  0  0
 26 28  1  0  0  0  0
 28 29  2  0  0  0  0
 28 30  2  0  0  0  0
 28 31  1  0  0  0  0
 32 33  2  0  0  0  0
 32 34  1  0  0  0  0
 34 35  1  0  0  0  0
 34 36  1  0  0  0  0
M  END
