252359
 OpenBabel03021519512D

 24 27  0  0  0  0  0  0  0  0999 V2000
   -1.0245    9.2745    0.0000 C   0  0  0  0  0  0  0  0  0  0  0  0
   -1.0245    7.7745    0.0000 C   0  0  0  0  0  0  0  0  0  0  0  0
   -1.0245    4.7745    0.0000 C   0  0  0  0  0  0  0  0  0  0  0  0
   -1.0245    3.2745    0.0000 C   0  0  0  0  0  0  0  0  0  0  0  0
    0.2745   10.0245    0.0000 N   0  0  0  0  0  0  0  0  0  0  0  0
    0.2745    7.0245    0.0000 C   0  0  0  0  0  0  0  0  0  0  0  0
    0.2745    5.5245    0.0000 N   0  0  0  0  0  0  0  0  0  0  0  0
    0.2745    2.5245    0.0000 N   0  0  0  0  0  0  0  0  0  0  0  0
    1.5736    7.7745    0.0000 N   0  0  0  0  0  0  0  0  0  0  0  0
    1.5736    9.2745    0.0000 C   0  0  0  0  0  0  0  0  0  0  0  0
    1.5736    4.7745    0.0000 C   0  0  0  0  0  0  0  0  0  0  0  0
    1.5736    3.2745    0.0000 C   0  0  0  0  0  0  0  0  0  0  0  0
    3.0002    7.3110    0.0000 N   0  0  0  0  0  0  0  0  0  0  0  0
    3.0002    9.7380    0.0000 N   0  0  0  0  0  0  0  0  0  0  0  0
    3.8818    8.5245    0.0000 C   0  0  0  0  0  0  0  0  0  0  0  0
    5.3818    8.5245    0.0000 C   0  0  0  0  0  0  0  0  0  0  0  0
    6.1318    7.2255    0.0000 C   0  0  0  0  0  0  0  0  0  0  0  0
    6.1318    9.8235    0.0000 C   0  0  0  0  0  0  0  0  0  0  0  0
    7.6318    7.2255    0.0000 C   0  0  0  0  0  0  0  0  0  0  0  0
    7.6318    9.8235    0.0000 C   0  0  0  0  0  0  0  0  0  0  0  0
    8.3818    8.5245    0.0000 C   0  0  0  0  0  0  0  0  0  0  0  0
    9.8818    8.5245    0.0000 Cl  0  0  0  0  0  0  0  0  0  0  0  0
   -2.3235   10.0245    0.0000 C   0  0  0  0  0  0  0  0  0  0  0  0
    0.2745    1.0245    0.0000 C   0  0  0  0  0  0  0  0  0  0  0  0
  1  5  2  0  0  0  0
  1  2  1  0  0  0  0
  1 23  1  0  0  0  0
  2  6  2  0  0  0  0
  3  7  1  0  0  0  0
  3  4  1  0  0  0  0
  4  8  1  0  0  0  0
  5 10  1  0  0  0  0
  6  9  1  0  0  0  0
  6  7  1  0  0  0  0
  7 11  1  0  0  0  0
  8 12  1  0  0  0  0
  8 24  1  0  0  0  0
  9 10  1  0  0  0  0
  9 13  1  0  0  0  0
 10 14  2  0  0  0  0
 11 12  1  0  0  0  0
 13 15  2  0  0  0  0
 14 15  1  0  0  0  0
 15 16  1  0  0  0  0
 16 18  2  0  0  0  0
 16 17  1  0  0  0  0
 17 19  2  0  0  0  0
 18 20  1  0  0  0  0
 19 21  1  0  0  0  0
 20 21  2  0  0  0  0
 21 22  1  0  0  0  0
M  END
