299967
 OpenBabel03021519512D

 20 22  0  0  0  0  0  0  0  0999 V2000
   -2.0100    0.8375    0.0000 C   0  0  0  0  0  0  0  0  0  0  0  0
   -1.1522    2.0680    0.0000 N   0  0  0  0  0  0  0  0  0  0  0  0
   -1.1048   -0.3585    0.0000 N   0  0  0  0  0  0  0  0  0  0  0  0
    0.2832    1.6325    0.0000 C   0  0  0  0  0  0  0  0  0  0  0  0
    0.3125    0.1328    0.0000 N   0  0  0  0  0  0  0  0  0  0  0  0
    1.7478   -0.3028    0.0000 C   0  0  0  0  0  0  0  0  0  0  0  0
    1.7004    2.1238    0.0000 S   0  0  0  0  0  0  0  0  0  0  0  0
    2.6056    0.9277    0.0000 C   0  0  0  0  0  0  0  0  0  0  0  0
    3.7122   -2.0032    0.0000 C   0  0  0  0  0  0  0  0  0  0  0  0
    4.2035   -3.4205    0.0000 O   0  0  0  0  0  0  0  0  0  0  0  0
    4.6939   -0.8691    0.0000 O   0  0  0  0  0  0  0  0  0  0  0  0
   -3.5097    0.8082    0.0000 C   0  0  0  0  0  0  0  0  0  0  0  0
   -4.2342   -0.5052    0.0000 C   0  0  0  0  0  0  0  0  0  0  0  0
   -5.7339   -0.5345    0.0000 C   0  0  0  0  0  0  0  0  0  0  0  0
   -6.5091    0.7496    0.0000 C   0  0  0  0  0  0  0  0  0  0  0  0
   -5.7847    2.0631    0.0000 C   0  0  0  0  0  0  0  0  0  0  0  0
   -4.2850    2.0924    0.0000 C   0  0  0  0  0  0  0  0  0  0  0  0
    2.2392   -1.7201    0.0000 C   0  0  0  0  0  0  0  0  0  0  0  0
    6.1670   -1.1522    0.0000 C   0  0  0  0  0  0  0  0  0  0  0  0
    6.6583   -2.5695    0.0000 C   0  0  0  0  0  0  0  0  0  0  0  0
  1  2  1  0  0  0  0
  1  3  2  0  0  0  0
  1 12  1  0  0  0  0
  2  4  2  0  0  0  0
  3  5  1  0  0  0  0
  4  7  1  0  0  0  0
  4  5  1  0  0  0  0
  5  6  1  0  0  0  0
  6  8  2  0  0  0  0
  6 18  1  0  0  0  0
  7  8  1  0  0  0  0
  9 11  1  0  0  0  0
  9 10  2  0  0  0  0
  9 18  1  0  0  0  0
 11 19  1  0  0  0  0
 12 13  2  0  0  0  0
 12 17  1  0  0  0  0
 13 14  1  0  0  0  0
 14 15  2  0  0  0  0
 15 16  1  0  0  0  0
 16 17  2  0  0  0  0
 19 20  1  0  0  0  0
M  END
