159242
 OpenBabel03021519512D

 34 36  0  0  0  0  0  0  0  0999 V2000
   -9.4683    0.1005    0.0000 O   0  0  0  0  0  0  0  0  0  0  0  0
   -9.4683   -5.8996    0.0000 O   0  0  0  0  0  0  0  0  0  0  0  0
   -9.4683   -1.3995    0.0000 C   0  0  0  0  0  0  0  0  0  0  0  0
  -10.7673   -2.1495    0.0000 C   0  0  0  0  0  0  0  0  0  0  0  0
   -8.1692   -2.1495    0.0000 C   0  0  0  0  0  0  0  0  0  0  0  0
   -6.8702   -1.3995    0.0000 C   0  0  0  0  0  0  0  0  0  0  0  0
   -6.8702    0.1005    0.0000 C   0  0  0  0  0  0  0  0  0  0  0  0
   -5.5711    0.8505    0.0000 C   0  0  0  0  0  0  0  0  0  0  0  0
   -4.2721    0.1005    0.0000 C   0  0  0  0  0  0  0  0  0  0  0  0
   -5.5711   -2.1495    0.0000 C   0  0  0  0  0  0  0  0  0  0  0  0
   -8.1692   -3.6495    0.0000 C   0  0  0  0  0  0  0  0  0  0  0  0
  -10.7673   -3.6496    0.0000 C   0  0  0  0  0  0  0  0  0  0  0  0
  -12.0663   -1.3996    0.0000 C   0  0  0  0  0  0  0  0  0  0  0  0
  -12.0663    0.1004    0.0000 C   0  0  0  0  0  0  0  0  0  0  0  0
  -13.3654    0.8504    0.0000 C   0  0  0  0  0  0  0  0  0  0  0  0
  -13.3654   -2.1496    0.0000 C   0  0  0  0  0  0  0  0  0  0  0  0
  -14.6644    0.1004    0.0000 C   0  0  0  0  0  0  0  0  0  0  0  0
   -4.2721   -1.3995    0.0000 C   0  0  0  0  0  0  0  0  0  0  0  0
   -9.4683   -4.3995    0.0000 C   0  0  0  0  0  0  0  0  0  0  0  0
  -14.6644   -1.3996    0.0000 C   0  0  0  0  0  0  0  0  0  0  0  0
  -15.9635    0.8504    0.0000 C   0  0  0  0  0  0  0  0  0  0  0  0
  -13.3654   -3.6496    0.0000 C   0  0  0  0  0  0  0  0  0  0  0  0
   -8.5041    1.2495    0.0000 C   0  0  0  0  0  0  0  0  0  0  0  0
   -7.0269    0.9891    0.0000 O   0  0  0  0  0  0  0  0  0  0  0  0
   -8.1692   -6.6496    0.0000 C   0  0  0  0  0  0  0  0  0  0  0  0
   -6.8702   -5.8996    0.0000 O   0  0  0  0  0  0  0  0  0  0  0  0
   -5.5711   -3.6495    0.0000 C   0  0  0  0  0  0  0  0  0  0  0  0
   -8.1692   -8.1496    0.0000 C   0  0  0  0  0  0  0  0  0  0  0  0
   -9.0171    2.6591    0.0000 C   0  0  0  0  0  0  0  0  0  0  0  0
   -8.0529    3.8081    0.0000 O   0  0  0  0  0  0  0  0  0  0  0  0
   -6.5757    3.5477    0.0000 C   0  0  0  0  0  0  0  0  0  0  0  0
   -6.8702   -8.8996    0.0000 O   0  0  0  0  0  0  0  0  0  0  0  0
   -5.5711   -8.1496    0.0000 C   0  0  0  0  0  0  0  0  0  0  0  0
   -2.9731    0.8505    0.0000 C   0  0  0  0  0  0  0  0  0  0  0  0
  1  3  1  0  0  0  0
  1 23  1  0  0  0  0
  2 19  1  0  0  0  0
  2 25  1  0  0  0  0
  3  4  2  0  0  0  0
  3  5  1  0  0  0  0
  4 12  1  0  0  0  0
  4 13  1  0  0  0  0
  5 11  2  0  0  0  0
  5  6  1  0  0  0  0
  6 10  2  0  0  0  0
  6  7  1  0  0  0  0
  7  8  2  0  0  0  0
  8  9  1  0  0  0  0
  9 18  2  0  0  0  0
  9 34  1  0  0  0  0
 10 18  1  0  0  0  0
 10 27  1  0  0  0  0
 11 19  1  0  0  0  0
 12 19  2  0  0  0  0
 13 16  2  0  0  0  0
 13 14  1  0  0  0  0
 14 15  2  0  0  0  0
 15 17  1  0  0  0  0
 16 20  1  0  0  0  0
 16 22  1  0  0  0  0
 17 20  2  0  0  0  0
 17 21  1  0  0  0  0
 23 24  2  0  0  0  0
 23 29  1  0  0  0  0
 25 26  2  0  0  0  0
 25 28  1  0  0  0  0
 28 32  1  0  0  0  0
 29 30  1  0  0  0  0
 30 31  1  0  0  0  0
 32 33  1  0  0  0  0
M  END
