9461
 OpenBabel03021519512D

 10 10  0  0  0  0  0  0  0  0999 V2000
   -2.2231   -3.6495    0.0000 C   0  0  0  0  0  0  0  0  0  0  0  0
   -0.9240   -4.3995    0.0000 C   0  0  0  0  0  0  0  0  0  0  0  0
   -3.5221   -4.3995    0.0000 C   0  0  0  0  0  0  0  0  0  0  0  0
   -0.9240   -5.8995    0.0000 C   0  0  0  0  0  0  0  0  0  0  0  0
   -3.5221   -5.8995    0.0000 C   0  0  0  0  0  0  0  0  0  0  0  0
   -4.8211   -3.6495    0.0000 Br  0  0  0  0  0  0  0  0  0  0  0  0
   -2.2231   -6.6495    0.0000 N   0  0  0  0  0  0  0  0  0  0  0  0
    0.3750   -3.6495    0.0000 C   0  0  0  0  0  0  0  0  0  0  0  0
    1.6741   -4.3995    0.0000 O   0  0  0  0  0  0  0  0  0  0  0  0
    0.3750   -2.1495    0.0000 O   0  0  0  0  0  0  0  0  0  0  0  0
  1  3  2  0  0  0  0
  1  2  1  0  0  0  0
  2  4  2  0  0  0  0
  2  8  1  0  0  0  0
  3  6  1  0  0  0  0
  3  5  1  0  0  0  0
  4  7  1  0  0  0  0
  5  7  2  0  0  0  0
  8  9  2  0  0  0  0
  8 10  1  0  0  0  0
M  END
