122280
 OpenBabel03021519512D

 14 16  0  0  0  0  0  0  0  0999 V2000
    1.2077    4.3151    0.0000 C   0  0  0  0  0  0  0  0  0  0  0  0
    1.3644    2.8233    0.0000 C   0  0  0  0  0  0  0  0  0  0  0  0
    2.4212    5.1968    0.0000 C   0  0  0  0  0  0  0  0  0  0  0  0
    2.7348    2.2132    0.0000 C   0  0  0  0  0  0  0  0  0  0  0  0
    3.7915    4.5867    0.0000 C   0  0  0  0  0  0  0  0  0  0  0  0
    3.9483    3.0949    0.0000 C   0  0  0  0  0  0  0  0  0  0  0  0
    5.4155    2.7830    0.0000 N   0  0  0  0  0  0  0  0  0  0  0  0
    5.1618    5.1968    0.0000 N   0  0  0  0  0  0  0  0  0  0  0  0
    5.4155    0.1849    0.0000 O   0  0  0  0  0  0  0  0  0  0  0  0
    6.1655    1.4840    0.0000 C   0  0  0  0  0  0  0  0  0  0  0  0
    6.1655    4.0821    0.0000 C   0  0  0  0  0  0  0  0  0  0  0  0
    7.6655    4.0821    0.0000 C   0  0  0  0  0  0  0  0  0  0  0  0
    7.6655    1.4840    0.0000 C   0  0  0  0  0  0  0  0  0  0  0  0
    8.4155    2.7830    0.0000 S   0  0  0  0  0  0  0  0  0  0  0  0
  1  3  2  0  0  0  0
  1  2  1  0  0  0  0
  2  4  2  0  0  0  0
  3  5  1  0  0  0  0
  4  6  1  0  0  0  0
  5  8  1  0  0  0  0
  5  6  2  0  0  0  0
  6  7  1  0  0  0  0
  7 11  1  0  0  0  0
  7 10  1  0  0  0  0
  8 11  2  0  0  0  0
  9 10  2  0  0  0  0
 10 13  1  0  0  0  0
 11 12  1  0  0  0  0
 12 14  1  0  0  0  0
 13 14  1  0  0  0  0
M  END
