31069
 OpenBabel03021519512D

 22 24  0  0  1  0  0  0  0  0999 V2000
    8.8188   -2.7255    0.0000 O   0  0  0  0  0  0  0  0  0  0  0  0
    8.8187    0.2745    0.0000 C   0  0  3  0  0  0  0  0  0  0  0  0
    7.5197   -0.4755    0.0000 C   0  0  0  0  0  0  0  0  0  0  0  0
   10.1178   -0.4754    0.0000 C   0  0  0  0  0  0  0  0  0  0  0  0
   11.4168    0.2746    0.0000 C   0  0  0  0  0  0  0  0  0  0  0  0
   12.7159   -0.4754    0.0000 C   0  0  0  0  0  0  0  0  0  0  0  0
    6.2207    0.2745    0.0000 C   0  0  0  0  0  0  0  0  0  0  0  0
    4.9216   -0.4755    0.0000 C   0  0  0  0  0  0  0  0  0  0  0  0
   12.7159   -1.9754    0.0000 C   0  0  0  0  0  0  0  0  0  0  0  0
   10.1178   -1.9754    0.0000 C   0  0  0  0  0  0  0  0  0  0  0  0
    7.5197   -1.9755    0.0000 C   0  0  0  0  0  0  0  0  0  0  0  0
    4.9216   -1.9755    0.0000 C   0  0  0  0  0  0  0  0  0  0  0  0
   11.4168   -2.7254    0.0000 C   0  0  0  0  0  0  0  0  0  0  0  0
    6.2207   -2.7255    0.0000 C   0  0  0  0  0  0  0  0  0  0  0  0
    8.8187    1.7745    0.0000 N   0  0  0  0  0  0  0  0  0  0  0  0
    7.5197    2.5245    0.0000 C   0  0  0  0  0  0  0  0  0  0  0  0
    6.2207    1.7745    0.0000 O   0  0  0  0  0  0  0  0  0  0  0  0
    7.5197    4.0245    0.0000 O   0  0  0  0  0  0  0  0  0  0  0  0
    6.2207    4.7745    0.0000 C   0  0  0  0  0  0  0  0  0  0  0  0
    4.9216    4.0245    0.0000 C   0  0  0  0  0  0  0  0  0  0  0  0
    3.6226    4.7745    0.0000 C   0  0  0  0  0  0  0  0  0  0  0  0
    4.9216    2.5245    0.0000 C   0  0  0  0  0  0  0  0  0  0  0  0
  1 10  1  0  0  0  0
  1 11  1  0  0  0  0
  2  3  1  0  0  0  0
  2  4  1  0  0  0  0
  2 15  1  0  0  0  0
  3 11  2  0  0  0  0
  3  7  1  0  0  0  0
  4 10  2  0  0  0  0
  4  5  1  0  0  0  0
  5  6  2  0  0  0  0
  6  9  1  0  0  0  0
  7  8  2  0  0  0  0
  8 12  1  0  0  0  0
  9 13  2  0  0  0  0
 10 13  1  0  0  0  0
 11 14  1  0  0  0  0
 12 14  2  0  0  0  0
 15 16  1  0  0  0  0
 16 17  2  0  0  0  0
 16 18  1  0  0  0  0
 18 19  1  0  0  0  0
 19 20  1  0  0  0  0
 20 21  1  0  0  0  0
 20 22  1  0  0  0  0
M  END
