343549
 OpenBabel03021519512D

 22 24  0  0  0  0  0  0  0  0999 V2000
    3.3127    4.5204    0.0000 C   0  0  0  0  0  0  0  0  0  0  0  0
    4.4274    3.5167    0.0000 C   0  0  0  0  0  0  0  0  0  0  0  0
    3.8173   -0.4517    0.0000 O   0  0  0  0  0  0  0  0  0  0  0  0
    3.8173    2.1463    0.0000 N   0  0  0  0  0  0  0  0  0  0  0  0
    4.5673    0.8473    0.0000 C   0  0  0  0  0  0  0  0  0  0  0  0
    6.0673    0.8473    0.0000 C   0  0  0  0  0  0  0  0  0  0  0  0
    2.0137    3.7704    0.0000 O   0  0  0  0  0  0  0  0  0  0  0  0
    6.8173    2.1464    0.0000 C   0  0  0  0  0  0  0  0  0  0  0  0
    2.3255    2.3031    0.0000 C   0  0  0  0  0  0  0  0  0  0  0  0
    6.8173   -0.4517    0.0000 C   0  0  0  0  0  0  0  0  0  0  0  0
    0.8583    2.6150    0.0000 C   0  0  0  0  0  0  0  0  0  0  0  0
    8.3173    2.1464    0.0000 C   0  0  0  0  0  0  0  0  0  0  0  0
    2.7891    0.8765    0.0000 C   0  0  0  0  0  0  0  0  0  0  0  0
    8.3173   -0.4517    0.0000 C   0  0  0  0  0  0  0  0  0  0  0  0
    9.0673    0.8473    0.0000 C   0  0  0  0  0  0  0  0  0  0  0  0
    1.7854   -0.2382    0.0000 C   0  0  0  0  0  0  0  0  0  0  0  0
   -0.1454    1.5003    0.0000 C   0  0  0  0  0  0  0  0  0  0  0  0
    0.3182    0.0737    0.0000 C   0  0  0  0  0  0  0  0  0  0  0  0
   10.5673    0.8473    0.0000 C   0  0  0  0  0  0  0  0  0  0  0  0
   10.5673   -0.6527    0.0000 C   0  0  0  0  0  0  0  0  0  0  0  0
   10.5673    2.3473    0.0000 C   0  0  0  0  0  0  0  0  0  0  0  0
   12.0673    0.8473    0.0000 C   0  0  0  0  0  0  0  0  0  0  0  0
  1  7  1  0  0  0  0
  1  2  1  0  0  0  0
  2  4  1  0  0  0  0
  3  5  2  0  0  0  0
  4  9  1  0  0  0  0
  4  5  1  0  0  0  0
  5  6  1  0  0  0  0
  6  8  2  0  0  0  0
  6 10  1  0  0  0  0
  7  9  1  0  0  0  0
  8 12  1  0  0  0  0
  9 11  1  0  0  0  0
  9 13  1  0  0  0  0
 10 14  2  0  0  0  0
 11 17  1  0  0  0  0
 12 15  2  0  0  0  0
 13 16  1  0  0  0  0
 14 15  1  0  0  0  0
 15 19  1  0  0  0  0
 16 18  1  0  0  0  0
 17 18  1  0  0  0  0
 19 20  1  0  0  0  0
 19 21  1  0  0  0  0
 19 22  1  0  0  0  0
M  END
