55453
 OpenBabel03021519512D

 19 20  0  0  0  0  0  0  0  0999 V2000
    4.9216    1.9755    0.0000 N   0  0  0  0  0  0  0  0  0  0  0  0
    6.2207   -0.2745    0.0000 N   0  0  0  0  0  0  0  0  0  0  0  0
    7.5197   -2.5245    0.0000 C   0  0  0  0  0  0  0  0  0  0  0  0
    8.8188   -3.2745    0.0000 C   0  0  0  0  0  0  0  0  0  0  0  0
    6.2207   -3.2745    0.0000 C   0  0  0  0  0  0  0  0  0  0  0  0
    8.8188   -4.7745    0.0000 C   0  0  0  0  0  0  0  0  0  0  0  0
    6.2207   -4.7745    0.0000 C   0  0  0  0  0  0  0  0  0  0  0  0
    7.5197   -5.5245    0.0000 C   0  0  0  0  0  0  0  0  0  0  0  0
    4.9216   -1.0245    0.0000 C   0  0  0  0  0  0  0  0  0  0  0  0
    3.6226   -0.2745    0.0000 C   0  0  0  0  0  0  0  0  0  0  0  0
    3.6226    1.2255    0.0000 C   0  0  0  0  0  0  0  0  0  0  0  0
    6.2207    1.2255    0.0000 C   0  0  0  0  0  0  0  0  0  0  0  0
    7.5197    1.9755    0.0000 S   0  0  0  0  0  0  0  0  0  0  0  0
    7.5197    3.4755    0.0000 C   0  0  0  0  0  0  0  0  0  0  0  0
    2.3236   -1.0245    0.0000 O   0  0  0  0  0  0  0  0  0  0  0  0
    2.3236   -2.5245    0.0000 C   0  0  0  0  0  0  0  0  0  0  0  0
    4.9216   -2.5245    0.0000 N   0  0  0  0  0  0  0  0  0  0  0  0
   10.1178   -5.5245    0.0000 C   0  0  0  0  0  0  0  0  0  0  0  0
   11.4168   -6.2745    0.0000 N   0  0  0  0  0  0  0  0  0  0  0  0
  1 12  2  0  0  0  0
  1 11  1  0  0  0  0
  2  9  2  0  0  0  0
  2 12  1  0  0  0  0
  3  4  2  0  0  0  0
  3  5  1  0  0  0  0
  4  6  1  0  0  0  0
  5  7  2  0  0  0  0
  5 17  1  0  0  0  0
  6  8  2  0  0  0  0
  6 18  1  0  0  0  0
  7  8  1  0  0  0  0
  9 10  1  0  0  0  0
  9 17  1  0  0  0  0
 10 11  2  0  0  0  0
 10 15  1  0  0  0  0
 12 13  1  0  0  0  0
 13 14  1  0  0  0  0
 15 16  1  0  0  0  0
 18 19  3  0  0  0  0
M  END
