319079
 OpenBabel03021519512D

 20 21  0  0  0  0  0  0  0  0999 V2000
    4.9123    1.0299    0.0000 O   0  0  0  0  0  0  0  0  0  0  0  0
    4.9123   -1.9701    0.0000 O   0  0  0  0  0  0  0  0  0  0  0  0
    6.2114    0.2799    0.0000 C   0  0  0  0  0  0  0  0  0  0  0  0
    6.2114   -1.2201    0.0000 C   0  0  0  0  0  0  0  0  0  0  0  0
    7.5104    1.0299    0.0000 C   0  0  0  0  0  0  0  0  0  0  0  0
    7.5104    2.5299    0.0000 O   0  0  0  0  0  0  0  0  0  0  0  0
    7.5104   -1.9701    0.0000 C   0  0  0  0  0  0  0  0  0  0  0  0
    8.8094   -1.2201    0.0000 C   0  0  0  0  0  0  0  0  0  0  0  0
    8.8094    0.2799    0.0000 C   0  0  0  0  0  0  0  0  0  0  0  0
   10.1085    1.0299    0.0000 N   0  0  0  0  0  0  0  0  0  0  0  0
   10.1085   -1.9701    0.0000 C   0  0  0  0  0  0  0  0  0  0  0  0
   10.1085   -3.4701    0.0000 Cl  0  0  0  0  0  0  0  0  0  0  0  0
   11.4075    0.2799    0.0000 C   0  0  0  0  0  0  0  0  0  0  0  0
   11.4075   -1.2201    0.0000 N   0  0  0  0  0  0  0  0  0  0  0  0
    4.9123    2.5299    0.0000 C   0  0  0  0  0  0  0  0  0  0  0  0
    6.2114    3.2799    0.0000 C   0  0  0  0  0  0  0  0  0  0  0  0
    3.6133   -1.2201    0.0000 C   0  0  0  0  0  0  0  0  0  0  0  0
    3.6133    0.2799    0.0000 C   0  0  0  0  0  0  0  0  0  0  0  0
    8.8094    3.2799    0.0000 C   0  0  0  0  0  0  0  0  0  0  0  0
    8.8094    4.7799    0.0000 C   0  0  0  0  0  0  0  0  0  0  0  0
  1  3  1  0  0  0  0
  1 15  1  0  0  0  0
  2  4  1  0  0  0  0
  2 17  1  0  0  0  0
  3  5  2  0  0  0  0
  3  4  1  0  0  0  0
  4  7  2  0  0  0  0
  5  6  1  0  0  0  0
  5  9  1  0  0  0  0
  6 19  1  0  0  0  0
  7  8  1  0  0  0  0
  8  9  2  0  0  0  0
  8 11  1  0  0  0  0
  9 10  1  0  0  0  0
 10 13  2  0  0  0  0
 11 14  2  0  0  0  0
 11 12  1  0  0  0  0
 13 14  1  0  0  0  0
 15 16  1  0  0  0  0
 17 18  1  0  0  0  0
 19 20  1  0  0  0  0
M  END
