47617
 OpenBabel03021519512D

 17 18  0  0  1  0  0  0  0  0999 V2000
   -8.2500   -0.7500    0.0000 O   0  0  0  0  0  0  0  0  0  0  0  0
   -8.2500   -3.3481    0.0000 O   0  0  0  0  0  0  0  0  0  0  0  0
   -3.7500   -0.7500    0.0000 O   0  0  0  0  0  0  0  0  0  0  0  0
   -3.7500   -3.3481    0.0000 O   0  0  0  0  0  0  0  0  0  0  0  0
   -5.2500   -0.7500    0.0000 C   0  0  0  0  0  0  0  0  0  0  0  0
   -6.0000   -2.0491    0.0000 C   0  0  3  0  0  0  0  0  0  0  0  0
   -6.7500   -0.7500    0.0000 C   0  0  0  0  0  0  0  0  0  0  0  0
   -5.2500   -3.3481    0.0000 C   0  0  0  0  0  0  0  0  0  0  0  0
   -6.7500   -3.3481    0.0000 C   0  0  0  0  0  0  0  0  0  0  0  0
   -3.0000   -2.0490    0.0000 C   0  0  3  0  0  0  0  0  0  0  0  0
   -9.0000   -2.0491    0.0000 C   0  0  3  0  0  0  0  0  0  0  0  0
  -10.5000   -2.0491    0.0000 C   0  0  0  0  0  0  0  0  0  0  0  0
  -11.2500   -0.7500    0.0000 O   0  0  0  0  0  0  0  0  0  0  0  0
  -11.2500   -3.3481    0.0000 O   0  0  0  0  0  0  0  0  0  0  0  0
   -1.5000   -2.0490    0.0000 C   0  0  0  0  0  0  0  0  0  0  0  0
   -0.7500   -0.7500    0.0000 O   0  0  0  0  0  0  0  0  0  0  0  0
   -0.7500   -3.3481    0.0000 O   0  0  0  0  0  0  0  0  0  0  0  0
  1  7  1  0  0  0  0
  1 11  1  0  0  0  0
  2  9  1  0  0  0  0
  2 11  1  0  0  0  0
  3  5  1  0  0  0  0
  3 10  1  0  0  0  0
  4  8  1  0  0  0  0
  4 10  1  0  0  0  0
  5  6  1  0  0  0  0
  6  7  1  0  0  0  0
  6  8  1  0  0  0  0
  6  9  1  0  0  0  0
 10 15  1  0  0  0  0
 11 12  1  0  0  0  0
 12 13  2  0  0  0  0
 12 14  1  0  0  0  0
 15 16  2  0  0  0  0
 15 17  1  0  0  0  0
M  END
