364889
 OpenBabel03021519512D

 23 25  0  0  0  0  0  0  0  0999 V2000
    1.1402    5.1793    0.0000 C   0  0  0  0  0  0  0  0  0  0  0  0
    1.0281    3.6835    0.0000 C   0  0  0  0  0  0  0  0  0  0  0  0
    2.2675    2.8385    0.0000 C   0  0  0  0  0  0  0  0  0  0  0  0
    2.4917    5.8301    0.0000 C   0  0  0  0  0  0  0  0  0  0  0  0
    3.6190    3.4893    0.0000 C   0  0  0  0  0  0  0  0  0  0  0  0
    3.7310    4.9851    0.0000 C   0  0  0  0  0  0  0  0  0  0  0  0
    4.9704    5.8301    0.0000 C   0  0  0  0  0  0  0  0  0  0  0  0
    4.7185    2.4691    0.0000 O   0  0  0  0  0  0  0  0  0  0  0  0
    6.2018    2.6926    0.0000 C   0  0  0  0  0  0  0  0  0  0  0  0
    6.4038    5.3880    0.0000 N   0  0  0  0  0  0  0  0  0  0  0  0
    7.4240    6.4876    0.0000 H   0  0  0  0  0  0  0  0  0  0  0  0
    6.9518    1.3936    0.0000 C   0  0  0  0  0  0  0  0  0  0  0  0
    6.9518    3.9917    0.0000 C   0  0  0  0  0  0  0  0  0  0  0  0
    8.4518    1.3936    0.0000 C   0  0  0  0  0  0  0  0  0  0  0  0
    8.4518    3.9917    0.0000 C   0  0  0  0  0  0  0  0  0  0  0  0
    9.2018    2.6926    0.0000 C   0  0  0  0  0  0  0  0  0  0  0  0
   11.4518    1.3936    0.0000 O   0  0  0  0  0  0  0  0  0  0  0  0
   10.7018    2.6926    0.0000 C   0  0  0  0  0  0  0  0  0  0  0  0
    2.1554    1.3427    0.0000 O   0  0  0  0  0  0  0  0  0  0  0  0
    0.8040    0.6919    0.0000 C   0  0  0  0  0  0  0  0  0  0  0  0
   11.4518    3.9917    0.0000 O   0  0  0  0  0  0  0  0  0  0  0  0
   10.7018    5.2907    0.0000 C   0  0  0  0  0  0  0  0  0  0  0  0
   11.4518    6.5897    0.0000 C   0  0  0  0  0  0  0  0  0  0  0  0
  1  4  2  0  0  0  0
  1  2  1  0  0  0  0
  2  3  2  0  0  0  0
  3  5  1  0  0  0  0
  3 19  1  0  0  0  0
  4  6  1  0  0  0  0
  5  6  2  0  0  0  0
  5  8  1  0  0  0  0
  6  7  1  0  0  0  0
  7 10  1  0  0  0  0
  8  9  1  0  0  0  0
  9 13  2  0  0  0  0
  9 12  1  0  0  0  0
 10 11  1  0  0  0  0
 10 13  1  0  0  0  0
 12 14  2  0  0  0  0
 13 15  1  0  0  0  0
 14 16  1  0  0  0  0
 15 16  2  0  0  0  0
 16 18  1  0  0  0  0
 17 18  2  0  0  0  0
 18 21  1  0  0  0  0
 19 20  1  0  0  0  0
 21 22  1  0  0  0  0
 22 23  1  0  0  0  0
M  END
