25740
 OpenBabel03021519512D

 20 22  0  0  1  0  0  0  0  0999 V2000
    4.6858    3.6160    0.0000 N   0  0  0  0  0  0  0  0  0  0  0  0
    5.9848    1.3660    0.0000 N   0  0  0  0  0  0  0  0  0  0  0  0
    8.7104    4.0795    0.0000 N   0  0  0  0  0  0  0  0  0  0  0  0
    8.2923   -0.9876    0.0000 O   0  0  0  0  0  0  0  0  0  0  0  0
    8.7104    1.6525    0.0000 N   0  0  0  0  0  0  0  0  0  0  0  0
    5.9848    4.3660    0.0000 C   0  0  0  0  0  0  0  0  0  0  0  0
    7.2838    3.6160    0.0000 C   0  0  0  0  0  0  0  0  0  0  0  0
    7.2839    2.1160    0.0000 C   0  0  0  0  0  0  0  0  0  0  0  0
    9.5921    2.8660    0.0000 C   0  0  0  0  0  0  0  0  0  0  0  0
    4.6858    2.1160    0.0000 C   0  0  0  0  0  0  0  0  0  0  0  0
    9.1740    0.2259    0.0000 C   0  0  3  0  0  0  0  0  0  0  0  0
   10.6006   -0.2376    0.0000 C   0  0  3  0  0  0  0  0  0  0  0  0
   10.6006   -1.7376    0.0000 C   0  0  3  0  0  0  0  0  0  0  0  0
    9.1740   -2.2012    0.0000 C   0  0  3  0  0  0  0  0  0  0  0  0
    3.3867    1.3660    0.0000 S   0  0  0  0  0  0  0  0  0  0  0  0
    2.0877    2.1160    0.0000 C   0  0  0  0  0  0  0  0  0  0  0  0
    9.7142   -4.7425    0.0000 O   0  0  0  0  0  0  0  0  0  0  0  0
    8.7105   -3.6277    0.0000 C   0  0  0  0  0  0  0  0  0  0  0  0
   11.8141   -2.6193    0.0000 O   0  0  0  0  0  0  0  0  0  0  0  0
   11.8141    0.6441    0.0000 O   0  0  0  0  0  0  0  0  0  0  0  0
  1  6  2  0  0  0  0
  1 10  1  0  0  0  0
  2 10  2  0  0  0  0
  2  8  1  0  0  0  0
  3  9  2  0  0  0  0
  3  7  1  0  0  0  0
  4 11  1  0  0  0  0
  4 14  1  0  0  0  0
  5  8  1  0  0  0  0
  5  9  1  0  0  0  0
  5 11  1  0  0  0  0
  6  7  1  0  0  0  0
  7  8  2  0  0  0  0
 10 15  1  0  0  0  0
 11 12  1  0  0  0  0
 12 13  1  0  0  0  0
 12 20  1  0  0  0  0
 13 14  1  0  0  0  0
 13 19  1  0  0  0  0
 14 18  1  0  0  0  0
 15 16  1  0  0  0  0
 17 18  1  0  0  0  0
M  END
