75846
 OpenBabel03021519512D

 12 12  0  0  0  0  0  0  0  0999 V2000
   -0.9462    3.1388    0.0000 H   0  0  0  0  0  0  0  0  0  0  0  0
    0.3529    3.8888    0.0000 N   0  0  0  0  0  0  0  0  0  0  0  0
    2.9509    5.3888    0.0000 C   0  0  0  0  0  0  0  0  0  0  0  0
    1.6519    6.1388    0.0000 C   0  0  0  0  0  0  0  0  0  0  0  0
    0.3529    5.3888    0.0000 C   0  0  0  0  0  0  0  0  0  0  0  0
    2.9509    3.8888    0.0000 C   0  0  0  0  0  0  0  0  0  0  0  0
    1.6519    3.1388    0.0000 C   0  0  0  0  0  0  0  0  0  0  0  0
    3.4640    6.7984    0.0000 N   0  0  0  0  0  0  0  0  0  0  0  0
    4.9412    7.0588    0.0000 C   0  0  0  0  0  0  0  0  0  0  0  0
    4.4282    5.1284    0.0000 C   0  0  0  0  0  0  0  0  0  0  0  0
    4.9412    3.7188    0.0000 O   0  0  0  0  0  0  0  0  0  0  0  0
    5.3923    6.2774    0.0000 N   0  0  0  0  0  0  0  0  0  0  0  0
  1  2  1  0  0  0  0
  2  5  1  0  0  0  0
  2  7  1  0  0  0  0
  3  4  1  0  0  0  0
  3  6  1  0  0  0  0
  3  8  1  0  0  0  0
  3 10  1  0  0  0  0
  4  5  1  0  0  0  0
  6  7  1  0  0  0  0
  8  9  1  0  0  0  0
 10 11  2  0  0  0  0
 10 12  1  0  0  0  0
M  END
