175743
 OpenBabel03021519512D

 20 21  0  0  0  0  0  0  0  0999 V2000
    8.7183    8.8995    0.0000 C   0  0  0  0  0  0  0  0  0  0  0  0
   10.0173    9.6495    0.0000 C   0  0  0  0  0  0  0  0  0  0  0  0
    8.7183    7.3995    0.0000 C   0  0  0  0  0  0  0  0  0  0  0  0
   11.3164    8.8995    0.0000 C   0  0  0  0  0  0  0  0  0  0  0  0
   10.0173    6.6495    0.0000 C   0  0  0  0  0  0  0  0  0  0  0  0
   11.3164    7.3995    0.0000 C   0  0  0  0  0  0  0  0  0  0  0  0
    0.9241    7.3995    0.0000 C   0  0  0  0  0  0  0  0  0  0  0  0
   -0.3750    6.6495    0.0000 C   0  0  0  0  0  0  0  0  0  0  0  0
    2.2231    6.6495    0.0000 C   0  0  0  0  0  0  0  0  0  0  0  0
    2.2231    5.1495    0.0000 C   0  0  0  0  0  0  0  0  0  0  0  0
   -0.3750    5.1495    0.0000 C   0  0  0  0  0  0  0  0  0  0  0  0
    0.9240    4.3995    0.0000 C   0  0  0  0  0  0  0  0  0  0  0  0
   12.6154    9.6495    0.0000 N   0  0  0  0  0  0  0  0  0  0  0  0
   -1.6740    4.3995    0.0000 N   0  0  0  0  0  0  0  0  0  0  0  0
    4.8212    6.6495    0.0000 C   0  0  0  0  0  0  0  0  0  0  0  0
    6.1202    7.3995    0.0000 C   0  0  0  0  0  0  0  0  0  0  0  0
    4.8212    5.1495    0.0000 N   0  0  0  0  0  0  0  0  0  0  0  0
    6.1202    8.8995    0.0000 N   0  0  0  0  0  0  0  0  0  0  0  0
    3.5221    7.3995    0.0000 N   0  0  0  0  0  0  0  0  0  0  0  0
    7.4193    6.6495    0.0000 N   0  0  0  0  0  0  0  0  0  0  0  0
  1  2  2  0  0  0  0
  1  3  1  0  0  0  0
  2  4  1  0  0  0  0
  3  5  2  0  0  0  0
  3 20  1  0  0  0  0
  4  6  2  0  0  0  0
  4 13  1  0  0  0  0
  5  6  1  0  0  0  0
  7  8  2  0  0  0  0
  7  9  1  0  0  0  0
  8 11  1  0  0  0  0
  9 10  2  0  0  0  0
  9 19  1  0  0  0  0
 10 12  1  0  0  0  0
 11 12  2  0  0  0  0
 11 14  1  0  0  0  0
 15 16  1  0  0  0  0
 15 17  2  0  0  0  0
 15 19  1  0  0  0  0
 16 18  2  0  0  0  0
 16 20  1  0  0  0  0
M  END
