292826
 OpenBabel03021519512D

 19 21  0  0  1  0  0  0  0  0999 V2000
   -5.5866   -7.3254    0.0000 F   0  0  0  0  0  0  0  0  0  0  0  0
   -4.2875   -8.0754    0.0000 C   0  0  0  0  0  0  0  0  0  0  0  0
   -4.2875   -9.5754    0.0000 C   0  0  0  0  0  0  0  0  0  0  0  0
   -2.9885   -7.3254    0.0000 C   0  0  0  0  0  0  0  0  0  0  0  0
   -2.9885  -10.3254    0.0000 C   0  0  0  0  0  0  0  0  0  0  0  0
   -2.9885  -11.8254    0.0000 F   0  0  0  0  0  0  0  0  0  0  0  0
   -1.6894   -8.0754    0.0000 C   0  0  0  0  0  0  0  0  0  0  0  0
   -1.6894   -9.5754    0.0000 C   0  0  0  0  0  0  0  0  0  0  0  0
   -0.2628  -10.0389    0.0000 N   0  0  0  0  0  0  0  0  0  0  0  0
    0.2007  -11.4655    0.0000 H   0  0  0  0  0  0  0  0  0  0  0  0
    0.6188   -8.8254    0.0000 C   0  0  0  0  0  0  0  0  0  0  0  0
   -0.2628   -7.6119    0.0000 C   0  0  0  0  0  0  0  0  0  0  0  0
    0.3473   -6.2415    0.0000 C   0  0  0  0  0  0  0  0  0  0  0  0
    2.1106   -8.6686    0.0000 C   0  0  0  0  0  0  0  0  0  0  0  0
    2.7207   -7.2983    0.0000 C   0  0  0  0  0  0  0  0  0  0  0  0
    1.8390   -6.0847    0.0000 C   0  0  3  0  0  0  0  0  0  0  0  0
    2.4491   -4.7144    0.0000 N   0  0  0  0  0  0  0  0  0  0  0  0
    3.9409   -4.5576    0.0000 C   0  0  0  0  0  0  0  0  0  0  0  0
    1.5675   -3.5009    0.0000 C   0  0  0  0  0  0  0  0  0  0  0  0
  1  2  1  0  0  0  0
  2  4  2  0  0  0  0
  2  3  1  0  0  0  0
  3  5  2  0  0  0  0
  4  7  1  0  0  0  0
  5  8  1  0  0  0  0
  5  6  1  0  0  0  0
  7 12  1  0  0  0  0
  7  8  2  0  0  0  0
  8  9  1  0  0  0  0
  9 11  1  0  0  0  0
  9 10  1  0  0  0  0
 11 12  2  0  0  0  0
 11 14  1  0  0  0  0
 12 13  1  0  0  0  0
 13 16  1  0  0  0  0
 14 15  1  0  0  0  0
 15 16  1  0  0  0  0
 16 17  1  0  0  0  0
 17 18  1  0  0  0  0
 17 19  1  0  0  0  0
M  END
