57624
 OpenBabel03021519512D

 28 29  0  0  0  0  0  0  0  0999 V2000
   -0.9240   -4.3995    0.0000 O   0  0  0  0  0  0  0  0  0  0  0  0
   -6.1202   -7.3995    0.0000 C   0  0  0  0  0  0  0  0  0  0  0  0
   -6.1202   -8.8995    0.0000 C   0  0  0  0  0  0  0  0  0  0  0  0
   -4.8211   -6.6495    0.0000 C   0  0  0  0  0  0  0  0  0  0  0  0
   -3.5221   -7.3995    0.0000 C   0  0  0  0  0  0  0  0  0  0  0  0
   -4.8211   -9.6495    0.0000 C   0  0  0  0  0  0  0  0  0  0  0  0
   -7.4192   -9.6495    0.0000 C   0  0  0  0  0  0  0  0  0  0  0  0
   -8.7183   -8.8995    0.0000 C   0  0  0  0  0  0  0  0  0  0  0  0
  -10.0173   -9.6495    0.0000 C   0  0  0  0  0  0  0  0  0  0  0  0
   -7.4192  -11.1495    0.0000 C   0  0  0  0  0  0  0  0  0  0  0  0
  -10.0173  -11.1495    0.0000 C   0  0  0  0  0  0  0  0  0  0  0  0
   -3.5221   -8.8995    0.0000 C   0  0  0  0  0  0  0  0  0  0  0  0
   -8.7182  -11.8995    0.0000 C   0  0  0  0  0  0  0  0  0  0  0  0
  -13.9144  -11.8996    0.0000 O   0  0  0  0  0  0  0  0  0  0  0  0
  -15.2134  -11.1496    0.0000 C   0  0  0  0  0  0  0  0  0  0  0  0
  -16.5125  -11.8996    0.0000 C   0  0  0  0  0  0  0  0  0  0  0  0
  -15.2134   -9.6496    0.0000 C   0  0  0  0  0  0  0  0  0  0  0  0
  -12.6154  -11.1495    0.0000 C   0  0  0  0  0  0  0  0  0  0  0  0
  -12.6154   -9.6495    0.0000 O   0  0  0  0  0  0  0  0  0  0  0  0
  -11.3163  -11.8995    0.0000 N   0  0  0  0  0  0  0  0  0  0  0  0
   -6.1202  -11.8995    0.0000 C   0  0  0  0  0  0  0  0  0  0  0  0
   -4.8211  -11.1495    0.0000 C   0  0  0  0  0  0  0  0  0  0  0  0
   -2.2231   -6.6495    0.0000 N   0  0  0  0  0  0  0  0  0  0  0  0
   -2.2231   -5.1495    0.0000 C   0  0  0  0  0  0  0  0  0  0  0  0
   -3.5221   -4.3995    0.0000 O   0  0  0  0  0  0  0  0  0  0  0  0
   -0.9240   -2.8995    0.0000 C   0  0  0  0  0  0  0  0  0  0  0  0
   -2.2231   -2.1495    0.0000 C   0  0  0  0  0  0  0  0  0  0  0  0
    0.3750   -2.1495    0.0000 C   0  0  0  0  0  0  0  0  0  0  0  0
  1 24  1  0  0  0  0
  1 26  1  0  0  0  0
  2  4  2  0  0  0  0
  2  3  1  0  0  0  0
  3  6  2  0  0  0  0
  3  7  1  0  0  0  0
  4  5  1  0  0  0  0
  5 12  2  0  0  0  0
  5 23  1  0  0  0  0
  6 12  1  0  0  0  0
  6 22  1  0  0  0  0
  7 10  2  0  0  0  0
  7  8  1  0  0  0  0
  8  9  2  0  0  0  0
  9 11  1  0  0  0  0
 10 13  1  0  0  0  0
 10 21  1  0  0  0  0
 11 13  2  0  0  0  0
 11 20  1  0  0  0  0
 14 15  1  0  0  0  0
 14 18  1  0  0  0  0
 15 16  1  0  0  0  0
 15 17  1  0  0  0  0
 18 19  2  0  0  0  0
 18 20  1  0  0  0  0
 23 24  1  0  0  0  0
 24 25  2  0  0  0  0
 26 27  1  0  0  0  0
 26 28  1  0  0  0  0
M  END
