379696
 OpenBabel03021519512D

 31 33  0  0  0  0  0  0  0  0999 V2000
   -8.7362    4.8887    0.0000 O   0  0  0  0  0  0  0  0  0  0  0  0
  -10.1065    5.4988    0.0000 S   0  0  0  0  0  0  0  0  0  0  0  0
  -11.4769    6.1089    0.0000 O   0  0  0  0  0  0  0  0  0  0  0  0
  -10.7166    4.1284    0.0000 N   0  0  0  0  0  0  0  0  0  0  0  0
   -8.3432    3.0717    0.0000 S   0  0  0  0  0  0  0  0  0  0  0  0
   -9.8350    2.9149    0.0000 C   0  0  0  0  0  0  0  0  0  0  0  0
   -7.4615    1.8582    0.0000 O   0  0  0  0  0  0  0  0  0  0  0  0
   -7.6534   -2.1522    0.0000 C   0  0  0  0  0  0  0  0  0  0  0  0
   -8.0716    0.4879    0.0000 C   0  0  0  0  0  0  0  0  0  0  0  0
   -7.1899   -0.7257    0.0000 C   0  0  0  0  0  0  0  0  0  0  0  0
   -6.4399   -3.0339    0.0000 O   0  0  0  0  0  0  0  0  0  0  0  0
   -5.6899   -0.7257    0.0000 C   0  0  0  0  0  0  0  0  0  0  0  0
   -6.3370    2.8038    0.0000 Cl  0  0  0  0  0  0  0  0  0  0  0  0
   -5.2264   -2.1522    0.0000 N   0  0  0  0  0  0  0  0  0  0  0  0
   -4.8453    2.6470    0.0000 C   0  0  0  0  0  0  0  0  0  0  0  0
   -4.2351    1.2767    0.0000 C   0  0  0  0  0  0  0  0  0  0  0  0
   -2.7434    1.1199    0.0000 C   0  0  0  0  0  0  0  0  0  0  0  0
   -3.9636    3.8605    0.0000 C   0  0  0  0  0  0  0  0  0  0  0  0
   -2.1333   -0.2504    0.0000 Cl  0  0  0  0  0  0  0  0  0  0  0  0
   -1.8617    2.3334    0.0000 C   0  0  0  0  0  0  0  0  0  0  0  0
   -2.4718    3.7037    0.0000 C   0  0  0  0  0  0  0  0  0  0  0  0
   -9.4964    6.8691    0.0000 C   0  0  0  0  0  0  0  0  0  0  0  0
  -10.3781    8.0826    0.0000 C   0  0  0  0  0  0  0  0  0  0  0  0
   -9.7680    9.4529    0.0000 C   0  0  0  0  0  0  0  0  0  0  0  0
   -8.2762    9.6097    0.0000 C   0  0  0  0  0  0  0  0  0  0  0  0
   -7.3945    8.3962    0.0000 C   0  0  0  0  0  0  0  0  0  0  0  0
   -8.0047    7.0259    0.0000 C   0  0  0  0  0  0  0  0  0  0  0  0
   -7.7331    4.4420    0.0000 C   0  0  0  0  0  0  0  0  0  0  0  0
  -10.4451    1.5446    0.0000 N   0  0  0  0  0  0  0  0  0  0  0  0
   -9.5634    0.3311    0.0000 N   0  0  0  0  0  0  0  0  0  0  0  0
   -9.0800   -2.6158    0.0000 C   0  0  0  0  0  0  0  0  0  0  0  0
  1  2  2  0  0  0  0
  2  4  1  0  0  0  0
  2  3  2  0  0  0  0
  2 22  1  0  0  0  0
  4  6  2  0  0  0  0
  5  6  1  0  0  0  0
  5 28  1  0  0  0  0
  6 29  1  0  0  0  0
  7  9  2  0  0  0  0
  8 10  2  0  0  0  0
  8 11  1  0  0  0  0
  8 31  1  0  0  0  0
  9 10  1  0  0  0  0
  9 30  1  0  0  0  0
 10 12  1  0  0  0  0
 11 14  1  0  0  0  0
 12 16  1  0  0  0  0
 12 14  2  0  0  0  0
 13 15  1  0  0  0  0
 15 18  2  0  0  0  0
 15 16  1  0  0  0  0
 16 17  2  0  0  0  0
 17 20  1  0  0  0  0
 17 19  1  0  0  0  0
 18 21  1  0  0  0  0
 20 21  2  0  0  0  0
 22 23  2  0  0  0  0
 22 27  1  0  0  0  0
 23 24  1  0  0  0  0
 24 25  2  0  0  0  0
 25 26  1  0  0  0  0
 26 27  2  0  0  0  0
 29 30  1  0  0  0  0
M  END
