159632
 OpenBabel03021519512D

 17 18  0  0  1  0  0  0  0  0999 V2000
   -9.0483   -5.2500    0.0000 O   0  0  0  0  0  0  0  0  0  0  0  0
   -7.7493   -7.5000    0.0000 O   0  0  0  0  0  0  0  0  0  0  0  0
   -2.5531   -3.0000    0.0000 O   0  0  0  0  0  0  0  0  0  0  0  0
   -6.4502   -2.2500    0.0000 C   0  0  2  0  0  0  0  0  0  0  0  0
   -7.7493   -3.0000    0.0000 C   0  0  2  0  0  0  0  0  0  0  0  0
   -5.1512   -3.0000    0.0000 C   0  0  0  0  0  0  0  0  0  0  0  0
   -3.8522   -2.2500    0.0000 C   0  0  0  0  0  0  0  0  0  0  0  0
   -5.1512   -4.5000    0.0000 C   0  0  0  0  0  0  0  0  0  0  0  0
   -7.7493   -4.5000    0.0000 C   0  0  0  0  0  0  0  0  0  0  0  0
   -6.4502   -5.2500    0.0000 C   0  0  0  0  0  0  0  0  0  0  0  0
   -3.8521   -5.2500    0.0000 C   0  0  0  0  0  0  0  0  0  0  0  0
   -2.5531   -4.5000    0.0000 C   0  0  0  0  0  0  0  0  0  0  0  0
   -9.2265   -3.2605    0.0000 O   0  0  0  0  0  0  0  0  0  0  0  0
   -8.2623   -1.5905    0.0000 C   0  0  0  0  0  0  0  0  0  0  0  0
   -6.4502   -0.7500    0.0000 O   0  0  0  0  0  0  0  0  0  0  0  0
   -6.4502   -6.7500    0.0000 C   0  0  0  0  0  0  0  0  0  0  0  0
   -1.2541   -5.2500    0.0000 C   0  0  0  0  0  0  0  0  0  0  0  0
  1  9  2  0  0  0  0
  2 16  2  0  0  0  0
  3  7  1  0  0  0  0
  3 12  1  0  0  0  0
  4  5  1  0  0  0  0
  4  6  1  0  0  0  0
  4 15  1  1  0  0  0
  5  9  1  0  0  0  0
  5 13  1  6  0  0  0
  5 14  1  0  0  0  0
  6  7  2  0  0  0  0
  6  8  1  0  0  0  0
  8 10  2  0  0  0  0
  8 11  1  0  0  0  0
  9 10  1  0  0  0  0
 10 16  1  0  0  0  0
 11 12  2  0  0  0  0
 12 17  1  0  0  0  0
M  END
