163802
 OpenBabel03021519512D

 19 20  0  0  0  0  0  0  0  0999 V2000
    5.4706    5.5245    0.0000 O   0  0  0  0  0  0  0  0  0  0  0  0
    6.7697    7.7746    0.0000 C   0  0  0  0  0  0  0  0  0  0  0  0
    8.0687    8.5246    0.0000 C   0  0  0  0  0  0  0  0  0  0  0  0
    6.7697    6.2746    0.0000 C   0  0  0  0  0  0  0  0  0  0  0  0
    9.3677    7.7746    0.0000 C   0  0  0  0  0  0  0  0  0  0  0  0
    8.0687    5.5246    0.0000 C   0  0  0  0  0  0  0  0  0  0  0  0
    9.3678    6.2746    0.0000 C   0  0  0  0  0  0  0  0  0  0  0  0
    1.5735    6.2745    0.0000 C   0  0  0  0  0  0  0  0  0  0  0  0
    2.8726    5.5245    0.0000 C   0  0  0  0  0  0  0  0  0  0  0  0
    0.2745    5.5245    0.0000 C   0  0  0  0  0  0  0  0  0  0  0  0
    2.8726    4.0245    0.0000 C   0  0  0  0  0  0  0  0  0  0  0  0
    0.2745    4.0245    0.0000 C   0  0  0  0  0  0  0  0  0  0  0  0
    1.5735    3.2745    0.0000 C   0  0  0  0  0  0  0  0  0  0  0  0
   -1.0245    3.2745    0.0000 N   0  0  0  0  0  0  0  0  0  0  0  0
    4.1716    6.2745    0.0000 C   0  0  0  0  0  0  0  0  0  0  0  0
    4.1716    7.7745    0.0000 O   0  0  0  0  0  0  0  0  0  0  0  0
   10.6668    8.5246    0.0000 N   0  3  0  0  0  0  0  0  0  0  0  0
   10.6668   10.0246    0.0000 O   0  5  0  0  0  0  0  0  0  0  0  0
   11.9658    7.7746    0.0000 O   0  0  0  0  0  0  0  0  0  0  0  0
  1  4  1  0  0  0  0
  1 15  1  0  0  0  0
  2  3  2  0  0  0  0
  2  4  1  0  0  0  0
  3  5  1  0  0  0  0
  4  6  2  0  0  0  0
  5  7  2  0  0  0  0
  5 17  1  0  0  0  0
  6  7  1  0  0  0  0
  8 10  2  0  0  0  0
  8  9  1  0  0  0  0
  9 11  2  0  0  0  0
  9 15  1  0  0  0  0
 10 12  1  0  0  0  0
 11 13  1  0  0  0  0
 12 13  2  0  0  0  0
 12 14  1  0  0  0  0
 15 16  2  0  0  0  0
 17 18  1  0  0  0  0
 17 19  2  0  0  0  0
M  CHG  2  17   1  18  -1
M  END
