302867
 OpenBabel03021519512D

 23 24  0  0  0  0  0  0  0  0999 V2000
   -4.8402   -3.1014    0.0000 C   0  0  0  0  0  0  0  0  0  0  0  0
   -3.7652   -2.0552    0.0000 C   0  0  0  0  0  0  0  0  0  0  0  0
   -4.4716   -4.5554    0.0000 C   0  0  0  0  0  0  0  0  0  0  0  0
    1.3752   -0.8967    0.0000 C   0  0  0  0  0  0  0  0  0  0  0  0
    0.1967   -1.8248    0.0000 C   0  0  0  0  0  0  0  0  0  0  0  0
   -2.3217   -2.4631    0.0000 C   0  0  0  0  0  0  0  0  0  0  0  0
   -3.0282   -4.9633    0.0000 C   0  0  0  0  0  0  0  0  0  0  0  0
    2.6220   -1.7307    0.0000 C   0  0  0  0  0  0  0  0  0  0  0  0
    0.7152   -3.2323    0.0000 C   0  0  0  0  0  0  0  0  0  0  0  0
   -1.9532   -3.9171    0.0000 C   0  0  0  0  0  0  0  0  0  0  0  0
   -5.5466   -5.6016    0.0000 O   0  0  0  0  0  0  0  0  0  0  0  0
   -1.6155   -4.3803    0.0000 H   0  0  0  0  0  0  0  0  0  0  0  0
   -0.1187   -4.4791    0.0000 N   0  0  0  0  0  0  0  0  0  0  0  0
   -1.2467   -1.4169    0.0000 N   0  0  0  0  0  0  0  0  0  0  0  0
    2.2141   -3.1742    0.0000 N   0  0  0  0  0  0  0  0  0  0  0  0
    3.1422   -4.3526    0.0000 H   0  0  0  0  0  0  0  0  0  0  0  0
    0.3926    1.5084    0.0000 O   0  0  0  0  0  0  0  0  0  0  0  0
    1.5782    0.5895    0.0000 C   0  0  0  0  0  0  0  0  0  0  0  0
    2.9668    1.1568    0.0000 O   0  0  0  0  0  0  0  0  0  0  0  0
   -6.9901   -5.1937    0.0000 C   0  0  0  0  0  0  0  0  0  0  0  0
    4.0295   -1.2122    0.0000 N   0  0  0  0  0  0  0  0  0  0  0  0
    3.1698    2.6430    0.0000 C   0  0  0  0  0  0  0  0  0  0  0  0
    1.9842    3.5619    0.0000 C   0  0  0  0  0  0  0  0  0  0  0  0
  1  3  2  0  0  0  0
  1  2  1  0  0  0  0
  2  6  2  0  0  0  0
  3 11  1  0  0  0  0
  3  7  1  0  0  0  0
  4  5  1  0  0  0  0
  4 18  1  0  0  0  0
  4  8  2  0  0  0  0
  5 14  2  0  0  0  0
  5  9  1  0  0  0  0
  6 14  1  0  0  0  0
  6 10  1  0  0  0  0
  7 10  2  0  0  0  0
  8 15  1  0  0  0  0
  8 21  1  0  0  0  0
  9 13  2  0  0  0  0
  9 15  1  0  0  0  0
 11 20  1  0  0  0  0
 12 13  1  0  0  0  0
 15 16  1  0  0  0  0
 17 18  2  0  0  0  0
 18 19  1  0  0  0  0
 19 22  1  0  0  0  0
 22 23  1  0  0  0  0
M  END
