103770
 OpenBabel03021519512D

 13 14  0  0  0  0  0  0  0  0999 V2000
   -4.1099    0.6083    0.0000 N   0  0  0  0  0  0  0  0  0  0  0  0
   -4.3472   -0.8728    0.0000 S   0  0  0  0  0  0  0  0  0  0  0  0
   -2.6280    0.8403    0.0000 N   0  0  0  0  0  0  0  0  0  0  0  0
    3.0214    1.2510    0.0000 N   0  0  0  0  0  0  0  0  0  0  0  0
    4.1195   -0.9134    0.0000 S   0  0  0  0  0  0  0  0  0  0  0  0
    4.3567    0.5677    0.0000 N   0  0  0  0  0  0  0  0  0  0  0  0
    1.9589    0.1922    0.0000 C   0  0  0  0  0  0  0  0  0  0  0  0
    2.6376   -1.1455    0.0000 C   0  0  0  0  0  0  0  0  0  0  0  0
   -1.9494   -0.4974    0.0000 C   0  0  0  0  0  0  0  0  0  0  0  0
   -3.0119   -1.5562    0.0000 C   0  0  0  0  0  0  0  0  0  0  0  0
   -0.4682   -0.7346    0.0000 N   0  0  0  0  0  0  0  0  0  0  0  0
    0.4778    0.4295    0.0000 C   0  0  0  0  0  0  0  0  0  0  0  0
   -0.0573    1.8308    0.0000 O   0  0  0  0  0  0  0  0  0  0  0  0
  1  3  2  0  0  0  0
  1  2  1  0  0  0  0
  2 10  1  0  0  0  0
  3  9  1  0  0  0  0
  4  6  2  0  0  0  0
  4  7  1  0  0  0  0
  5  6  1  0  0  0  0
  5  8  1  0  0  0  0
  7  8  2  0  0  0  0
  7 12  1  0  0  0  0
  9 10  2  0  0  0  0
  9 11  1  0  0  0  0
 11 12  1  0  0  0  0
 12 13  2  0  0  0  0
M  END
