110300
 OpenBabel03021519512D

 24 26  0  0  0  0  0  0  0  0999 V2000
  -12.4890   -9.6753    0.0000 S   0  0  0  0  0  0  0  0  0  0  0  0
  -11.2755  -11.7772    0.0000 N   0  0  0  0  0  0  0  0  0  0  0  0
   -0.6551   -5.6455    0.0000 N   0  0  0  0  0  0  0  0  0  0  0  0
   -1.8686   -3.5436    0.0000 S   0  0  0  0  0  0  0  0  0  0  0  0
   -7.2216   -5.0354    0.0000 C   0  0  0  0  0  0  0  0  0  0  0  0
   -5.9226   -5.7854    0.0000 C   0  0  0  0  0  0  0  0  0  0  0  0
   -8.5206   -5.7854    0.0000 C   0  0  0  0  0  0  0  0  0  0  0  0
   -5.9226   -7.2854    0.0000 C   0  0  0  0  0  0  0  0  0  0  0  0
   -8.5206   -7.2854    0.0000 C   0  0  0  0  0  0  0  0  0  0  0  0
   -7.2216   -8.0354    0.0000 C   0  0  0  0  0  0  0  0  0  0  0  0
   -0.4014   -3.2318    0.0000 C   0  0  0  0  0  0  0  0  0  0  0  0
    0.3486   -4.5308    0.0000 C   0  0  0  0  0  0  0  0  0  0  0  0
   -2.0254   -5.0354    0.0000 C   0  0  0  0  0  0  0  0  0  0  0  0
  -11.1187  -10.2854    0.0000 C   0  0  0  0  0  0  0  0  0  0  0  0
  -13.4927  -10.7901    0.0000 C   0  0  0  0  0  0  0  0  0  0  0  0
  -12.7427  -12.0891    0.0000 C   0  0  0  0  0  0  0  0  0  0  0  0
  -13.3528  -13.4594    0.0000 C   0  0  0  0  0  0  0  0  0  0  0  0
   -9.8197   -9.5354    0.0000 N   0  0  0  0  0  0  0  0  0  0  0  0
   -9.8197   -8.0354    0.0000 C   0  0  0  0  0  0  0  0  0  0  0  0
  -11.1187   -7.2854    0.0000 O   0  0  0  0  0  0  0  0  0  0  0  0
   -4.6235   -5.0354    0.0000 C   0  0  0  0  0  0  0  0  0  0  0  0
   -4.6235   -3.5354    0.0000 O   0  0  0  0  0  0  0  0  0  0  0  0
   -3.3245   -5.7854    0.0000 N   0  0  0  0  0  0  0  0  0  0  0  0
    1.8404   -4.6876    0.0000 C   0  0  0  0  0  0  0  0  0  0  0  0
  1 14  1  0  0  0  0
  1 15  1  0  0  0  0
  2 14  2  0  0  0  0
  2 16  1  0  0  0  0
  3 13  2  0  0  0  0
  3 12  1  0  0  0  0
  4 11  1  0  0  0  0
  4 13  1  0  0  0  0
  5  6  2  0  0  0  0
  5  7  1  0  0  0  0
  6  8  1  0  0  0  0
  6 21  1  0  0  0  0
  7  9  2  0  0  0  0
  8 10  2  0  0  0  0
  9 10  1  0  0  0  0
  9 19  1  0  0  0  0
 11 12  2  0  0  0  0
 12 24  1  0  0  0  0
 13 23  1  0  0  0  0
 14 18  1  0  0  0  0
 15 16  2  0  0  0  0
 16 17  1  0  0  0  0
 18 19  1  0  0  0  0
 19 20  2  0  0  0  0
 21 22  2  0  0  0  0
 21 23  1  0  0  0  0
M  END
