60303
 OpenBabel03021519512D

 19 20  0  0  0  0  0  0  0  0999 V2000
   -9.8433   -7.5000    0.0000 Cl  0  0  0  0  0  0  0  0  0  0  0  0
   -3.3481   -3.7500    0.0000 N   0  0  0  0  0  0  0  0  0  0  0  0
   -3.3481   -5.2500    0.0000 C   0  0  0  0  0  0  0  0  0  0  0  0
   -4.6471   -6.0000    0.0000 C   0  0  0  0  0  0  0  0  0  0  0  0
   -5.9461   -5.2500    0.0000 C   0  0  0  0  0  0  0  0  0  0  0  0
   -5.9462   -3.7500    0.0000 C   0  0  0  0  0  0  0  0  0  0  0  0
   -4.6471   -3.0000    0.0000 C   0  0  0  0  0  0  0  0  0  0  0  0
   -9.8433   -3.0000    0.0000 C   0  0  0  0  0  0  0  0  0  0  0  0
  -11.1423   -3.7500    0.0000 C   0  0  0  0  0  0  0  0  0  0  0  0
   -8.5442   -3.7500    0.0000 C   0  0  0  0  0  0  0  0  0  0  0  0
   -8.5442   -5.2500    0.0000 C   0  0  0  0  0  0  0  0  0  0  0  0
  -11.1423   -5.2500    0.0000 C   0  0  0  0  0  0  0  0  0  0  0  0
   -9.8433   -6.0000    0.0000 C   0  0  0  0  0  0  0  0  0  0  0  0
   -9.8433   -1.5000    0.0000 C   0  0  0  0  0  0  0  0  0  0  0  0
  -11.1423   -0.7500    0.0000 O   0  0  0  0  0  0  0  0  0  0  0  0
   -8.5442   -0.7500    0.0000 O   0  0  0  0  0  0  0  0  0  0  0  0
   -7.2452   -3.0000    0.0000 N   0  0  0  0  0  0  0  0  0  0  0  0
   -2.0490   -6.0000    0.0000 O   0  0  0  0  0  0  0  0  0  0  0  0
   -0.7500   -5.2500    0.0000 C   0  0  0  0  0  0  0  0  0  0  0  0
  1 13  1  0  0  0  0
  2  3  2  0  0  0  0
  2  7  1  0  0  0  0
  3  4  1  0  0  0  0
  3 18  1  0  0  0  0
  4  5  2  0  0  0  0
  5  6  1  0  0  0  0
  6  7  2  0  0  0  0
  6 17  1  0  0  0  0
  8 10  2  0  0  0  0
  8  9  1  0  0  0  0
  8 14  1  0  0  0  0
  9 12  2  0  0  0  0
 10 11  1  0  0  0  0
 10 17  1  0  0  0  0
 11 13  2  0  0  0  0
 12 13  1  0  0  0  0
 14 15  2  0  0  0  0
 14 16  1  0  0  0  0
 18 19  1  0  0  0  0
M  END
