280492
 OpenBabel03021519512D

 19 20  0  0  0  0  0  0  0  0999 V2000
   -6.3044   -6.1227    0.0000 C   0  0  0  0  0  0  0  0  0  0  0  0
   -6.3044   -7.6227    0.0000 C   0  0  0  0  0  0  0  0  0  0  0  0
   -5.0054   -5.3727    0.0000 C   0  0  0  0  0  0  0  0  0  0  0  0
   -5.0054   -8.3727    0.0000 C   0  0  0  0  0  0  0  0  0  0  0  0
   -3.7064   -6.1227    0.0000 C   0  0  0  0  0  0  0  0  0  0  0  0
   -3.7064   -7.6227    0.0000 C   0  0  0  0  0  0  0  0  0  0  0  0
   -2.2798   -8.0862    0.0000 S   0  0  0  0  0  0  0  0  0  0  0  0
   -1.3981   -6.8727    0.0000 C   0  0  0  0  0  0  0  0  0  0  0  0
   -2.2798   -5.6592    0.0000 C   0  0  0  0  0  0  0  0  0  0  0  0
   -1.8162   -4.2326    0.0000 C   0  0  0  0  0  0  0  0  0  0  0  0
   -2.8199   -3.1179    0.0000 O   0  0  0  0  0  0  0  0  0  0  0  0
   -0.3490   -3.9207    0.0000 O   0  0  0  0  0  0  0  0  0  0  0  0
    2.3519   -8.1717    0.0000 S   0  0  0  0  0  0  0  0  0  0  0  0
    0.8519   -8.1717    0.0000 C   0  0  0  0  0  0  0  0  0  0  0  0
    0.1019   -6.8727    0.0000 N   0  0  0  0  0  0  0  0  0  0  0  0
    0.1145   -2.4941    0.0000 C   0  0  0  0  0  0  0  0  0  0  0  0
   -0.8892   -1.3794    0.0000 C   0  0  0  0  0  0  0  0  0  0  0  0
    0.1019   -9.4708    0.0000 N   0  0  0  0  0  0  0  0  0  0  0  0
   -1.3981   -9.4708    0.0000 C   0  0  0  0  0  0  0  0  0  0  0  0
  1  3  1  0  0  0  0
  1  2  1  0  0  0  0
  2  4  1  0  0  0  0
  3  5  1  0  0  0  0
  4  6  1  0  0  0  0
  5  9  1  0  0  0  0
  5  6  2  0  0  0  0
  6  7  1  0  0  0  0
  7  8  1  0  0  0  0
  8  9  2  0  0  0  0
  8 15  1  0  0  0  0
  9 10  1  0  0  0  0
 10 11  2  0  0  0  0
 10 12  1  0  0  0  0
 12 16  1  0  0  0  0
 13 14  2  0  0  0  0
 14 15  1  0  0  0  0
 14 18  1  0  0  0  0
 16 17  1  0  0  0  0
 18 19  1  0  0  0  0
M  END
