298892
 OpenBabel03021519512D

 28 31  0  0  1  0  0  0  0  0999 V2000
   -1.8342   -7.6768    0.0000 C   0  0  0  0  0  0  0  0  0  0  0  0
   -1.8342   -9.1769    0.0000 C   0  0  0  0  0  0  0  0  0  0  0  0
   -1.8342  -12.1769    0.0000 C   0  0  0  0  0  0  0  0  0  0  0  0
   -1.8342  -13.6769    0.0000 C   0  0  0  0  0  0  0  0  0  0  0  0
   -0.5351   -9.9269    0.0000 C   0  0  3  0  0  0  0  0  0  0  0  0
   -0.5351   -6.9269    0.0000 O   0  0  0  0  0  0  0  0  0  0  0  0
   -0.5351  -11.4269    0.0000 C   0  0  0  0  0  0  0  0  0  0  0  0
   -0.5351  -14.4269    0.0000 C   0  0  0  0  0  0  0  0  0  0  0  0
    0.7639   -9.1769    0.0000 C   0  0  0  0  0  0  0  0  0  0  0  0
    0.7639  -12.1769    0.0000 C   0  0  0  0  0  0  0  0  0  0  0  0
    0.7639  -13.6769    0.0000 C   0  0  0  0  0  0  0  0  0  0  0  0
    0.7639   -7.6769    0.0000 C   0  0  0  0  0  0  0  0  0  0  0  0
    2.1905   -9.6404    0.0000 C   0  0  0  0  0  0  0  0  0  0  0  0
    2.1905   -7.2133    0.0000 N   0  0  0  0  0  0  0  0  0  0  0  0
    3.0722   -8.4269    0.0000 N   0  0  0  0  0  0  0  0  0  0  0  0
   -3.1332   -6.9268    0.0000 N   0  0  0  0  0  0  0  0  0  0  0  0
   -3.1332   -9.9269    0.0000 C   0  0  0  0  0  0  0  0  0  0  0  0
   -4.4322  -10.6769    0.0000 N   0  0  0  0  0  0  0  0  0  0  0  0
   -0.5351  -15.9269    0.0000 N   0  3  0  0  0  0  0  0  0  0  0  0
   -1.8342  -16.6769    0.0000 O   0  5  0  0  0  0  0  0  0  0  0  0
    0.7639  -16.6769    0.0000 O   0  0  0  0  0  0  0  0  0  0  0  0
    2.6540   -5.7867    0.0000 C   0  0  0  0  0  0  0  0  0  0  0  0
    1.6503   -4.6720    0.0000 C   0  0  0  0  0  0  0  0  0  0  0  0
    2.1139   -3.2454    0.0000 C   0  0  0  0  0  0  0  0  0  0  0  0
    3.5811   -2.9336    0.0000 C   0  0  0  0  0  0  0  0  0  0  0  0
    4.5848   -4.0483    0.0000 C   0  0  0  0  0  0  0  0  0  0  0  0
    4.1213   -5.4749    0.0000 C   0  0  0  0  0  0  0  0  0  0  0  0
    2.6540  -11.0670    0.0000 C   0  0  0  0  0  0  0  0  0  0  0  0
  1  6  1  0  0  0  0
  1  2  2  0  0  0  0
  1 16  1  0  0  0  0
  2  5  1  0  0  0  0
  2 17  1  0  0  0  0
  3  7  1  0  0  0  0
  3  4  2  0  0  0  0
  4  8  1  0  0  0  0
  5  9  1  0  0  0  0
  5  7  1  0  0  0  0
  6 12  1  0  0  0  0
  7 10  2  0  0  0  0
  8 11  2  0  0  0  0
  8 19  1  0  0  0  0
  9 12  2  0  0  0  0
  9 13  1  0  0  0  0
 10 11  1  0  0  0  0
 12 14  1  0  0  0  0
 13 15  2  0  0  0  0
 13 28  1  0  0  0  0
 14 15  1  0  0  0  0
 14 22  1  0  0  0  0
 17 18  3  0  0  0  0
 19 20  1  0  0  0  0
 19 21  2  0  0  0  0
 22 23  2  0  0  0  0
 22 27  1  0  0  0  0
 23 24  1  0  0  0  0
 24 25  2  0  0  0  0
 25 26  1  0  0  0  0
 26 27  2  0  0  0  0
M  CHG  2  19   1  20  -1
M  END
