7436
 OpenBabel03021519512D

 21 22  0  0  0  0  0  0  0  0999 V2000
    1.1985    9.1740    0.0000 C   0  0  0  0  0  0  0  0  0  0  0  0
    1.1985   10.6740    0.0000 C   0  0  0  0  0  0  0  0  0  0  0  0
    2.4976    8.4240    0.0000 C   0  0  0  0  0  0  0  0  0  0  0  0
    2.4976   11.4240    0.0000 C   0  0  0  0  0  0  0  0  0  0  0  0
    3.7966    9.1740    0.0000 C   0  0  0  0  0  0  0  0  0  0  0  0
    3.7966   10.6740    0.0000 C   0  0  0  0  0  0  0  0  0  0  0  0
   -1.3995    6.1740    0.0000 C   0  0  0  0  0  0  0  0  0  0  0  0
   -2.6986    5.4240    0.0000 C   0  0  0  0  0  0  0  0  0  0  0  0
   -0.1005    5.4240    0.0000 C   0  0  0  0  0  0  0  0  0  0  0  0
   -0.1005    3.9240    0.0000 C   0  0  0  0  0  0  0  0  0  0  0  0
   -2.6986    3.9240    0.0000 C   0  0  0  0  0  0  0  0  0  0  0  0
   -1.3995    3.1740    0.0000 C   0  0  0  0  0  0  0  0  0  0  0  0
   -3.9976    3.1740    0.0000 N   0  0  0  0  0  0  0  0  0  0  0  0
    1.1986    6.1740    0.0000 S   0  0  0  0  0  0  0  0  0  0  0  0
    1.9485    4.8750    0.0000 O   0  0  0  0  0  0  0  0  0  0  0  0
    0.4485    7.4731    0.0000 O   0  0  0  0  0  0  0  0  0  0  0  0
    2.4976    6.9240    0.0000 N   0  0  0  0  0  0  0  0  0  0  0  0
    2.4976   12.9240    0.0000 C   0  0  0  0  0  0  0  0  0  0  0  0
    3.9976   12.9240    0.0000 C   0  0  0  0  0  0  0  0  0  0  0  0
    0.9976   12.9240    0.0000 C   0  0  0  0  0  0  0  0  0  0  0  0
    2.4976   14.4240    0.0000 C   0  0  0  0  0  0  0  0  0  0  0  0
  1  2  2  0  0  0  0
  1  3  1  0  0  0  0
  2  4  1  0  0  0  0
  3  5  2  0  0  0  0
  3 17  1  0  0  0  0
  4  6  2  0  0  0  0
  4 18  1  0  0  0  0
  5  6  1  0  0  0  0
  7  8  2  0  0  0  0
  7  9  1  0  0  0  0
  8 11  1  0  0  0  0
  9 10  2  0  0  0  0
  9 14  1  0  0  0  0
 10 12  1  0  0  0  0
 11 12  2  0  0  0  0
 11 13  1  0  0  0  0
 14 15  2  0  0  0  0
 14 16  2  0  0  0  0
 14 17  1  0  0  0  0
 18 19  1  0  0  0  0
 18 20  1  0  0  0  0
 18 21  1  0  0  0  0
M  END
