176324
 OpenBabel03021519512D

 13 13  0  0  1  0  0  0  0  0999 V2000
    1.9128    3.4599    0.0000 Cl  0  0  0  0  0  0  0  0  0  0  0  0
    2.3309    0.8198    0.0000 N   0  0  0  0  0  0  0  0  0  0  0  0
    3.5445   -0.0619    0.0000 O   0  0  0  0  0  0  0  0  0  0  0  0
    5.7211   -1.0703    0.0000 H   0  0  0  0  0  0  0  0  0  0  0  0
    6.1846    0.3563    0.0000 C   0  0  2  0  0  0  0  0  0  0  0  0
    2.7945    2.2464    0.0000 C   0  0  0  0  0  0  0  0  0  0  0  0
    4.2945    2.2464    0.0000 C   0  0  1  0  0  0  0  0  0  0  0  0
    4.7580    0.8198    0.0000 C   0  0  2  0  0  0  0  0  0  0  0  0
    5.1761    3.4599    0.0000 O   0  0  0  0  0  0  0  0  0  0  0  0
    7.1883   -0.7584    0.0000 N   0  0  0  0  0  0  0  0  0  0  0  0
    7.2993    1.3600    0.0000 C   0  0  0  0  0  0  0  0  0  0  0  0
    8.7259    0.8965    0.0000 O   0  0  0  0  0  0  0  0  0  0  0  0
    6.9874    2.8272    0.0000 O   0  0  0  0  0  0  0  0  0  0  0  0
  1  6  1  0  0  0  0
  2  6  2  0  0  0  0
  2  3  1  0  0  0  0
  5  4  1  6  0  0  0
  5 10  1  0  0  0  0
  5 11  1  0  0  0  0
  6  7  1  0  0  0  0
  7  8  1  0  0  0  0
  7  9  1  6  0  0  0
  8  3  1  1  0  0  0
  8  5  1  0  0  0  0
 11 12  2  0  0  0  0
 11 13  1  0  0  0  0
M  END
