12633
 OpenBabel03021519512D

 16 16  0  0  0  0  0  0  0  0999 V2000
    4.0711    0.8505    0.0000 O   0  0  0  0  0  0  0  0  0  0  0  0
    4.2721   -5.8995    0.0000 H   0  0  0  0  0  0  0  0  0  0  0  0
    4.2721   -1.3995    0.0000 C   0  0  0  0  0  0  0  0  0  0  0  0
    4.2721   -2.8995    0.0000 C   0  0  0  0  0  0  0  0  0  0  0  0
    5.5711    0.8505    0.0000 As  0  0  0  0  0  0  0  0  0  0  0  0
    5.5712   -5.1495    0.0000 N   0  0  0  0  0  0  0  0  0  0  0  0
    5.5712   -3.6495    0.0000 C   0  0  0  0  0  0  0  0  0  0  0  0
    5.5711   -0.6495    0.0000 C   0  0  0  0  0  0  0  0  0  0  0  0
    6.8702   -1.3995    0.0000 C   0  0  0  0  0  0  0  0  0  0  0  0
    6.8702   -2.8995    0.0000 C   0  0  0  0  0  0  0  0  0  0  0  0
    8.1692   -3.6495    0.0000 O   0  0  0  0  0  0  0  0  0  0  0  0
    8.1692   -5.1495    0.0000 C   0  0  0  0  0  0  0  0  0  0  0  0
    5.5711    2.3505    0.0000 O   0  0  0  0  0  0  0  0  0  0  0  0
    6.8702   -5.8995    0.0000 C   0  0  0  0  0  0  0  0  0  0  0  0
    7.0711    0.8505    0.0000 O   0  0  0  0  0  0  0  0  0  0  0  0
    9.4683   -5.8995    0.0000 O   0  0  0  0  0  0  0  0  0  0  0  0
  1  5  2  0  0  0  0
  2  6  1  0  0  0  0
  3  8  2  0  0  0  0
  3  4  1  0  0  0  0
  4  7  2  0  0  0  0
  5  8  1  0  0  0  0
  5 13  1  0  0  0  0
  5 15  1  0  0  0  0
  6  7  1  0  0  0  0
  6 14  1  0  0  0  0
  7 10  1  0  0  0  0
  8  9  1  0  0  0  0
  9 10  2  0  0  0  0
 11 12  2  0  0  0  0
 12 14  1  0  0  0  0
 12 16  1  0  0  0  0
M  END
