3064
 OpenBabel03021519512D

 25 27  0  0  0  0  0  0  0  0999 V2000
   -7.5197    0.4755    0.0000 N   0  0  0  0  0  0  0  0  0  0  0  0
   -7.5197   -2.5245    0.0000 N   0  0  0  0  0  0  0  0  0  0  0  0
   -4.9216    0.4755    0.0000 N   0  0  0  0  0  0  0  0  0  0  0  0
   -4.9216   -4.0245    0.0000 O   0  0  0  0  0  0  0  0  0  0  0  0
   -3.6226   -1.7745    0.0000 N   0  0  0  0  0  0  0  0  0  0  0  0
   -2.3236   -2.5245    0.0000 H   0  0  0  0  0  0  0  0  0  0  0  0
   -2.3236    0.4755    0.0000 O   0  0  0  0  0  0  0  0  0  0  0  0
  -10.1178    0.4755    0.0000 C   0  0  0  0  0  0  0  0  0  0  0  0
   -8.8188   -0.2745    0.0000 C   0  0  0  0  0  0  0  0  0  0  0  0
  -11.4168   -0.2745    0.0000 C   0  0  0  0  0  0  0  0  0  0  0  0
   -8.8188   -1.7745    0.0000 C   0  0  0  0  0  0  0  0  0  0  0  0
  -11.4168   -1.7745    0.0000 C   0  0  0  0  0  0  0  0  0  0  0  0
  -10.1178   -2.5245    0.0000 C   0  0  0  0  0  0  0  0  0  0  0  0
   -3.6226   -0.2745    0.0000 C   0  0  0  0  0  0  0  0  0  0  0  0
   -6.2207   -0.2745    0.0000 C   0  0  0  0  0  0  0  0  0  0  0  0
   -6.2207   -1.7745    0.0000 C   0  0  0  0  0  0  0  0  0  0  0  0
   -4.9216   -2.5245    0.0000 C   0  0  0  0  0  0  0  0  0  0  0  0
  -12.7159    0.4755    0.0000 C   0  0  0  0  0  0  0  0  0  0  0  0
  -12.7159   -2.5245    0.0000 C   0  0  0  0  0  0  0  0  0  0  0  0
   -7.5197    1.9755    0.0000 C   0  0  0  0  0  0  0  0  0  0  0  0
   -8.8187    2.7255    0.0000 C   0  0  0  0  0  0  0  0  0  0  0  0
  -10.1178    1.9755    0.0000 O   0  0  0  0  0  0  0  0  0  0  0  0
  -11.4168    2.7255    0.0000 C   0  0  0  0  0  0  0  0  0  0  0  0
  -12.7159    1.9755    0.0000 O   0  0  0  0  0  0  0  0  0  0  0  0
  -11.4168    4.2255    0.0000 C   0  0  0  0  0  0  0  0  0  0  0  0
  1  9  1  0  0  0  0
  1 15  1  0  0  0  0
  1 20  1  0  0  0  0
  2 16  2  0  0  0  0
  2 11  1  0  0  0  0
  3 15  2  0  0  0  0
  3 14  1  0  0  0  0
  4 17  2  0  0  0  0
  5 14  1  0  0  0  0
  5 17  1  0  0  0  0
  5  6  1  0  0  0  0
  7 14  2  0  0  0  0
  8 10  2  0  0  0  0
  8  9  1  0  0  0  0
  9 11  2  0  0  0  0
 10 12  1  0  0  0  0
 10 18  1  0  0  0  0
 11 13  1  0  0  0  0
 12 13  2  0  0  0  0
 12 19  1  0  0  0  0
 15 16  1  0  0  0  0
 16 17  1  0  0  0  0
 20 21  1  0  0  0  0
 21 22  1  0  0  0  0
 22 23  1  0  0  0  0
 23 24  2  0  0  0  0
 23 25  1  0  0  0  0
M  END
