11141
 OpenBabel03021519512D

 12 12  0  0  0  0  0  0  0  0999 V2000
   -3.0000   -2.2500    0.0000 C   0  0  0  0  0  0  0  0  0  0  0  0
   -1.5000   -2.2500    0.0000 C   0  0  0  0  0  0  0  0  0  0  0  0
   -0.7500   -0.9510    0.0000 O   0  0  0  0  0  0  0  0  0  0  0  0
   -4.5000   -2.2500    0.0000 C   0  0  0  0  0  0  0  0  0  0  0  0
   -5.2500   -3.5490    0.0000 C   0  0  0  0  0  0  0  0  0  0  0  0
   -6.7500   -3.5491    0.0000 C   0  0  0  0  0  0  0  0  0  0  0  0
   -7.5000   -2.2500    0.0000 C   0  0  0  0  0  0  0  0  0  0  0  0
   -6.7500   -0.9510    0.0000 C   0  0  0  0  0  0  0  0  0  0  0  0
   -5.2500   -0.9510    0.0000 C   0  0  0  0  0  0  0  0  0  0  0  0
   -3.0000   -0.7500    0.0000 C   0  0  0  0  0  0  0  0  0  0  0  0
   -3.0000   -3.7500    0.0000 C   0  0  0  0  0  0  0  0  0  0  0  0
   -0.7500   -3.5490    0.0000 N   0  0  0  0  0  0  0  0  0  0  0  0
  1  2  1  0  0  0  0
  1  4  1  0  0  0  0
  1 10  1  0  0  0  0
  1 11  1  0  0  0  0
  2  3  2  0  0  0  0
  2 12  1  0  0  0  0
  4  5  2  0  0  0  0
  4  9  1  0  0  0  0
  5  6  1  0  0  0  0
  6  7  2  0  0  0  0
  7  8  1  0  0  0  0
  8  9  2  0  0  0  0
M  END
