318799
 OpenBabel03021519512D

 17 18  0  0  1  0  0  0  0  0999 V2000
   -3.3501   -4.1015    0.0000 Cl  0  0  0  0  0  0  0  0  0  0  0  0
   -1.8012   -2.0156    0.0000 C   0  0  3  0  0  0  0  0  0  0  0  0
   -0.5100   -2.7791    0.0000 C   0  0  3  0  0  0  0  0  0  0  0  0
   -1.4741   -0.5517    0.0000 O   0  0  0  0  0  0  0  0  0  0  0  0
   -1.4537    2.2031    0.0000 O   0  0  0  0  0  0  0  0  0  0  0  0
    0.8097    3.4787    0.0000 N   0  0  0  0  0  0  0  0  0  0  0  0
    0.6151   -1.7870    0.0000 C   0  0  3  0  0  0  0  0  0  0  0  0
    0.0463    2.1875    0.0000 C   0  0  0  0  0  0  0  0  0  0  0  0
    0.0192   -0.4104    0.0000 C   0  0  3  0  0  0  0  0  0  0  0  0
    2.3096    3.4631    0.0000 C   0  0  0  0  0  0  0  0  0  0  0  0
    0.7827    0.8808    0.0000 N   0  0  0  0  0  0  0  0  0  0  0  0
    2.2826    0.8652    0.0000 C   0  0  0  0  0  0  0  0  0  0  0  0
    3.0461    2.1563    0.0000 C   0  0  0  0  0  0  0  0  0  0  0  0
   -3.1778   -2.6114    0.0000 C   0  0  0  0  0  0  0  0  0  0  0  0
   -0.3688   -4.2724    0.0000 O   0  0  0  0  0  0  0  0  0  0  0  0
   -0.8488   -1.4599    0.0000 O   0  0  0  0  0  0  0  0  0  0  0  0
    3.0731    4.7543    0.0000 N   0  0  0  0  0  0  0  0  0  0  0  0
  1 14  1  0  0  0  0
  2  4  1  0  0  0  0
  2  3  1  0  0  0  0
  2 14  1  0  0  0  0
  3  7  1  0  0  0  0
  3 15  1  0  0  0  0
  4  9  1  0  0  0  0
  5  8  2  0  0  0  0
  6 10  2  0  0  0  0
  6  8  1  0  0  0  0
  7  9  1  0  0  0  0
  7 16  1  0  0  0  0
  8 11  1  0  0  0  0
  9 11  1  0  0  0  0
 10 13  1  0  0  0  0
 10 17  1  0  0  0  0
 11 12  1  0  0  0  0
 12 13  2  0  0  0  0
M  END
