205913
 OpenBabel03021519512D

 18 19  0  0  0  0  0  0  0  0999 V2000
    3.5164   12.4181    0.0000 O   0  0  0  0  0  0  0  0  0  0  0  0
   -1.8365    6.4263    0.0000 C   0  0  0  0  0  0  0  0  0  0  0  0
   -0.5375    5.6763    0.0000 C   0  0  0  0  0  0  0  0  0  0  0  0
   -3.1356    5.6763    0.0000 C   0  0  0  0  0  0  0  0  0  0  0  0
   -0.5375    4.1763    0.0000 C   0  0  0  0  0  0  0  0  0  0  0  0
   -3.1356    4.1763    0.0000 C   0  0  0  0  0  0  0  0  0  0  0  0
   -1.8365    3.4263    0.0000 C   0  0  0  0  0  0  0  0  0  0  0  0
    4.9836   12.7300    0.0000 C   0  0  0  0  0  0  0  0  0  0  0  0
    5.7336   11.4310    0.0000 C   0  0  0  0  0  0  0  0  0  0  0  0
    4.7299   10.3162    0.0000 C   0  0  0  0  0  0  0  0  0  0  0  0
    3.3596   10.9263    0.0000 C   0  0  0  0  0  0  0  0  0  0  0  0
   -1.8365    1.9263    0.0000 O   0  0  0  0  0  0  0  0  0  0  0  0
    0.7615    6.4263    0.0000 N   0  0  0  0  0  0  0  0  0  0  0  0
    0.7615    7.9263    0.0000 C   0  0  0  0  0  0  0  0  0  0  0  0
   -0.5375    8.6763    0.0000 S   0  0  0  0  0  0  0  0  0  0  0  0
    2.0606    8.6763    0.0000 N   0  0  0  0  0  0  0  0  0  0  0  0
    2.0606   10.1763    0.0000 C   0  0  0  0  0  0  0  0  0  0  0  0
    0.7615   10.9263    0.0000 O   0  0  0  0  0  0  0  0  0  0  0  0
  1  8  1  0  0  0  0
  1 11  1  0  0  0  0
  2  4  2  0  0  0  0
  2  3  1  0  0  0  0
  3  5  2  0  0  0  0
  3 13  1  0  0  0  0
  4  6  1  0  0  0  0
  5  7  1  0  0  0  0
  6  7  2  0  0  0  0
  7 12  1  0  0  0  0
  8  9  2  0  0  0  0
  9 10  1  0  0  0  0
 10 11  2  0  0  0  0
 11 17  1  0  0  0  0
 13 14  1  0  0  0  0
 14 15  2  0  0  0  0
 14 16  1  0  0  0  0
 16 17  1  0  0  0  0
 17 18  2  0  0  0  0
M  END
