142335
 OpenBabel03021519512D

 29 33  0  0  0  0  0  0  0  0999 V2000
  -10.1503   -2.4029    0.0000 N   0  0  0  0  0  0  0  0  0  0  0  0
   -7.2272   -6.4566    0.0000 N   0  0  0  0  0  0  0  0  0  0  0  0
   -5.9282   -4.2066    0.0000 N   0  0  0  0  0  0  0  0  0  0  0  0
   -5.9282   -8.7066    0.0000 Cl  0  0  0  0  0  0  0  0  0  0  0  0
   -4.6291   -6.4566    0.0000 N   0  0  0  0  0  0  0  0  0  0  0  0
   -3.3301   -4.2066    0.0000 O   0  0  0  0  0  0  0  0  0  0  0  0
  -11.9806    1.7080    0.0000 C   0  0  0  0  0  0  0  0  0  0  0  0
  -12.8623    0.4945    0.0000 C   0  0  0  0  0  0  0  0  0  0  0  0
  -10.4888    1.5512    0.0000 C   0  0  0  0  0  0  0  0  0  0  0  0
   -9.8787    0.1809    0.0000 C   0  0  0  0  0  0  0  0  0  0  0  0
  -12.2521   -0.8758    0.0000 C   0  0  0  0  0  0  0  0  0  0  0  0
  -10.7604   -1.0326    0.0000 C   0  0  0  0  0  0  0  0  0  0  0  0
  -12.3675   -4.0139    0.0000 C   0  0  0  0  0  0  0  0  0  0  0  0
  -12.8310   -5.4404    0.0000 C   0  0  0  0  0  0  0  0  0  0  0  0
  -10.9003   -3.7020    0.0000 C   0  0  0  0  0  0  0  0  0  0  0  0
   -9.8966   -4.8167    0.0000 C   0  0  0  0  0  0  0  0  0  0  0  0
  -11.8273   -6.5552    0.0000 C   0  0  0  0  0  0  0  0  0  0  0  0
  -10.3601   -6.2433    0.0000 C   0  0  0  0  0  0  0  0  0  0  0  0
   -8.5262   -4.2066    0.0000 C   0  0  0  0  0  0  0  0  0  0  0  0
   -8.6830   -2.7148    0.0000 C   0  0  0  0  0  0  0  0  0  0  0  0
   -7.2272   -4.9566    0.0000 C   0  0  0  0  0  0  0  0  0  0  0  0
   -4.6291   -1.9566    0.0000 C   0  0  0  0  0  0  0  0  0  0  0  0
   -3.3301   -2.7066    0.0000 C   0  0  0  0  0  0  0  0  0  0  0  0
   -4.6291   -0.4566    0.0000 C   0  0  0  0  0  0  0  0  0  0  0  0
   -3.3301    0.2934    0.0000 C   0  0  0  0  0  0  0  0  0  0  0  0
   -2.0311   -1.9566    0.0000 C   0  0  0  0  0  0  0  0  0  0  0  0
   -2.0311   -0.4566    0.0000 C   0  0  0  0  0  0  0  0  0  0  0  0
   -4.6291   -4.9566    0.0000 C   0  0  0  0  0  0  0  0  0  0  0  0
   -5.9282   -7.2066    0.0000 C   0  0  0  0  0  0  0  0  0  0  0  0
  1 12  1  0  0  0  0
  1 15  1  0  0  0  0
  1 20  1  0  0  0  0
  2 21  2  0  0  0  0
  2 29  1  0  0  0  0
  3 28  2  0  0  0  0
  3 21  1  0  0  0  0
  4 29  1  0  0  0  0
  5 29  2  0  0  0  0
  5 28  1  0  0  0  0
  6 23  1  0  0  0  0
  6 28  1  0  0  0  0
  7  9  2  0  0  0  0
  7  8  1  0  0  0  0
  8 11  2  0  0  0  0
  9 10  1  0  0  0  0
 10 12  2  0  0  0  0
 11 12  1  0  0  0  0
 13 14  2  0  0  0  0
 13 15  1  0  0  0  0
 14 17  1  0  0  0  0
 15 16  2  0  0  0  0
 16 18  1  0  0  0  0
 16 19  1  0  0  0  0
 17 18  2  0  0  0  0
 19 20  2  0  0  0  0
 19 21  1  0  0  0  0
 22 24  2  0  0  0  0
 22 23  1  0  0  0  0
 23 26  2  0  0  0  0
 24 25  1  0  0  0  0
 25 27  2  0  0  0  0
 26 27  1  0  0  0  0
M  END
