371765
 OpenBabel03021519512D

 25 28  0  0  0  0  0  0  0  0999 V2000
    1.2454    6.0223    0.0000 N   0  0  0  0  0  0  0  0  0  0  0  0
    2.1271    7.2358    0.0000 N   0  0  0  0  0  0  0  0  0  0  0  0
    2.1271    4.8088    0.0000 N   0  0  0  0  0  0  0  0  0  0  0  0
    3.5537    6.7723    0.0000 C   0  0  0  0  0  0  0  0  0  0  0  0
    3.5537    5.2723    0.0000 C   0  0  0  0  0  0  0  0  0  0  0  0
    4.7672    7.6540    0.0000 C   0  0  0  0  0  0  0  0  0  0  0  0
    4.6104    9.1458    0.0000 O   0  0  0  0  0  0  0  0  0  0  0  0
    8.7214    7.3154    0.0000 C   0  0  0  0  0  0  0  0  0  0  0  0
    7.3510    7.9255    0.0000 C   0  0  0  0  0  0  0  0  0  0  0  0
    7.1943    9.4173    0.0000 C   0  0  0  0  0  0  0  0  0  0  0  0
    9.9349    8.1971    0.0000 C   0  0  0  0  0  0  0  0  0  0  0  0
    9.7781    9.6889    0.0000 C   0  0  0  0  0  0  0  0  0  0  0  0
    8.4078   10.2990    0.0000 C   0  0  0  0  0  0  0  0  0  0  0  0
   10.7818   10.8036    0.0000 N   0  0  0  0  0  0  0  0  0  0  0  0
    8.5646   11.7908    0.0000 C   0  0  0  0  0  0  0  0  0  0  0  0
   12.2736   10.6468    0.0000 H   0  0  0  0  0  0  0  0  0  0  0  0
   10.0318   12.1027    0.0000 N   0  0  0  0  0  0  0  0  0  0  0  0
   -0.2546    6.0223    0.0000 C   0  0  0  0  0  0  0  0  0  0  0  0
   -1.0046    4.7233    0.0000 C   0  0  0  0  0  0  0  0  0  0  0  0
   -2.5046    4.7233    0.0000 C   0  0  0  0  0  0  0  0  0  0  0  0
   -3.2546    6.0223    0.0000 C   0  0  0  0  0  0  0  0  0  0  0  0
   -2.5046    7.3213    0.0000 C   0  0  0  0  0  0  0  0  0  0  0  0
   -1.0046    7.3213    0.0000 C   0  0  0  0  0  0  0  0  0  0  0  0
    4.7672    4.3906    0.0000 C   0  0  0  0  0  0  0  0  0  0  0  0
    6.1375    7.0439    0.0000 N   0  0  0  0  0  0  0  0  0  0  0  0
  1  2  1  0  0  0  0
  1  3  1  0  0  0  0
  1 18  1  0  0  0  0
  2  4  2  0  0  0  0
  3  5  2  0  0  0  0
  4  6  1  0  0  0  0
  4  5  1  0  0  0  0
  5 24  1  0  0  0  0
  6  7  2  0  0  0  0
  6 25  1  0  0  0  0
  8  9  1  0  0  0  0
  8 11  2  0  0  0  0
  9 10  2  0  0  0  0
  9 25  1  0  0  0  0
 10 13  1  0  0  0  0
 11 12  1  0  0  0  0
 12 13  2  0  0  0  0
 12 14  1  0  0  0  0
 13 15  1  0  0  0  0
 14 17  1  0  0  0  0
 14 16  1  0  0  0  0
 15 17  2  0  0  0  0
 18 19  2  0  0  0  0
 18 23  1  0  0  0  0
 19 20  1  0  0  0  0
 20 21  2  0  0  0  0
 21 22  1  0  0  0  0
 22 23  2  0  0  0  0
M  END
