352890
 OpenBabel03021519512D

 21 22  0  0  1  0  0  0  0  0999 V2000
   -1.8860    4.1856    0.0000 N   0  0  0  0  0  0  0  0  0  0  0  0
   -2.7216    2.9398    0.0000 C   0  0  0  0  0  0  0  0  0  0  0  0
   -2.0606    1.5933    0.0000 N   0  0  0  0  0  0  0  0  0  0  0  0
   -1.3993   -3.1456    0.0000 C   0  0  3  0  0  0  0  0  0  0  0  0
    0.0437   -3.5554    0.0000 C   0  0  3  0  0  0  0  0  0  0  0  0
   -0.3894    4.0848    0.0000 C   0  0  0  0  0  0  0  0  0  0  0  0
   -0.5640    1.4926    0.0000 C   0  0  0  0  0  0  0  0  0  0  0  0
   -1.4554   -1.6467    0.0000 O   0  0  0  0  0  0  0  0  0  0  0  0
    0.2716    2.7383    0.0000 C   0  0  0  0  0  0  0  0  0  0  0  0
   -0.0472   -1.1300    0.0000 C   0  0  3  0  0  0  0  0  0  0  0  0
    0.8793   -2.3097    0.0000 C   0  0  3  0  0  0  0  0  0  0  0  0
    0.3625    0.3129    0.0000 C   0  0  0  0  0  0  0  0  0  0  0  0
    1.7145    2.3285    0.0000 N   0  0  0  0  0  0  0  0  0  0  0  0
    2.8942    3.2550    0.0000 H   0  0  0  0  0  0  0  0  0  0  0  0
    1.7707    0.8296    0.0000 C   0  0  0  0  0  0  0  0  0  0  0  0
   -2.3663   -5.5570    0.0000 O   0  0  0  0  0  0  0  0  0  0  0  0
    0.5604   -4.9636    0.0000 O   0  0  0  0  0  0  0  0  0  0  0  0
    0.4462    5.3305    0.0000 N   0  0  0  0  0  0  0  0  0  0  0  0
   -2.5789   -4.0721    0.0000 C   0  0  0  0  0  0  0  0  0  0  0  0
    2.3782   -2.2535    0.0000 O   0  0  0  0  0  0  0  0  0  0  0  0
    4.1476   -0.4573    0.0000 Cl  0  0  0  0  0  0  0  0  0  0  0  0
  1  6  2  0  0  0  0
  1  2  1  0  0  0  0
  2  3  2  0  0  0  0
  3  7  1  0  0  0  0
  4  8  1  0  0  0  0
  4  5  1  0  0  0  0
  4 19  1  0  0  0  0
  5 11  1  0  0  0  0
  5 17  1  0  0  0  0
  6  9  1  0  0  0  0
  6 18  1  0  0  0  0
  7  9  2  0  0  0  0
  7 12  1  0  0  0  0
  8 10  1  0  0  0  0
  9 13  1  0  0  0  0
 10 11  1  0  0  0  0
 10 12  1  0  0  0  0
 11 20  1  0  0  0  0
 12 15  2  0  0  0  0
 13 14  1  0  0  0  0
 13 15  1  0  0  0  0
 16 19  1  0  0  0  0
M  END
