127133
 OpenBabel03021519512D

 34 38  0  0  0  0  0  0  0  0999 V2000
   -1.0245   -3.2745    0.0000 H   0  0  0  0  0  0  0  0  0  0  0  0
    0.2745   -4.0245    0.0000 N   0  0  0  0  0  0  0  0  0  0  0  0
    1.5736   -1.7745    0.0000 O   0  0  0  0  0  0  0  0  0  0  0  0
    1.5735   -3.2745    0.0000 C   0  0  0  0  0  0  0  0  0  0  0  0
    2.8726   -4.0245    0.0000 C   0  0  0  0  0  0  0  0  0  0  0  0
    4.1716   -3.2745    0.0000 C   0  0  0  0  0  0  0  0  0  0  0  0
    5.4707   -4.0245    0.0000 C   0  0  0  0  0  0  0  0  0  0  0  0
    5.4707   -5.5245    0.0000 C   0  0  0  0  0  0  0  0  0  0  0  0
    2.8726   -5.5245    0.0000 C   0  0  0  0  0  0  0  0  0  0  0  0
    4.1716   -6.2745    0.0000 C   0  0  0  0  0  0  0  0  0  0  0  0
    1.5736   -6.2745    0.0000 C   0  0  0  0  0  0  0  0  0  0  0  0
    0.2745   -5.5245    0.0000 C   0  0  0  0  0  0  0  0  0  0  0  0
   -1.0245   -6.2745    0.0000 C   0  0  0  0  0  0  0  0  0  0  0  0
    1.5736   -7.7745    0.0000 C   0  0  0  0  0  0  0  0  0  0  0  0
   -1.0245   -7.7745    0.0000 C   0  0  0  0  0  0  0  0  0  0  0  0
    0.2745   -8.5245    0.0000 C   0  0  0  0  0  0  0  0  0  0  0  0
   -1.0245  -10.7745    0.0000 C   0  0  0  0  0  0  0  0  0  0  0  0
   -1.0245  -12.2745    0.0000 C   0  0  0  0  0  0  0  0  0  0  0  0
    0.2745  -10.0245    0.0000 C   0  0  0  0  0  0  0  0  0  0  0  0
    0.2745  -13.0245    0.0000 C   0  0  0  0  0  0  0  0  0  0  0  0
   -2.3236  -13.0245    0.0000 C   0  0  0  0  0  0  0  0  0  0  0  0
   -3.6226  -12.2745    0.0000 C   0  0  0  0  0  0  0  0  0  0  0  0
   -4.9216  -13.0245    0.0000 C   0  0  0  0  0  0  0  0  0  0  0  0
   -4.9216  -14.5245    0.0000 C   0  0  0  0  0  0  0  0  0  0  0  0
   -2.3236  -14.5245    0.0000 C   0  0  0  0  0  0  0  0  0  0  0  0
    1.5736  -10.7745    0.0000 C   0  0  0  0  0  0  0  0  0  0  0  0
   -3.6226  -15.2745    0.0000 C   0  0  0  0  0  0  0  0  0  0  0  0
    1.5736  -12.2745    0.0000 C   0  0  0  0  0  0  0  0  0  0  0  0
   -2.3236   -8.5245    0.0000 N   0  0  0  0  0  0  0  0  0  0  0  0
   -2.3236  -10.0245    0.0000 C   0  0  0  0  0  0  0  0  0  0  0  0
   -3.6226  -10.7745    0.0000 O   0  0  0  0  0  0  0  0  0  0  0  0
   -1.0245  -15.2745    0.0000 C   0  0  0  0  0  0  0  0  0  0  0  0
   -1.0245  -16.7745    0.0000 O   0  0  0  0  0  0  0  0  0  0  0  0
    0.2745  -14.5245    0.0000 O   0  0  0  0  0  0  0  0  0  0  0  0
  1  2  1  0  0  0  0
  2  4  1  0  0  0  0
  2 12  1  0  0  0  0
  3  4  2  0  0  0  0
  4  5  1  0  0  0  0
  5  9  2  0  0  0  0
  5  6  1  0  0  0  0
  6  7  2  0  0  0  0
  7  8  1  0  0  0  0
  8 10  2  0  0  0  0
  9 10  1  0  0  0  0
  9 11  1  0  0  0  0
 11 12  2  0  0  0  0
 11 14  1  0  0  0  0
 12 13  1  0  0  0  0
 13 15  2  0  0  0  0
 14 16  2  0  0  0  0
 15 16  1  0  0  0  0
 15 29  1  0  0  0  0
 17 18  2  0  0  0  0
 17 19  1  0  0  0  0
 17 30  1  0  0  0  0
 18 20  1  0  0  0  0
 18 21  1  0  0  0  0
 19 26  2  0  0  0  0
 20 28  2  0  0  0  0
 21 25  2  0  0  0  0
 21 22  1  0  0  0  0
 22 23  2  0  0  0  0
 23 24  1  0  0  0  0
 24 27  2  0  0  0  0
 25 27  1  0  0  0  0
 25 32  1  0  0  0  0
 26 28  1  0  0  0  0
 29 30  1  0  0  0  0
 30 31  2  0  0  0  0
 32 33  2  0  0  0  0
 32 34  1  0  0  0  0
M  END
