324623
 OpenBabel03021519512D

 25 28  0  0  0  0  0  0  0  0999 V2000
   -2.3236   -5.5245    0.0000 C   0  0  0  0  0  0  0  0  0  0  0  0
   -2.3236   -7.0245    0.0000 C   0  0  0  0  0  0  0  0  0  0  0  0
   -2.3235  -10.0245    0.0000 O   0  0  0  0  0  0  0  0  0  0  0  0
   -1.0245   -7.7745    0.0000 N   0  0  0  0  0  0  0  0  0  0  0  0
   -1.0245   -9.2745    0.0000 C   0  0  0  0  0  0  0  0  0  0  0  0
   -1.0245   -4.7745    0.0000 C   0  0  0  0  0  0  0  0  0  0  0  0
   -1.0245  -12.2745    0.0000 C   0  0  0  0  0  0  0  0  0  0  0  0
   -1.0245  -13.7745    0.0000 C   0  0  0  0  0  0  0  0  0  0  0  0
    0.2745  -10.0245    0.0000 C   0  0  0  0  0  0  0  0  0  0  0  0
    0.2745   -7.0245    0.0000 C   0  0  0  0  0  0  0  0  0  0  0  0
    0.2745  -11.5245    0.0000 C   0  0  0  0  0  0  0  0  0  0  0  0
    0.2745   -5.5245    0.0000 C   0  0  0  0  0  0  0  0  0  0  0  0
    0.2745  -14.5245    0.0000 C   0  0  0  0  0  0  0  0  0  0  0  0
    1.5736   -9.2745    0.0000 C   0  0  0  0  0  0  0  0  0  0  0  0
    1.5736   -7.7745    0.0000 C   0  0  0  0  0  0  0  0  0  0  0  0
    1.5736  -12.2745    0.0000 N   0  0  0  0  0  0  0  0  0  0  0  0
    1.5736  -13.7745    0.0000 C   0  0  0  0  0  0  0  0  0  0  0  0
    2.8726   -7.0245    0.0000 C   0  0  0  0  0  0  0  0  0  0  0  0
    4.1716   -7.7745    0.0000 O   0  0  0  0  0  0  0  0  0  0  0  0
    2.8726   -5.5245    0.0000 C   0  0  0  0  0  0  0  0  0  0  0  0
    4.1716   -4.7745    0.0000 C   0  0  0  0  0  0  0  0  0  0  0  0
    1.5736   -4.7745    0.0000 C   0  0  0  0  0  0  0  0  0  0  0  0
    1.5736   -3.2745    0.0000 C   0  0  0  0  0  0  0  0  0  0  0  0
    4.1716   -3.2745    0.0000 N   0  0  0  0  0  0  0  0  0  0  0  0
    2.8726   -2.5245    0.0000 C   0  0  0  0  0  0  0  0  0  0  0  0
  1  6  1  0  0  0  0
  1  2  2  0  0  0  0
  2  4  1  0  0  0  0
  3  5  2  0  0  0  0
  4 10  1  0  0  0  0
  4  5  1  0  0  0  0
  5  9  1  0  0  0  0
  6 12  2  0  0  0  0
  7 11  2  0  0  0  0
  7  8  1  0  0  0  0
  8 13  2  0  0  0  0
  9 14  2  0  0  0  0
  9 11  1  0  0  0  0
 10 12  1  0  0  0  0
 10 15  2  0  0  0  0
 11 16  1  0  0  0  0
 13 17  1  0  0  0  0
 14 15  1  0  0  0  0
 15 18  1  0  0  0  0
 16 17  2  0  0  0  0
 18 20  1  0  0  0  0
 18 19  2  0  0  0  0
 20 22  2  0  0  0  0
 20 21  1  0  0  0  0
 21 24  2  0  0  0  0
 22 23  1  0  0  0  0
 23 25  2  0  0  0  0
 24 25  1  0  0  0  0
M  END
