277184
 OpenBabel03021519512D

 31 32  0  0  0  0  0  0  0  0999 V2000
    8.4402    1.1891    0.0000 C   0  0  0  0  0  0  0  0  0  0  0  0
    6.9484    1.3459    0.0000 C   0  0  0  0  0  0  0  0  0  0  0  0
    8.7521   -0.2781    0.0000 N   0  0  0  0  0  0  0  0  0  0  0  0
    6.3383   -0.0244    0.0000 N   0  0  0  0  0  0  0  0  0  0  0  0
    7.4530   -1.0281    0.0000 C   0  0  0  0  0  0  0  0  0  0  0  0
    8.5098   -3.4015    0.0000 C   0  0  0  0  0  0  0  0  0  0  0  0
    8.5098   -4.9015    0.0000 C   0  0  0  0  0  0  0  0  0  0  0  0
    9.9364   -2.9380    0.0000 C   0  0  0  0  0  0  0  0  0  0  0  0
   10.3999   -1.5114    0.0000 O   0  0  0  0  0  0  0  0  0  0  0  0
   10.8180   -4.1515    0.0000 C   0  0  0  0  0  0  0  0  0  0  0  0
    9.9364   -5.3651    0.0000 C   0  0  0  0  0  0  0  0  0  0  0  0
   12.3098   -4.3083    0.0000 C   0  0  0  0  0  0  0  0  0  0  0  0
   10.5465   -6.7354    0.0000 C   0  0  0  0  0  0  0  0  0  0  0  0
   12.9199   -5.6786    0.0000 C   0  0  0  0  0  0  0  0  0  0  0  0
   12.0383   -6.8922    0.0000 C   0  0  0  0  0  0  0  0  0  0  0  0
   14.4117   -5.8354    0.0000 O   0  0  0  0  0  0  0  0  0  0  0  0
   15.5650   -2.0381    0.0000 N   0  0  0  0  0  0  0  0  0  0  0  0
    6.1984    2.6450    0.0000 N   0  3  0  0  0  0  0  0  0  0  0  0
    6.9484    3.9440    0.0000 O   0  5  0  0  0  0  0  0  0  0  0  0
    4.6984    2.6450    0.0000 O   0  0  0  0  0  0  0  0  0  0  0  0
    4.8711   -0.3363    0.0000 C   0  0  0  0  0  0  0  0  0  0  0  0
    7.2962   -2.5199    0.0000 C   0  0  0  0  0  0  0  0  0  0  0  0
   15.2934   -4.6219    0.0000 C   0  0  0  0  0  0  0  0  0  0  0  0
   14.6833   -3.2516    0.0000 C   0  0  0  0  0  0  0  0  0  0  0  0
   14.9549   -0.6677    0.0000 C   0  0  0  0  0  0  0  0  0  0  0  0
   17.0567   -2.1948    0.0000 C   0  0  0  0  0  0  0  0  0  0  0  0
   13.5069    3.8440    0.0000 S   0  0  0  0  0  0  0  0  0  0  0  0
   14.9987    3.6873    0.0000 O   0  0  0  0  0  0  0  0  0  0  0  0
   13.6637    5.3358    0.0000 O   0  0  0  0  0  0  0  0  0  0  0  0
   12.0151    4.0008    0.0000 O   0  0  0  0  0  0  0  0  0  0  0  0
   13.3501    2.3523    0.0000 O   0  0  0  0  0  0  0  0  0  0  0  0
  1  3  1  0  0  0  0
  1  2  2  0  0  0  0
  2  4  1  0  0  0  0
  2 18  1  0  0  0  0
  3  5  2  0  0  0  0
  4  5  1  0  0  0  0
  4 21  1  0  0  0  0
  5 22  1  0  0  0  0
  6  8  1  0  0  0  0
  6  7  1  0  0  0  0
  6 22  2  0  0  0  0
  7 11  1  0  0  0  0
  8  9  2  0  0  0  0
  8 10  1  0  0  0  0
 10 12  1  0  0  0  0
 10 11  2  0  0  0  0
 11 13  1  0  0  0  0
 12 14  2  0  0  0  0
 13 15  2  0  0  0  0
 14 16  1  0  0  0  0
 14 15  1  0  0  0  0
 16 23  1  0  0  0  0
 17 24  1  0  0  0  0
 17 25  1  0  0  0  0
 17 26  1  0  0  0  0
 18 19  1  0  0  0  0
 18 20  2  0  0  0  0
 23 24  1  0  0  0  0
 27 28  2  0  0  0  0
 27 29  1  0  0  0  0
 27 30  2  0  0  0  0
 27 31  1  0  0  0  0
M  CHG  2  18   1  19  -1
M  END
