163920
 OpenBabel03021519512D

 15 17  0  0  0  0  0  0  0  0999 V2000
   -1.0286   -2.9027    0.0000 N   0  0  0  0  0  0  0  0  0  0  0  0
   -1.9103   -1.6892    0.0000 H   0  0  0  0  0  0  0  0  0  0  0  0
    0.9349   -4.3293    0.0000 N   0  0  0  0  0  0  0  0  0  0  0  0
   -1.4921   -4.3293    0.0000 C   0  0  0  0  0  0  0  0  0  0  0  0
   -0.2786   -5.2109    0.0000 C   0  0  0  0  0  0  0  0  0  0  0  0
   -2.8625   -4.9394    0.0000 C   0  0  0  0  0  0  0  0  0  0  0  0
   -4.0760   -4.0577    0.0000 C   0  0  0  0  0  0  0  0  0  0  0  0
   -5.4463   -4.6678    0.0000 C   0  0  0  0  0  0  0  0  0  0  0  0
   -0.4354   -6.7027    0.0000 C   0  0  0  0  0  0  0  0  0  0  0  0
   -3.0193   -6.4312    0.0000 C   0  0  0  0  0  0  0  0  0  0  0  0
   -5.6031   -6.1596    0.0000 C   0  0  0  0  0  0  0  0  0  0  0  0
   -1.8057   -7.3128    0.0000 C   0  0  0  0  0  0  0  0  0  0  0  0
   -4.3896   -7.0413    0.0000 C   0  0  0  0  0  0  0  0  0  0  0  0
    0.4714   -2.9027    0.0000 C   0  0  0  0  0  0  0  0  0  0  0  0
   -6.6598   -3.7861    0.0000 O   0  0  0  0  0  0  0  0  0  0  0  0
  1 14  1  0  0  0  0
  1  4  1  0  0  0  0
  1  2  1  0  0  0  0
  3 14  2  0  0  0  0
  3  5  1  0  0  0  0
  4  5  2  0  0  0  0
  4  6  1  0  0  0  0
  5  9  1  0  0  0  0
  6 10  2  0  0  0  0
  6  7  1  0  0  0  0
  7  8  2  0  0  0  0
  8 11  1  0  0  0  0
  8 15  1  0  0  0  0
  9 12  2  0  0  0  0
 10 13  1  0  0  0  0
 10 12  1  0  0  0  0
 11 13  2  0  0  0  0
M  END
