375105
 OpenBabel03021519512D

 22 26  0  0  0  0  0  0  0  0999 V2000
   -0.4320    7.6444    0.0000 C   0  0  0  0  0  0  0  0  0  0  0  0
   -1.3137    6.4309    0.0000 C   0  0  0  0  0  0  0  0  0  0  0  0
    1.0598    7.4876    0.0000 C   0  0  0  0  0  0  0  0  0  0  0  0
   -0.7036    5.0606    0.0000 C   0  0  0  0  0  0  0  0  0  0  0  0
    1.6699    6.1173    0.0000 C   0  0  0  0  0  0  0  0  0  0  0  0
    0.7882    4.9038    0.0000 C   0  0  0  0  0  0  0  0  0  0  0  0
    1.6699    3.6903    0.0000 N   0  0  0  0  0  0  0  0  0  0  0  0
    3.0965    5.6538    0.0000 C   0  0  0  0  0  0  0  0  0  0  0  0
    3.0965    4.1538    0.0000 C   0  0  0  0  0  0  0  0  0  0  0  0
    4.3955    7.9038    0.0000 N   0  0  0  0  0  0  0  0  0  0  0  0
    4.3955    3.4038    0.0000 C   0  0  0  0  0  0  0  0  0  0  0  0
    4.3955    6.4038    0.0000 C   0  0  0  0  0  0  0  0  0  0  0  0
    5.6946    5.6538    0.0000 C   0  0  0  0  0  0  0  0  0  0  0  0
    5.6945    8.6538    0.0000 C   0  0  0  0  0  0  0  0  0  0  0  0
    5.6946    4.1538    0.0000 C   0  0  0  0  0  0  0  0  0  0  0  0
    6.9936    6.4038    0.0000 N   0  0  0  0  0  0  0  0  0  0  0  0
    6.9936    7.9038    0.0000 C   0  0  0  0  0  0  0  0  0  0  0  0
    8.4202    8.3673    0.0000 C   0  0  0  0  0  0  0  0  0  0  0  0
    8.4202    5.9403    0.0000 C   0  0  0  0  0  0  0  0  0  0  0  0
    9.3019    7.1538    0.0000 C   0  0  0  0  0  0  0  0  0  0  0  0
    1.2064    2.2637    0.0000 C   0  0  0  0  0  0  0  0  0  0  0  0
   -0.2609    1.9518    0.0000 C   0  0  0  0  0  0  0  0  0  0  0  0
  1  3  2  0  0  0  0
  1  2  1  0  0  0  0
  2  4  2  0  0  0  0
  3  5  1  0  0  0  0
  4  6  1  0  0  0  0
  5  8  1  0  0  0  0
  5  6  2  0  0  0  0
  6  7  1  0  0  0  0
  7  9  1  0  0  0  0
  7 21  1  0  0  0  0
  8 12  2  0  0  0  0
  8  9  1  0  0  0  0
  9 11  2  0  0  0  0
 10 14  2  0  0  0  0
 10 12  1  0  0  0  0
 11 15  1  0  0  0  0
 12 13  1  0  0  0  0
 13 16  1  0  0  0  0
 13 15  2  0  0  0  0
 14 17  1  0  0  0  0
 16 17  1  0  0  0  0
 16 19  1  0  0  0  0
 17 18  2  0  0  0  0
 18 20  1  0  0  0  0
 19 20  2  0  0  0  0
 21 22  1  0  0  0  0
M  END
