19125
 OpenBabel03021519512D

 19 21  0  0  0  0  0  0  0  0999 V2000
    1.0245   -0.2745    0.0000 Cl  0  0  0  0  0  0  0  0  0  0  0  0
    2.3236   -2.5245    0.0000 N   0  0  0  0  0  0  0  0  0  0  0  0
    3.6226   -0.2745    0.0000 N   0  0  0  0  0  0  0  0  0  0  0  0
    6.3482   -0.5610    0.0000 N   0  0  0  0  0  0  0  0  0  0  0  0
    7.2299   -1.7745    0.0000 N   0  0  0  0  0  0  0  0  0  0  0  0
    2.3236   -1.0245    0.0000 C   0  0  0  0  0  0  0  0  0  0  0  0
    4.9216   -1.0245    0.0000 C   0  0  0  0  0  0  0  0  0  0  0  0
    4.9216   -2.5245    0.0000 C   0  0  0  0  0  0  0  0  0  0  0  0
    3.6226   -3.2745    0.0000 C   0  0  0  0  0  0  0  0  0  0  0  0
    6.3482   -2.9880    0.0000 C   0  0  0  0  0  0  0  0  0  0  0  0
    4.9217   -5.5245    0.0000 C   0  0  0  0  0  0  0  0  0  0  0  0
    6.2207   -4.7745    0.0000 C   0  0  0  0  0  0  0  0  0  0  0  0
    4.9217   -7.0245    0.0000 C   0  0  0  0  0  0  0  0  0  0  0  0
    7.5197   -5.5245    0.0000 C   0  0  0  0  0  0  0  0  0  0  0  0
    6.2207   -7.7745    0.0000 C   0  0  0  0  0  0  0  0  0  0  0  0
    7.5197   -7.0245    0.0000 C   0  0  0  0  0  0  0  0  0  0  0  0
    3.6226   -4.7745    0.0000 N   0  0  0  0  0  0  0  0  0  0  0  0
    8.8188   -7.7745    0.0000 O   0  0  0  0  0  0  0  0  0  0  0  0
    6.8117    0.8656    0.0000 C   0  0  0  0  0  0  0  0  0  0  0  0
  1  6  1  0  0  0  0
  2  9  2  0  0  0  0
  2  6  1  0  0  0  0
  3  6  2  0  0  0  0
  3  7  1  0  0  0  0
  4  5  1  0  0  0  0
  4  7  1  0  0  0  0
  4 19  1  0  0  0  0
  5 10  2  0  0  0  0
  7  8  2  0  0  0  0
  8  9  1  0  0  0  0
  8 10  1  0  0  0  0
  9 17  1  0  0  0  0
 11 12  2  0  0  0  0
 11 13  1  0  0  0  0
 11 17  1  0  0  0  0
 12 14  1  0  0  0  0
 13 15  2  0  0  0  0
 14 16  2  0  0  0  0
 15 16  1  0  0  0  0
 16 18  1  0  0  0  0
M  END
