58904
 OpenBabel03021519512D

 33 35  0  0  1  0  0  0  0  0999 V2000
   10.7745   -1.0245    0.0000 C   0  0  0  0  0  0  0  0  0  0  0  0
   11.5245   -2.3235    0.0000 N   0  0  0  0  0  0  0  0  0  0  0  0
    7.0245    0.2745    0.0000 O   0  0  0  0  0  0  0  0  0  0  0  0
   13.0017    0.0141    0.0000 O   0  0  0  0  0  0  0  0  0  0  0  0
    8.5245    0.2746    0.0000 C   0  0  0  0  0  0  0  0  0  0  0  0
   10.7745   -3.6226    0.0000 H   0  0  0  0  0  0  0  0  0  0  0  0
   13.7517    1.3131    0.0000 C   0  0  0  0  0  0  0  0  0  0  0  0
   13.0017    2.6122    0.0000 O   0  0  0  0  0  0  0  0  0  0  0  0
    8.5245    2.8726    0.0000 O   0  0  0  0  0  0  0  0  0  0  0  0
    7.0245    2.8726    0.0000 C   0  0  0  0  0  0  0  0  0  0  0  0
    6.2745    1.5736    0.0000 O   0  0  0  0  0  0  0  0  0  0  0  0
    6.0495   -2.3235    0.0000 C   0  0  0  0  0  0  0  0  0  0  0  0
    6.7995   -1.0245    0.0000 C   0  0  0  0  0  0  0  0  0  0  0  0
    8.2995   -1.0245    0.0000 C   0  0  0  0  0  0  0  0  0  0  0  0
    9.0495   -2.3235    0.0000 C   0  0  0  0  0  0  0  0  0  0  0  0
    8.2995   -3.6226    0.0000 C   0  0  0  0  0  0  0  0  0  0  0  0
    6.7995   -3.6226    0.0000 C   0  0  0  0  0  0  0  0  0  0  0  0
    8.5245   -2.3235    0.0000 C   0  0  0  0  0  0  0  0  0  0  0  0
    9.2745   -1.0245    0.0000 C   0  0  3  0  0  0  0  0  0  0  0  0
   11.5245    0.2746    0.0000 N   0  0  0  0  0  0  0  0  0  0  0  0
    9.2745    1.5736    0.0000 N   0  0  0  0  0  0  0  0  0  0  0  0
   15.2517    1.3131    0.0000 C   0  0  0  0  0  0  0  0  0  0  0  0
   16.0017    2.6122    0.0000 C   0  0  0  0  0  0  0  0  0  0  0  0
   17.5017    2.6122    0.0000 C   0  0  0  0  0  0  0  0  0  0  0  0
   18.2517    1.3132    0.0000 C   0  0  0  0  0  0  0  0  0  0  0  0
   17.5017    0.0141    0.0000 C   0  0  0  0  0  0  0  0  0  0  0  0
   16.0017    0.0141    0.0000 C   0  0  0  0  0  0  0  0  0  0  0  0
    6.2745    4.1717    0.0000 C   0  0  0  0  0  0  0  0  0  0  0  0
    4.7745    4.1717    0.0000 C   0  0  0  0  0  0  0  0  0  0  0  0
    4.0245    5.4707    0.0000 C   0  0  0  0  0  0  0  0  0  0  0  0
    4.7745    6.7697    0.0000 C   0  0  0  0  0  0  0  0  0  0  0  0
    6.2745    6.7697    0.0000 C   0  0  0  0  0  0  0  0  0  0  0  0
    7.0245    5.4707    0.0000 C   0  0  0  0  0  0  0  0  0  0  0  0
  1  2  2  0  0  0  0
  1 19  1  0  0  0  0
  1 20  1  0  0  0  0
  2  6  1  0  0  0  0
  3  5  2  0  0  0  0
  4  7  1  0  0  0  0
  4 20  1  0  0  0  0
  5 19  1  0  0  0  0
  5 21  1  0  0  0  0
  7  8  2  0  0  0  0
  7 22  1  0  0  0  0
  9 10  1  0  0  0  0
  9 21  1  0  0  0  0
 10 11  2  0  0  0  0
 10 28  1  0  0  0  0
 12 13  2  0  0  0  0
 12 17  1  0  0  0  0
 12 18  1  0  0  0  0
 13 14  1  0  0  0  0
 14 15  2  0  0  0  0
 15 16  1  0  0  0  0
 16 17  2  0  0  0  0
 18 19  1  0  0  0  0
 22 23  2  0  0  0  0
 22 27  1  0  0  0  0
 23 24  1  0  0  0  0
 24 25  2  0  0  0  0
 25 26  1  0  0  0  0
 26 27  2  0  0  0  0
 28 29  2  0  0  0  0
 28 33  1  0  0  0  0
 29 30  1  0  0  0  0
 30 31  2  0  0  0  0
 31 32  1  0  0  0  0
 32 33  2  0  0  0  0
M  END
