97920
 OpenBabel03021519512D

 30 36  0  0  1  0  0  0  0  0999 V2000
   -0.7500   -4.6471    0.0000 C   0  0  0  0  0  0  0  0  0  0  0  0
   -1.5000   -5.9462    0.0000 C   0  0  0  0  0  0  0  0  0  0  0  0
   -1.5000   -3.3481    0.0000 C   0  0  0  0  0  0  0  0  0  0  0  0
   -0.7500   -2.0490    0.0000 C   0  0  0  0  0  0  0  0  0  0  0  0
   -1.5000   -0.7500    0.0000 C   0  0  0  0  0  0  0  0  0  0  0  0
   -3.0000   -5.9462    0.0000 C   0  0  0  0  0  0  0  0  0  0  0  0
   -3.0000   -3.3481    0.0000 C   0  0  0  0  0  0  0  0  0  0  0  0
   -3.0000   -0.7500    0.0000 C   0  0  0  0  0  0  0  0  0  0  0  0
   -3.7500   -4.6471    0.0000 C   0  0  0  0  0  0  0  0  0  0  0  0
   -3.7500   -2.0490    0.0000 C   0  0  0  0  0  0  0  0  0  0  0  0
   -6.0000   -3.3481    0.0000 C   0  0  3  0  0  0  0  0  0  0  0  0
   -6.7500   -2.0491    0.0000 C   0  0  0  0  0  0  0  0  0  0  0  0
   -6.7500   -4.6471    0.0000 C   0  0  0  0  0  0  0  0  0  0  0  0
   -8.2500   -4.6471    0.0000 C   0  0  0  0  0  0  0  0  0  0  0  0
   -8.2500   -2.0491    0.0000 C   0  0  0  0  0  0  0  0  0  0  0  0
   -9.0000   -3.3481    0.0000 C   0  0  3  0  0  0  0  0  0  0  0  0
  -11.2500   -4.6471    0.0000 C   0  0  0  0  0  0  0  0  0  0  0  0
  -12.0000   -3.3481    0.0000 C   0  0  0  0  0  0  0  0  0  0  0  0
  -12.0000   -5.9462    0.0000 C   0  0  0  0  0  0  0  0  0  0  0  0
  -11.2500   -2.0491    0.0000 C   0  0  0  0  0  0  0  0  0  0  0  0
  -12.0000   -0.7500    0.0000 C   0  0  0  0  0  0  0  0  0  0  0  0
  -13.5000   -5.9462    0.0000 C   0  0  0  0  0  0  0  0  0  0  0  0
  -13.5000   -3.3481    0.0000 C   0  0  0  0  0  0  0  0  0  0  0  0
  -13.5000   -0.7500    0.0000 C   0  0  0  0  0  0  0  0  0  0  0  0
  -14.2500   -4.6472    0.0000 C   0  0  0  0  0  0  0  0  0  0  0  0
  -14.2500   -2.0491    0.0000 C   0  0  0  0  0  0  0  0  0  0  0  0
   -5.2500   -2.0490    0.0000 N   0  0  0  0  0  0  0  0  0  0  0  0
   -5.2500   -4.6471    0.0000 N   0  0  0  0  0  0  0  0  0  0  0  0
   -9.7500   -2.0491    0.0000 N   0  0  0  0  0  0  0  0  0  0  0  0
   -9.7500   -4.6471    0.0000 N   0  0  0  0  0  0  0  0  0  0  0  0
  1  2  2  0  0  0  0
  1  3  1  0  0  0  0
  2  6  1  0  0  0  0
  3  4  2  0  0  0  0
  3  7  1  0  0  0  0
  4  5  1  0  0  0  0
  5  8  2  0  0  0  0
  6  9  2  0  0  0  0
  7 10  2  0  0  0  0
  7  9  1  0  0  0  0
  8 10  1  0  0  0  0
  9 28  1  0  0  0  0
 10 27  1  0  0  0  0
 11 12  1  0  0  0  0
 11 13  1  0  0  0  0
 11 27  1  0  0  0  0
 11 28  1  0  0  0  0
 12 15  1  0  0  0  0
 13 14  1  0  0  0  0
 14 16  1  0  0  0  0
 15 16  1  0  0  0  0
 16 29  1  0  0  0  0
 16 30  1  0  0  0  0
 17 18  2  0  0  0  0
 17 19  1  0  0  0  0
 17 30  1  0  0  0  0
 18 20  1  0  0  0  0
 18 23  1  0  0  0  0
 19 22  2  0  0  0  0
 20 21  2  0  0  0  0
 20 29  1  0  0  0  0
 21 24  1  0  0  0  0
 22 25  1  0  0  0  0
 23 25  2  0  0  0  0
 23 26  1  0  0  0  0
 24 26  2  0  0  0  0
M  END
