68657
 OpenBabel03021519512D

 14 15  0  0  1  0  0  0  0  0999 V2000
   -5.5209   -5.7008    0.0000 N   0  0  0  0  0  0  0  0  0  0  0  0
   -1.5525   -3.3109    0.0000 N   0  0  0  0  0  0  0  0  0  0  0  0
   -1.5525   -1.8109    0.0000 H   0  0  0  0  0  0  0  0  0  0  0  0
    1.0455   -3.3109    0.0000 O   0  0  0  0  0  0  0  0  0  0  0  0
   -0.2535   -4.0609    0.0000 C   0  0  0  0  0  0  0  0  0  0  0  0
   -0.2535   -5.5609    0.0000 C   0  0  0  0  0  0  0  0  0  0  0  0
   -1.5525   -6.3109    0.0000 C   0  0  0  0  0  0  0  0  0  0  0  0
   -2.8516   -5.5609    0.0000 C   0  0  0  0  0  0  0  0  0  0  0  0
   -2.8516   -4.0609    0.0000 C   0  0  0  0  0  0  0  0  0  0  0  0
   -4.1506   -6.3109    0.0000 C   0  0  3  0  0  0  0  0  0  0  0  0
   -4.3074   -7.8027    0.0000 C   0  0  0  0  0  0  0  0  0  0  0  0
   -5.7746   -8.1146    0.0000 C   0  0  0  0  0  0  0  0  0  0  0  0
   -6.5246   -6.8155    0.0000 C   0  0  0  0  0  0  0  0  0  0  0  0
   -5.8328   -4.2336    0.0000 C   0  0  0  0  0  0  0  0  0  0  0  0
  1 10  1  0  0  0  0
  1 13  1  0  0  0  0
  1 14  1  0  0  0  0
  2  5  1  0  0  0  0
  2  9  1  0  0  0  0
  2  3  1  0  0  0  0
  4  5  2  0  0  0  0
  5  6  1  0  0  0  0
  6  7  2  0  0  0  0
  7  8  1  0  0  0  0
  8  9  2  0  0  0  0
  8 10  1  0  0  0  0
 10 11  1  0  0  0  0
 11 12  1  0  0  0  0
 12 13  1  0  0  0  0
M  END
