128606
 OpenBabel03021519512D

 33 37  0  0  0  0  0  0  0  0999 V2000
   -9.4683    4.6004    0.0000 O   0  0  0  0  0  0  0  0  0  0  0  0
   -8.1692    2.3504    0.0000 O   0  0  0  0  0  0  0  0  0  0  0  0
   -9.4683    3.1004    0.0000 C   0  0  0  0  0  0  0  0  0  0  0  0
  -10.7673    2.3504    0.0000 C   0  0  0  0  0  0  0  0  0  0  0  0
  -12.0663    3.1004    0.0000 C   0  0  0  0  0  0  0  0  0  0  0  0
  -13.3654    2.3504    0.0000 C   0  0  0  0  0  0  0  0  0  0  0  0
  -10.7673    0.8504    0.0000 C   0  0  0  0  0  0  0  0  0  0  0  0
  -13.3654    0.8504    0.0000 C   0  0  0  0  0  0  0  0  0  0  0  0
   -9.4683    0.1004    0.0000 C   0  0  0  0  0  0  0  0  0  0  0  0
   -8.1692    0.8504    0.0000 C   0  0  0  0  0  0  0  0  0  0  0  0
   -6.8702    0.1004    0.0000 C   0  0  0  0  0  0  0  0  0  0  0  0
  -12.0663    0.1004    0.0000 C   0  0  0  0  0  0  0  0  0  0  0  0
   -6.8702   -1.3996    0.0000 C   0  0  0  0  0  0  0  0  0  0  0  0
   -9.4683   -1.3996    0.0000 C   0  0  0  0  0  0  0  0  0  0  0  0
   -8.1692   -2.1496    0.0000 C   0  0  0  0  0  0  0  0  0  0  0  0
   -5.5711   -3.6496    0.0000 C   0  0  0  0  0  0  0  0  0  0  0  0
   -4.2721   -4.3995    0.0000 C   0  0  0  0  0  0  0  0  0  0  0  0
   -5.5712   -2.1495    0.0000 C   0  0  0  0  0  0  0  0  0  0  0  0
   -4.2721   -5.8995    0.0000 C   0  0  0  0  0  0  0  0  0  0  0  0
   -5.5711   -6.6496    0.0000 C   0  0  0  0  0  0  0  0  0  0  0  0
   -5.5711   -8.1496    0.0000 C   0  0  0  0  0  0  0  0  0  0  0  0
   -4.2721   -8.8995    0.0000 C   0  0  0  0  0  0  0  0  0  0  0  0
   -2.9730   -6.6495    0.0000 C   0  0  0  0  0  0  0  0  0  0  0  0
   -2.9731   -3.6495    0.0000 C   0  0  0  0  0  0  0  0  0  0  0  0
   -4.2721   -1.3995    0.0000 C   0  0  0  0  0  0  0  0  0  0  0  0
   -2.9730   -8.1495    0.0000 C   0  0  0  0  0  0  0  0  0  0  0  0
   -2.9731   -2.1495    0.0000 C   0  0  0  0  0  0  0  0  0  0  0  0
   -8.1692   -3.6496    0.0000 N   0  0  0  0  0  0  0  0  0  0  0  0
   -6.8702   -4.3996    0.0000 C   0  0  0  0  0  0  0  0  0  0  0  0
   -6.8702   -5.8996    0.0000 O   0  0  0  0  0  0  0  0  0  0  0  0
   -1.6740   -5.8995    0.0000 C   0  0  0  0  0  0  0  0  0  0  0  0
   -0.3750   -6.6495    0.0000 O   0  0  0  0  0  0  0  0  0  0  0  0
   -1.6740   -4.3995    0.0000 O   0  0  0  0  0  0  0  0  0  0  0  0
  1  3  2  0  0  0  0
  2  3  1  0  0  0  0
  2 10  1  0  0  0  0
  3  4  1  0  0  0  0
  4  7  2  0  0  0  0
  4  5  1  0  0  0  0
  5  6  2  0  0  0  0
  6  8  1  0  0  0  0
  7  9  1  0  0  0  0
  7 12  1  0  0  0  0
  8 12  2  0  0  0  0
  9 10  2  0  0  0  0
  9 14  1  0  0  0  0
 10 11  1  0  0  0  0
 11 13  2  0  0  0  0
 13 15  1  0  0  0  0
 14 15  2  0  0  0  0
 15 28  1  0  0  0  0
 16 17  2  0  0  0  0
 16 18  1  0  0  0  0
 16 29  1  0  0  0  0
 17 19  1  0  0  0  0
 17 24  1  0  0  0  0
 18 25  2  0  0  0  0
 19 23  2  0  0  0  0
 19 20  1  0  0  0  0
 20 21  2  0  0  0  0
 21 22  1  0  0  0  0
 22 26  2  0  0  0  0
 23 26  1  0  0  0  0
 23 31  1  0  0  0  0
 24 27  2  0  0  0  0
 25 27  1  0  0  0  0
 28 29  1  0  0  0  0
 29 30  2  0  0  0  0
 31 32  2  0  0  0  0
 31 33  1  0  0  0  0
M  END
