637578
 OpenBabel03021519512D

 25 28  0  0  0  0  0  0  0  0999 V2000
    0.7500   -3.7500    0.0000 C   0  0  0  0  0  0  0  0  0  0  0  0
    2.0490   -3.0000    0.0000 C   0  0  0  0  0  0  0  0  0  0  0  0
    3.3481   -3.7500    0.0000 C   0  0  0  0  0  0  0  0  0  0  0  0
    4.6471   -3.0000    0.0000 C   0  0  0  0  0  0  0  0  0  0  0  0
    5.9462   -3.7500    0.0000 C   0  0  0  0  0  0  0  0  0  0  0  0
    5.9462   -5.2500    0.0000 N   0  0  0  0  0  0  0  0  0  0  0  0
    4.6471   -6.0000    0.0000 C   0  0  0  0  0  0  0  0  0  0  0  0
    3.3481   -5.2500    0.0000 C   0  0  0  0  0  0  0  0  0  0  0  0
    2.0491   -6.0000    0.0000 C   0  0  0  0  0  0  0  0  0  0  0  0
    0.7500   -5.2500    0.0000 C   0  0  0  0  0  0  0  0  0  0  0  0
    7.2452   -3.0000    0.0000 C   0  0  0  0  0  0  0  0  0  0  0  0
    7.2452   -1.5000    0.0000 C   0  0  0  0  0  0  0  0  0  0  0  0
    8.5442   -0.7500    0.0000 C   0  0  0  0  0  0  0  0  0  0  0  0
    9.8433   -1.5000    0.0000 C   0  0  0  0  0  0  0  0  0  0  0  0
    9.8433   -3.0000    0.0000 C   0  0  0  0  0  0  0  0  0  0  0  0
    8.5442   -3.7500    0.0000 N   0  0  0  0  0  0  0  0  0  0  0  0
    4.6471   -7.5000    0.0000 N   0  0  0  0  0  0  0  0  0  0  0  0
    5.9462   -8.2500    0.0000 C   0  0  0  0  0  0  0  0  0  0  0  0
    7.2452   -7.5000    0.0000 N   0  0  0  0  0  0  0  0  0  0  0  0
    5.9462   -9.7500    0.0000 C   0  0  0  0  0  0  0  0  0  0  0  0
    4.6472  -10.5000    0.0000 C   0  0  0  0  0  0  0  0  0  0  0  0
    4.6472  -12.0000    0.0000 C   0  0  0  0  0  0  0  0  0  0  0  0
    5.9462  -12.7500    0.0000 C   0  0  0  0  0  0  0  0  0  0  0  0
    7.2452  -12.0000    0.0000 C   0  0  0  0  0  0  0  0  0  0  0  0
    7.2452  -10.5000    0.0000 N   0  0  0  0  0  0  0  0  0  0  0  0
  1  2  1  0  0  0  0
  1 10  2  0  0  0  0
  2  3  2  0  0  0  0
  3  4  1  0  0  0  0
  3  8  1  0  0  0  0
  4  5  2  0  0  0  0
  5  6  1  0  0  0  0
  5 11  1  0  0  0  0
  6  7  2  0  0  0  0
  7  8  1  0  0  0  0
  7 17  1  0  0  0  0
  8  9  2  0  0  0  0
  9 10  1  0  0  0  0
 11 12  2  0  0  0  0
 11 16  1  0  0  0  0
 12 13  1  0  0  0  0
 13 14  2  0  0  0  0
 14 15  1  0  0  0  0
 15 16  2  0  0  0  0
 17 18  1  0  0  0  0
 18 19  2  0  0  0  0
 18 20  1  0  0  0  0
 20 21  2  0  0  0  0
 20 25  1  0  0  0  0
 21 22  1  0  0  0  0
 22 23  2  0  0  0  0
 23 24  1  0  0  0  0
 24 25  2  0  0  0  0
M  END
