382059
 OpenBabel03021519512D

 15 17  0  0  1  0  0  0  0  0999 V2000
    1.4574    1.0242    0.0000 C   0  0  0  0  0  0  0  0  0  0  0  0
    2.3390    2.2378    0.0000 S   0  0  0  0  0  0  0  0  0  0  0  0
    2.3390   -0.1893    0.0000 N   0  0  0  0  0  0  0  0  0  0  0  0
    3.7656    1.7742    0.0000 C   0  0  0  0  0  0  0  0  0  0  0  0
    3.7656    0.2742    0.0000 C   0  0  0  0  0  0  0  0  0  0  0  0
    5.0647   -0.4758    0.0000 C   0  0  3  0  0  0  0  0  0  0  0  0
    5.0647    2.5242    0.0000 C   0  0  0  0  0  0  0  0  0  0  0  0
    6.3637    1.7742    0.0000 C   0  0  0  0  0  0  0  0  0  0  0  0
    5.3765   -1.9430    0.0000 C   0  0  0  0  0  0  0  0  0  0  0  0
    6.3637    0.2742    0.0000 C   0  0  0  0  0  0  0  0  0  0  0  0
    6.8683   -2.0998    0.0000 C   0  0  0  0  0  0  0  0  0  0  0  0
    7.4784   -0.7295    0.0000 N   0  0  0  0  0  0  0  0  0  0  0  0
    7.6183   -3.3988    0.0000 O   0  0  0  0  0  0  0  0  0  0  0  0
    3.8512   -1.3574    0.0000 C   0  0  0  0  0  0  0  0  0  0  0  0
    8.9457   -0.4176    0.0000 C   0  0  0  0  0  0  0  0  0  0  0  0
  1  2  1  0  0  0  0
  1  3  2  0  0  0  0
  2  4  1  0  0  0  0
  3  5  1  0  0  0  0
  4  7  1  0  0  0  0
  4  5  2  0  0  0  0
  5  6  1  0  0  0  0
  6 10  1  0  0  0  0
  6  9  1  0  0  0  0
  6 14  1  0  0  0  0
  7  8  1  0  0  0  0
  8 10  2  0  0  0  0
  9 11  1  0  0  0  0
 10 12  1  0  0  0  0
 11 12  1  0  0  0  0
 11 13  2  0  0  0  0
 12 15  1  0  0  0  0
M  END
