107677
 OpenBabel03021519512D

 30 31  0  0  1  0  0  0  0  0999 V2000
    1.8872   -8.4515    0.0000 N   0  0  0  0  0  0  0  0  0  0  0  0
    0.5882   -6.2015    0.0000 C   0  0  0  0  0  0  0  0  0  0  0  0
   -0.7108   -6.9515    0.0000 C   0  0  0  0  0  0  0  0  0  0  0  0
    1.8872   -6.9515    0.0000 C   0  0  0  0  0  0  0  0  0  0  0  0
   -0.7108   -8.4515    0.0000 C   0  0  0  0  0  0  0  0  0  0  0  0
    0.5882   -9.2015    0.0000 C   0  0  0  0  0  0  0  0  0  0  0  0
    1.8872  -11.4515    0.0000 C   0  0  0  0  0  0  0  0  0  0  0  0
    2.0440  -12.9433    0.0000 C   0  0  0  0  0  0  0  0  0  0  0  0
    3.2575  -10.8414    0.0000 C   0  0  0  0  0  0  0  0  0  0  0  0
    1.0403  -14.0580    0.0000 C   0  0  0  0  0  0  0  0  0  0  0  0
    1.5038  -15.4846    0.0000 C   0  0  0  0  0  0  0  0  0  0  0  0
    4.2612  -11.9561    0.0000 C   0  0  0  0  0  0  0  0  0  0  0  0
    3.5112  -13.2552    0.0000 C   0  0  0  0  0  0  0  0  0  0  0  0
    2.9711  -15.7965    0.0000 C   0  0  0  0  0  0  0  0  0  0  0  0
    3.9748  -14.6818    0.0000 C   0  0  0  0  0  0  0  0  0  0  0  0
    7.3798  -11.1586    0.0000 C   0  0  0  0  0  0  0  0  0  0  0  0
    8.8063  -10.6951    0.0000 C   0  0  0  0  0  0  0  0  0  0  0  0
    9.1182   -9.2278    0.0000 O   0  0  0  0  0  0  0  0  0  0  0  0
    9.9211  -11.6987    0.0000 O   0  0  0  0  0  0  0  0  0  0  0  0
    7.0679  -12.6258    0.0000 C   0  0  0  0  0  0  0  0  0  0  0  0
    8.1826  -13.6295    0.0000 C   0  0  0  0  0  0  0  0  0  0  0  0
    7.8707  -15.0967    0.0000 O   0  0  0  0  0  0  0  0  0  0  0  0
    9.6092  -13.1660    0.0000 O   0  0  0  0  0  0  0  0  0  0  0  0
    0.5882  -10.7015    0.0000 C   0  0  3  0  0  0  0  0  0  0  0  0
   -0.7109  -11.4515    0.0000 C   0  0  0  0  0  0  0  0  0  0  0  0
    3.5694   -9.3742    0.0000 C   0  0  0  0  0  0  0  0  0  0  0  0
    4.9960   -8.9107    0.0000 C   0  0  0  0  0  0  0  0  0  0  0  0
    5.3079   -7.4434    0.0000 N   0  0  0  0  0  0  0  0  0  0  0  0
    6.7344   -6.9799    0.0000 C   0  0  0  0  0  0  0  0  0  0  0  0
    4.1931   -6.4397    0.0000 C   0  0  0  0  0  0  0  0  0  0  0  0
  1  6  2  0  0  0  0
  1  4  1  0  0  0  0
  2  4  2  0  0  0  0
  2  3  1  0  0  0  0
  3  5  2  0  0  0  0
  5  6  1  0  0  0  0
  6 24  1  0  0  0  0
  7  9  2  0  0  0  0
  7  8  1  0  0  0  0
  7 24  1  0  0  0  0
  8 13  2  0  0  0  0
  8 10  1  0  0  0  0
  9 12  1  0  0  0  0
  9 26  1  0  0  0  0
 10 11  2  0  0  0  0
 11 14  1  0  0  0  0
 12 13  1  0  0  0  0
 13 15  1  0  0  0  0
 14 15  2  0  0  0  0
 16 17  1  0  0  0  0
 16 20  2  0  0  0  0
 17 18  2  0  0  0  0
 17 19  1  0  0  0  0
 20 21  1  0  0  0  0
 21 22  2  0  0  0  0
 21 23  1  0  0  0  0
 24 25  1  0  0  0  0
 26 27  1  0  0  0  0
 27 28  1  0  0  0  0
 28 29  1  0  0  0  0
 28 30  1  0  0  0  0
M  END
