42846
 OpenBabel03021519512D

 16 18  0  0  0  0  0  0  0  0999 V2000
   -3.5726   -4.4287    0.0000 N   0  0  0  0  0  0  0  0  0  0  0  0
   -3.5725   -7.4287    0.0000 N   0  0  0  0  0  0  0  0  0  0  0  0
   -0.9745   -4.4287    0.0000 N   0  0  0  0  0  0  0  0  0  0  0  0
   -0.8177   -2.9369    0.0000 C   0  0  0  0  0  0  0  0  0  0  0  0
    0.6495   -2.6250    0.0000 C   0  0  0  0  0  0  0  0  0  0  0  0
    1.3995   -3.9240    0.0000 C   0  0  0  0  0  0  0  0  0  0  0  0
    0.3958   -5.0388    0.0000 C   0  0  0  0  0  0  0  0  0  0  0  0
   -6.1706   -4.4287    0.0000 C   0  0  0  0  0  0  0  0  0  0  0  0
   -7.4697   -5.1787    0.0000 C   0  0  0  0  0  0  0  0  0  0  0  0
   -4.8716   -5.1787    0.0000 C   0  0  0  0  0  0  0  0  0  0  0  0
   -4.8716   -6.6787    0.0000 C   0  0  0  0  0  0  0  0  0  0  0  0
   -7.4697   -6.6787    0.0000 C   0  0  0  0  0  0  0  0  0  0  0  0
   -6.1706   -7.4287    0.0000 C   0  0  0  0  0  0  0  0  0  0  0  0
   -2.2735   -5.1787    0.0000 C   0  0  0  0  0  0  0  0  0  0  0  0
   -2.2735   -6.6787    0.0000 C   0  0  0  0  0  0  0  0  0  0  0  0
   -0.9745   -7.4287    0.0000 C   0  0  0  0  0  0  0  0  0  0  0  0
  1 14  2  0  0  0  0
  1 10  1  0  0  0  0
  2 15  2  0  0  0  0
  2 11  1  0  0  0  0
  3  4  1  0  0  0  0
  3  7  1  0  0  0  0
  3 14  1  0  0  0  0
  4  5  1  0  0  0  0
  5  6  1  0  0  0  0
  6  7  1  0  0  0  0
  8  9  2  0  0  0  0
  8 10  1  0  0  0  0
  9 12  1  0  0  0  0
 10 11  2  0  0  0  0
 11 13  1  0  0  0  0
 12 13  2  0  0  0  0
 14 15  1  0  0  0  0
 15 16  1  0  0  0  0
M  END
