67546
 OpenBabel03021519512D

 14 14  0  0  1  0  0  0  0  0999 V2000
   -1.6773   -1.0337    0.0000 N   0  0  0  0  0  0  0  0  0  0  0  0
    0.9680    1.8066    0.0000 O   0  0  0  0  0  0  0  0  0  0  0  0
   -0.4594    1.3457    0.0000 C   0  0  3  0  0  0  0  0  0  0  0  0
   -0.4622   -0.1543    0.0000 C   0  0  3  0  0  0  0  0  0  0  0  0
    0.9635   -0.6204    0.0000 C   0  0  3  0  0  0  0  0  0  0  0  0
    1.8474    0.5915    0.0000 C   0  0  3  0  0  0  0  0  0  0  0  0
   -1.5233   -2.5258    0.0000 C   0  0  0  0  0  0  0  0  0  0  0  0
   -0.1541   -3.1384    0.0000 C   0  0  0  0  0  0  0  0  0  0  0  0
   -2.7384   -3.4052    0.0000 C   0  0  0  0  0  0  0  0  0  0  0  0
   -3.0428    1.6220    0.0000 O   0  0  0  0  0  0  0  0  0  0  0  0
   -1.6714    2.2296    0.0000 C   0  0  0  0  0  0  0  0  0  0  0  0
    0.5026    0.8070    0.0000 O   0  0  0  0  0  0  0  0  0  0  0  0
    3.3474    0.5888    0.0000 O   0  0  0  0  0  0  0  0  0  0  0  0
    4.0998    1.8864    0.0000 C   0  0  0  0  0  0  0  0  0  0  0  0
  1  4  1  0  0  0  0
  1  7  2  0  0  0  0
  2  3  1  0  0  0  0
  2  6  1  0  0  0  0
  3  4  1  0  0  0  0
  3 11  1  0  0  0  0
  4  5  1  0  0  0  0
  5  6  1  0  0  0  0
  5 12  1  0  0  0  0
  6 13  1  0  0  0  0
  7  8  1  0  0  0  0
  7  9  1  0  0  0  0
 10 11  1  0  0  0  0
 13 14  1  0  0  0  0
M  END
