112975
 OpenBabel03021519512D

 14 16  0  0  0  0  0  0  0  0999 V2000
   -8.2544   -3.0000    0.0000 N   0  0  0  0  0  0  0  0  0  0  0  0
   -1.6317   -1.0365    0.0000 O   0  0  0  0  0  0  0  0  0  0  0  0
   -1.6317   -3.4635    0.0000 O   0  0  0  0  0  0  0  0  0  0  0  0
   -4.3573   -0.7500    0.0000 C   0  0  0  0  0  0  0  0  0  0  0  0
   -5.6563   -1.5000    0.0000 C   0  0  0  0  0  0  0  0  0  0  0  0
   -3.0583   -1.5000    0.0000 C   0  0  0  0  0  0  0  0  0  0  0  0
   -6.9554   -0.7500    0.0000 C   0  0  0  0  0  0  0  0  0  0  0  0
   -8.2544   -1.5000    0.0000 C   0  0  0  0  0  0  0  0  0  0  0  0
   -3.0583   -3.0000    0.0000 C   0  0  0  0  0  0  0  0  0  0  0  0
   -5.6563   -3.0000    0.0000 C   0  0  0  0  0  0  0  0  0  0  0  0
   -4.3573   -3.7500    0.0000 C   0  0  0  0  0  0  0  0  0  0  0  0
   -6.9554   -3.7500    0.0000 C   0  0  0  0  0  0  0  0  0  0  0  0
   -0.7500   -2.2500    0.0000 C   0  0  0  0  0  0  0  0  0  0  0  0
   -9.5535   -3.7500    0.0000 C   0  0  0  0  0  0  0  0  0  0  0  0
  1  8  1  0  0  0  0
  1 12  1  0  0  0  0
  1 14  1  0  0  0  0
  2  6  1  0  0  0  0
  2 13  1  0  0  0  0
  3  9  1  0  0  0  0
  3 13  1  0  0  0  0
  4  5  2  0  0  0  0
  4  6  1  0  0  0  0
  5  7  1  0  0  0  0
  5 10  1  0  0  0  0
  6  9  2  0  0  0  0
  7  8  1  0  0  0  0
  9 11  1  0  0  0  0
 10 11  2  0  0  0  0
 10 12  1  0  0  0  0
M  END
