84126
 OpenBabel03021519512D

 23 24  0  0  0  0  0  0  0  0999 V2000
   -4.8288    4.7598    0.0000 N   0  0  0  0  0  0  0  0  0  0  0  0
   -2.8169    6.4037    0.0000 N   0  0  0  0  0  0  0  0  0  0  0  0
   -4.4110    2.1955    0.0000 O   0  0  0  0  0  0  0  0  0  0  0  0
   -2.2856    7.8064    0.0000 H   0  0  0  0  0  0  0  0  0  0  0  0
   -1.4500    2.6779    0.0000 N   0  0  0  0  0  0  0  0  0  0  0  0
    0.0304    2.9191    0.0000 N   0  0  0  0  0  0  0  0  0  0  0  0
    6.8674   -1.5713    0.0000 O   0  0  0  0  0  0  0  0  0  0  0  0
   -3.8797    3.5982    0.0000 C   0  0  0  0  0  0  0  0  0  0  0  0
   -2.3992    3.8394    0.0000 C   0  0  0  0  0  0  0  0  0  0  0  0
   -1.8678    5.2422    0.0000 C   0  0  0  0  0  0  0  0  0  0  0  0
    1.2849    0.1236    0.0000 C   0  0  0  0  0  0  0  0  0  0  0  0
    1.5646    1.5973    0.0000 C   0  0  0  0  0  0  0  0  0  0  0  0
    2.4213   -0.8554    0.0000 C   0  0  0  0  0  0  0  0  0  0  0  0
    3.8374   -0.3608    0.0000 C   0  0  0  0  0  0  0  0  0  0  0  0
    2.9807    2.0920    0.0000 C   0  0  0  0  0  0  0  0  0  0  0  0
    4.1171    1.1129    0.0000 C   0  0  0  0  0  0  0  0  0  0  0  0
   -4.2974    6.1625    0.0000 C   0  0  0  0  0  0  0  0  0  0  0  0
   -5.2466    7.3240    0.0000 S   0  0  0  0  0  0  0  0  0  0  0  0
   -6.7270    7.0828    0.0000 C   0  0  0  0  0  0  0  0  0  0  0  0
   -0.3873    5.4834    0.0000 N   0  0  0  0  0  0  0  0  0  0  0  0
    5.3715   -1.6826    0.0000 As  0  0  0  0  0  0  0  0  0  0  0  0
    4.7199   -3.0337    0.0000 O   0  0  0  0  0  0  0  0  0  0  0  0
    4.8769   -0.2665    0.0000 O   0  0  0  0  0  0  0  0  0  0  0  0
  1 17  2  0  0  0  0
  1  8  1  0  0  0  0
  2 10  1  0  0  0  0
  2 17  1  0  0  0  0
  2  4  1  0  0  0  0
  3  8  2  0  0  0  0
  5  9  1  0  0  0  0
  5  6  2  0  0  0  0
  6 12  1  0  0  0  0
  7 21  2  0  0  0  0
  8  9  1  0  0  0  0
  9 10  2  0  0  0  0
 10 20  1  0  0  0  0
 11 13  2  0  0  0  0
 11 12  1  0  0  0  0
 12 15  2  0  0  0  0
 13 14  1  0  0  0  0
 14 16  2  0  0  0  0
 14 21  1  0  0  0  0
 15 16  1  0  0  0  0
 17 18  1  0  0  0  0
 18 19  1  0  0  0  0
 21 22  1  0  0  0  0
 21 23  1  0  0  0  0
M  END
