25678
 OpenBabel03021519512D

 21 23  0  0  0  0  0  0  0  0999 V2000
   -5.4707   -5.5245    0.0000 N   0  0  0  0  0  0  0  0  0  0  0  0
   -2.8726   -4.0245    0.0000 C   0  0  0  0  0  0  0  0  0  0  0  0
   -2.8726   -5.5245    0.0000 C   0  0  0  0  0  0  0  0  0  0  0  0
   -1.5736   -3.2745    0.0000 C   0  0  0  0  0  0  0  0  0  0  0  0
   -0.2745   -4.0245    0.0000 C   0  0  0  0  0  0  0  0  0  0  0  0
   -1.5736   -6.2745    0.0000 C   0  0  0  0  0  0  0  0  0  0  0  0
   -4.1716   -6.2745    0.0000 C   0  0  0  0  0  0  0  0  0  0  0  0
   -4.1716   -7.7745    0.0000 C   0  0  0  0  0  0  0  0  0  0  0  0
   -0.2745   -5.5245    0.0000 C   0  0  0  0  0  0  0  0  0  0  0  0
   -5.4707   -8.5245    0.0000 C   0  0  0  0  0  0  0  0  0  0  0  0
   -6.7697   -7.7745    0.0000 C   0  0  0  0  0  0  0  0  0  0  0  0
   -8.0688   -5.5245    0.0000 C   0  0  0  0  0  0  0  0  0  0  0  0
   -6.7697   -6.2745    0.0000 C   0  0  0  0  0  0  0  0  0  0  0  0
   -9.3678   -6.2745    0.0000 C   0  0  0  0  0  0  0  0  0  0  0  0
   -9.3678   -7.7745    0.0000 C   0  0  0  0  0  0  0  0  0  0  0  0
   -8.0687   -8.5245    0.0000 C   0  0  0  0  0  0  0  0  0  0  0  0
   -5.4707  -10.0245    0.0000 C   0  0  0  0  0  0  0  0  0  0  0  0
   -6.7697  -10.7745    0.0000 O   0  0  0  0  0  0  0  0  0  0  0  0
   -4.1716  -10.7745    0.0000 O   0  0  0  0  0  0  0  0  0  0  0  0
   -1.5736   -7.7745    0.0000 C   0  0  0  0  0  0  0  0  0  0  0  0
    1.0245   -3.2745    0.0000 C   0  0  0  0  0  0  0  0  0  0  0  0
  1  7  2  0  0  0  0
  1 13  1  0  0  0  0
  2  4  2  0  0  0  0
  2  3  1  0  0  0  0
  3  6  2  0  0  0  0
  3  7  1  0  0  0  0
  4  5  1  0  0  0  0
  5  9  2  0  0  0  0
  5 21  1  0  0  0  0
  6  9  1  0  0  0  0
  6 20  1  0  0  0  0
  7  8  1  0  0  0  0
  8 10  2  0  0  0  0
 10 11  1  0  0  0  0
 10 17  1  0  0  0  0
 11 13  2  0  0  0  0
 11 16  1  0  0  0  0
 12 14  2  0  0  0  0
 12 13  1  0  0  0  0
 14 15  1  0  0  0  0
 15 16  2  0  0  0  0
 17 18  2  0  0  0  0
 17 19  1  0  0  0  0
M  END
