101758
 OpenBabel03021519512D

 17 17  0  0  1  0  0  0  0  0999 V2000
   -1.8378   -2.1198    0.0000 O   0  0  0  0  0  0  0  0  0  0  0  0
   -0.1996    0.3934    0.0000 C   0  0  0  0  0  0  0  0  0  0  0  0
   -1.6974    0.4745    0.0000 C   0  0  3  0  0  0  0  0  0  0  0  0
    0.4791   -0.9442    0.0000 C   0  0  3  0  0  0  0  0  0  0  0  0
   -0.3400   -2.2009    0.0000 C   0  0  3  0  0  0  0  0  0  0  0  0
   -2.5165   -0.7822    0.0000 C   0  0  3  0  0  0  0  0  0  0  0  0
   -4.0143   -0.7011    0.0000 O   0  0  0  0  0  0  0  0  0  0  0  0
   -4.6931    0.6365    0.0000 C   0  0  0  0  0  0  0  0  0  0  0  0
   -2.3762    1.8121    0.0000 O   0  0  0  0  0  0  0  0  0  0  0  0
    1.9769   -1.0253    0.0000 N   0  0  0  0  0  0  0  0  0  0  0  0
    2.7960    0.2314    0.0000 C   0  0  0  0  0  0  0  0  0  0  0  0
    4.2938    0.1503    0.0000 O   0  0  0  0  0  0  0  0  0  0  0  0
    2.1173    1.5690    0.0000 C   0  0  0  0  0  0  0  0  0  0  0  0
    0.7796    0.8903    0.0000 F   0  0  0  0  0  0  0  0  0  0  0  0
    3.4549    2.2477    0.0000 F   0  0  0  0  0  0  0  0  0  0  0  0
    1.4386    2.9067    0.0000 F   0  0  0  0  0  0  0  0  0  0  0  0
    0.3387   -3.5385    0.0000 O   0  0  0  0  0  0  0  0  0  0  0  0
  1  5  1  0  0  0  0
  1  6  1  0  0  0  0
  2  3  1  0  0  0  0
  2  4  1  0  0  0  0
  3  6  1  0  0  0  0
  3  9  1  0  0  0  0
  4  5  1  0  0  0  0
  4 10  1  0  0  0  0
  5 17  1  0  0  0  0
  6  7  1  0  0  0  0
  7  8  1  0  0  0  0
 10 11  1  0  0  0  0
 11 12  2  0  0  0  0
 11 13  1  0  0  0  0
 13 14  1  0  0  0  0
 13 15  1  0  0  0  0
 13 16  1  0  0  0  0
M  END
