228150
 OpenBabel03021519512D

 21 23  0  0  0  0  0  0  0  0999 V2000
    0.2745   -4.0245    0.0000 C   0  0  0  0  0  0  0  0  0  0  0  0
    0.2745   -5.5245    0.0000 C   0  0  0  0  0  0  0  0  0  0  0  0
   -1.0245   -7.7745    0.0000 C   0  0  0  0  0  0  0  0  0  0  0  0
   -2.3236   -8.5245    0.0000 C   0  0  0  0  0  0  0  0  0  0  0  0
    1.5735   -6.2745    0.0000 C   0  0  0  0  0  0  0  0  0  0  0  0
    1.5735   -7.7745    0.0000 S   0  0  3  0  0  0  0  0  0  0  0  0
    0.2745   -8.5245    0.0000 C   0  0  0  0  0  0  0  0  0  0  0  0
    1.5735   -3.2745    0.0000 C   0  0  0  0  0  0  0  0  0  0  0  0
   -2.3236  -10.0245    0.0000 C   0  0  0  0  0  0  0  0  0  0  0  0
    2.8726   -5.5245    0.0000 C   0  0  0  0  0  0  0  0  0  0  0  0
   -1.0245  -10.7745    0.0000 C   0  0  0  0  0  0  0  0  0  0  0  0
    2.8726   -4.0245    0.0000 C   0  0  0  0  0  0  0  0  0  0  0  0
    2.8726   -8.5245    0.0000 O   0  0  0  0  0  0  0  0  0  0  0  0
    0.2745  -10.0245    0.0000 C   0  0  0  0  0  0  0  0  0  0  0  0
   -0.7127  -12.2417    0.0000 N   0  0  0  0  0  0  0  0  0  0  0  0
    1.3892  -11.0282    0.0000 N   0  0  0  0  0  0  0  0  0  0  0  0
    0.7791  -12.3985    0.0000 O   0  0  0  0  0  0  0  0  0  0  0  0
    1.5735   -1.7745    0.0000 C   0  0  0  0  0  0  0  0  0  0  0  0
   -3.6226  -10.7745    0.0000 N   0  3  0  0  0  0  0  0  0  0  0  0
   -4.9216  -10.0245    0.0000 O   0  5  0  0  0  0  0  0  0  0  0  0
   -3.6226  -12.2745    0.0000 O   0  0  0  0  0  0  0  0  0  0  0  0
  1  8  2  0  0  0  0
  1  2  1  0  0  0  0
  2  5  2  0  0  0  0
  3  7  2  0  0  0  0
  3  4  1  0  0  0  0
  4  9  2  0  0  0  0
  5 10  1  0  0  0  0
  5  6  1  0  0  0  0
  6 13  2  0  0  0  0
  6  7  1  0  0  0  0
  7 14  1  0  0  0  0
  8 12  1  0  0  0  0
  8 18  1  0  0  0  0
  9 11  1  0  0  0  0
  9 19  1  0  0  0  0
 10 12  2  0  0  0  0
 11 14  1  0  0  0  0
 11 15  2  0  0  0  0
 14 16  2  0  0  0  0
 15 17  1  0  0  0  0
 16 17  1  0  0  0  0
 19 20  1  0  0  0  0
 19 21  2  0  0  0  0
M  CHG  2  19   1  20  -1
M  END
