265372
 OpenBabel03021519512D

 19 19  0  0  0  0  0  0  0  0999 V2000
    1.4323    6.0000    0.0000 N   0  0  0  0  0  0  0  0  0  0  0  0
    2.7313    5.2500    0.0000 C   0  0  0  0  0  0  0  0  0  0  0  0
    4.0303    4.5000    0.0000 C   0  0  0  0  0  0  0  0  0  0  0  0
    4.0303    3.0000    0.0000 C   0  0  0  0  0  0  0  0  0  0  0  0
    5.3294    2.2500    0.0000 N   0  3  0  0  0  0  0  0  0  0  0  0
    5.3294    0.7500    0.0000 O   0  5  0  0  0  0  0  0  0  0  0  0
    5.3294    5.2500    0.0000 N   0  0  0  0  0  0  0  0  0  0  0  0
    6.6284    3.0000    0.0000 C   0  0  0  0  0  0  0  0  0  0  0  0
    6.6284    4.5000    0.0000 C   0  0  0  0  0  0  0  0  0  0  0  0
   10.4861    1.2012    0.0000 N   0  0  0  0  0  0  0  0  0  0  0  0
    2.7313    2.2500    0.0000 N   0  0  0  0  0  0  0  0  0  0  0  0
    7.9275    2.2500    0.0000 N   0  0  0  0  0  0  0  0  0  0  0  0
    7.9275    5.2500    0.0000 C   0  0  0  0  0  0  0  0  0  0  0  0
    9.0765    3.2142    0.0000 C   0  0  0  0  0  0  0  0  0  0  0  0
   10.4861    2.7012    0.0000 C   0  0  0  0  0  0  0  0  0  0  0  0
    9.1870    0.4512    0.0000 C   0  0  0  0  0  0  0  0  0  0  0  0
    9.1870   -1.0488    0.0000 C   0  0  0  0  0  0  0  0  0  0  0  0
   11.7851    0.4512    0.0000 C   0  0  0  0  0  0  0  0  0  0  0  0
   13.0842    1.2012    0.0000 C   0  0  0  0  0  0  0  0  0  0  0  0
  1  2  3  0  0  0  0
  2  3  1  0  0  0  0
  3  7  2  0  0  0  0
  3  4  1  0  0  0  0
  4  5  2  0  0  0  0
  4 11  1  0  0  0  0
  5  8  1  0  0  0  0
  5  6  1  0  0  0  0
  7  9  1  0  0  0  0
  8  9  2  0  0  0  0
  8 12  1  0  0  0  0
  9 13  1  0  0  0  0
 10 15  1  0  0  0  0
 10 16  1  0  0  0  0
 10 18  1  0  0  0  0
 12 14  1  0  0  0  0
 14 15  1  0  0  0  0
 16 17  1  0  0  0  0
 18 19  1  0  0  0  0
M  CHG  2   5   1   6  -1
M  END
