303294
 OpenBabel03021519512D

 24 26  0  0  1  0  0  0  0  0999 V2000
   -2.7912   -4.5349    0.0000 C   0  0  0  0  0  0  0  0  0  0  0  0
   -0.8276   -5.9615    0.0000 C   0  0  0  0  0  0  0  0  0  0  0  0
   -3.2547   -5.9615    0.0000 C   0  0  3  0  0  0  0  0  0  0  0  0
   -8.4361   -5.0032    0.0000 C   0  0  0  0  0  0  0  0  0  0  0  0
   -2.0412   -6.8432    0.0000 C   0  0  0  0  0  0  0  0  0  0  0  0
   -7.2226   -5.8849    0.0000 C   0  0  3  0  0  0  0  0  0  0  0  0
   -7.6861   -7.3115    0.0000 C   0  0  0  0  0  0  0  0  0  0  0  0
   -9.6496   -5.8849    0.0000 N   0  0  0  0  0  0  0  0  0  0  0  0
   -8.4361   -3.5032    0.0000 O   0  0  0  0  0  0  0  0  0  0  0  0
   -9.1861   -7.3115    0.0000 N   0  0  0  0  0  0  0  0  0  0  0  0
   -5.7960   -5.4214    0.0000 C   0  0  0  0  0  0  0  0  0  0  0  0
   -5.4841   -3.9541    0.0000 S   0  0  0  0  0  0  0  0  0  0  0  0
   -3.6728   -3.3214    0.0000 O   0  0  0  0  0  0  0  0  0  0  0  0
   -4.6813   -6.4251    0.0000 S   0  0  0  0  0  0  0  0  0  0  0  0
   -1.2912   -4.5349    0.0000 N   0  0  0  0  0  0  0  0  0  0  0  0
   -0.4095   -3.3214    0.0000 H   0  0  0  0  0  0  0  0  0  0  0  0
    0.5990   -6.4250    0.0000 O   0  0  0  0  0  0  0  0  0  0  0  0
  -11.0762   -5.4214    0.0000 C   0  0  0  0  0  0  0  0  0  0  0  0
  -12.1909   -6.4251    0.0000 C   0  0  0  0  0  0  0  0  0  0  0  0
  -13.6175   -5.9616    0.0000 C   0  0  0  0  0  0  0  0  0  0  0  0
  -13.9294   -4.4943    0.0000 C   0  0  0  0  0  0  0  0  0  0  0  0
  -12.8147   -3.4906    0.0000 C   0  0  0  0  0  0  0  0  0  0  0  0
  -11.3881   -3.9542    0.0000 C   0  0  0  0  0  0  0  0  0  0  0  0
   -6.8044   -8.5250    0.0000 C   0  0  0  0  0  0  0  0  0  0  0  0
  1 13  2  0  0  0  0
  1 15  1  0  0  0  0
  1  3  1  0  0  0  0
  2 15  1  0  0  0  0
  2 17  2  0  0  0  0
  2  5  1  0  0  0  0
  3 14  1  0  0  0  0
  3  5  1  0  0  0  0
  4  9  2  0  0  0  0
  4  6  1  0  0  0  0
  4  8  1  0  0  0  0
  6 11  1  0  0  0  0
  6  7  1  0  0  0  0
  7 10  2  0  0  0  0
  7 24  1  0  0  0  0
  8 10  1  0  0  0  0
  8 18  1  0  0  0  0
 11 12  2  0  0  0  0
 11 14  1  0  0  0  0
 15 16  1  0  0  0  0
 18 19  2  0  0  0  0
 18 23  1  0  0  0  0
 19 20  1  0  0  0  0
 20 21  2  0  0  0  0
 21 22  1  0  0  0  0
 22 23  2  0  0  0  0
M  END
