96979
 OpenBabel03021519512D

 11 11  0  0  0  0  0  0  0  0999 V2000
    3.7471    1.6357    0.0000 N   0  0  0  0  0  0  0  0  0  0  0  0
    2.5336    2.5174    0.0000 C   0  0  0  0  0  0  0  0  0  0  0  0
    1.3200    1.6357    0.0000 C   0  0  0  0  0  0  0  0  0  0  0  0
    1.7836    0.2091    0.0000 C   0  0  0  0  0  0  0  0  0  0  0  0
    3.2836    0.2091    0.0000 C   0  0  0  0  0  0  0  0  0  0  0  0
    5.1737    2.0992    0.0000 C   0  0  0  0  0  0  0  0  0  0  0  0
    6.2884    1.0955    0.0000 C   0  0  0  0  0  0  0  0  0  0  0  0
    7.7150    1.5591    0.0000 C   0  0  0  0  0  0  0  0  0  0  0  0
    8.8297    0.5554    0.0000 C   0  0  0  0  0  0  0  0  0  0  0  0
   10.2563    1.0189    0.0000 C   0  0  0  0  0  0  0  0  0  0  0  0
   11.6829    1.4824    0.0000 N   0  0  0  0  0  0  0  0  0  0  0  0
  1  2  1  0  0  0  0
  1  5  1  0  0  0  0
  1  6  1  0  0  0  0
  2  3  1  0  0  0  0
  3  4  1  0  0  0  0
  4  5  1  0  0  0  0
  6  7  1  0  0  0  0
  7  8  1  0  0  0  0
  8  9  1  0  0  0  0
  9 10  1  0  0  0  0
 10 11  3  0  0  0  0
M  END
