3961
 OpenBabel03021519512D

 17 19  0  0  0  0  0  0  0  0999 V2000
    6.3482   -0.5610    0.0000 C   0  0  0  0  0  0  0  0  0  0  0  0
    3.6226   -0.2745    0.0000 C   0  0  0  0  0  0  0  0  0  0  0  0
    4.9216   -1.0245    0.0000 C   0  0  0  0  0  0  0  0  0  0  0  0
    4.9216   -2.5245    0.0000 C   0  0  0  0  0  0  0  0  0  0  0  0
    2.3236   -2.5245    0.0000 C   0  0  0  0  0  0  0  0  0  0  0  0
    6.8118   -4.4146    0.0000 C   0  0  0  0  0  0  0  0  0  0  0  0
    8.2790   -4.7265    0.0000 C   0  0  0  0  0  0  0  0  0  0  0  0
    5.8081   -5.5293    0.0000 C   0  0  0  0  0  0  0  0  0  0  0  0
    8.7425   -6.1531    0.0000 C   0  0  0  0  0  0  0  0  0  0  0  0
    6.2716   -6.9559    0.0000 C   0  0  0  0  0  0  0  0  0  0  0  0
    7.7388   -7.2678    0.0000 C   0  0  0  0  0  0  0  0  0  0  0  0
    1.0245   -0.2745    0.0000 H   0  0  0  0  0  0  0  0  0  0  0  0
    2.3236   -1.0245    0.0000 N   0  0  0  0  0  0  0  0  0  0  0  0
    3.6226    1.2255    0.0000 S   0  0  0  0  0  0  0  0  0  0  0  0
    3.6226   -3.2745    0.0000 N   0  0  0  0  0  0  0  0  0  0  0  0
    6.3482   -2.9880    0.0000 N   0  0  0  0  0  0  0  0  0  0  0  0
    7.2299   -1.7745    0.0000 N   0  0  0  0  0  0  0  0  0  0  0  0
  1 17  2  0  0  0  0
  1  3  1  0  0  0  0
  2 14  2  0  0  0  0
  2  3  1  0  0  0  0
  2 13  1  0  0  0  0
  3  4  2  0  0  0  0
  4 16  1  0  0  0  0
  4 15  1  0  0  0  0
  5 13  1  0  0  0  0
  5 15  2  0  0  0  0
  6 16  1  0  0  0  0
  6  8  2  0  0  0  0
  6  7  1  0  0  0  0
  7  9  2  0  0  0  0
  8 10  1  0  0  0  0
  9 11  1  0  0  0  0
 10 11  2  0  0  0  0
 12 13  1  0  0  0  0
 16 17  1  0  0  0  0
M  END
