107022
 OpenBabel03021519512D

 20 22  0  0  0  0  0  0  0  0999 V2000
    7.5197    2.5245    0.0000 C   0  0  0  0  0  0  0  0  0  0  0  0
    4.9216    2.5245    0.0000 C   0  0  0  0  0  0  0  0  0  0  0  0
    6.2207    1.7745    0.0000 C   0  0  0  0  0  0  0  0  0  0  0  0
    3.6226    1.7745    0.0000 C   0  0  0  0  0  0  0  0  0  0  0  0
    8.8188    0.2745    0.0000 C   0  0  0  0  0  0  0  0  0  0  0  0
    6.2207    0.2745    0.0000 C   0  0  0  0  0  0  0  0  0  0  0  0
    3.6226    0.2745    0.0000 C   0  0  0  0  0  0  0  0  0  0  0  0
   10.1178   -0.4755    0.0000 C   0  0  0  0  0  0  0  0  0  0  0  0
    7.5197   -0.4755    0.0000 C   0  0  0  0  0  0  0  0  0  0  0  0
    4.9216   -0.4755    0.0000 C   0  0  0  0  0  0  0  0  0  0  0  0
   10.1178   -1.9755    0.0000 C   0  0  0  0  0  0  0  0  0  0  0  0
    8.8188   -2.7255    0.0000 C   0  0  0  0  0  0  0  0  0  0  0  0
    7.5197   -1.9755    0.0000 O   0  0  0  0  0  0  0  0  0  0  0  0
    7.5197    4.0245    0.0000 O   0  0  0  0  0  0  0  0  0  0  0  0
    8.8187    1.7745    0.0000 O   0  0  0  0  0  0  0  0  0  0  0  0
    8.8188   -4.2255    0.0000 O   0  0  0  0  0  0  0  0  0  0  0  0
    2.3236    2.5245    0.0000 O   0  0  0  0  0  0  0  0  0  0  0  0
    2.3236   -0.4755    0.0000 O   0  0  0  0  0  0  0  0  0  0  0  0
    4.9216   -1.9755    0.0000 O   0  0  0  0  0  0  0  0  0  0  0  0
   11.4168   -2.7254    0.0000 O   0  0  0  0  0  0  0  0  0  0  0  0
  1 14  2  0  0  0  0
  1 15  1  0  0  0  0
  1  3  1  0  0  0  0
  2  4  2  0  0  0  0
  2  3  1  0  0  0  0
  3  6  2  0  0  0  0
  4  7  1  0  0  0  0
  4 17  1  0  0  0  0
  5 15  1  0  0  0  0
  5  9  2  0  0  0  0
  5  8  1  0  0  0  0
  6  9  1  0  0  0  0
  6 10  1  0  0  0  0
  7 10  2  0  0  0  0
  7 18  1  0  0  0  0
  8 11  2  0  0  0  0
  9 13  1  0  0  0  0
 10 19  1  0  0  0  0
 11 12  1  0  0  0  0
 11 20  1  0  0  0  0
 12 13  1  0  0  0  0
 12 16  2  0  0  0  0
M  END
