279895
 OpenBabel03021519512D

 17 17  0  0  0  0  0  0  0  0999 V2000
   -5.4000   -6.9837    0.0000 C   0  0  0  0  0  0  0  0  0  0  0  0
   -5.4000   -8.4837    0.0000 C   0  0  0  0  0  0  0  0  0  0  0  0
   -4.1009   -4.7337    0.0000 C   0  0  0  0  0  0  0  0  0  0  0  0
   -4.1009   -6.2337    0.0000 C   0  0  0  0  0  0  0  0  0  0  0  0
   -5.4000   -3.9837    0.0000 O   0  0  0  0  0  0  0  0  0  0  0  0
   -4.1009   -9.2337    0.0000 C   0  0  0  0  0  0  0  0  0  0  0  0
   -2.8019   -3.9837    0.0000 C   0  0  0  0  0  0  0  0  0  0  0  0
   -2.8019   -6.9837    0.0000 C   0  0  0  0  0  0  0  0  0  0  0  0
   -2.8019   -2.4837    0.0000 O   0  0  0  0  0  0  0  0  0  0  0  0
   -2.8019   -8.4837    0.0000 C   0  0  0  0  0  0  0  0  0  0  0  0
   -4.1009  -10.7337    0.0000 O   0  0  0  0  0  0  0  0  0  0  0  0
   -1.5029   -4.7337    0.0000 C   0  0  0  0  0  0  0  0  0  0  0  0
   -0.2038   -3.9837    0.0000 C   0  0  0  0  0  0  0  0  0  0  0  0
    1.0952   -4.7337    0.0000 C   0  0  0  0  0  0  0  0  0  0  0  0
    1.0952   -6.2337    0.0000 C   0  0  0  0  0  0  0  0  0  0  0  0
   -1.5029   -6.2337    0.0000 O   0  0  0  0  0  0  0  0  0  0  0  0
    2.3943   -6.9837    0.0000 C   0  0  0  0  0  0  0  0  0  0  0  0
  1  4  2  0  0  0  0
  1  2  1  0  0  0  0
  2  6  2  0  0  0  0
  3  5  2  0  0  0  0
  3  7  1  0  0  0  0
  3  4  1  0  0  0  0
  4  8  1  0  0  0  0
  6 10  1  0  0  0  0
  6 11  1  0  0  0  0
  7  9  2  0  0  0  0
  7 12  1  0  0  0  0
  8 10  2  0  0  0  0
  8 16  1  0  0  0  0
 12 13  1  0  0  0  0
 13 14  1  0  0  0  0
 14 15  1  0  0  0  0
 15 17  1  0  0  0  0
M  END
