65248
 OpenBabel03021519512D

  8  8  0  0  0  0  0  0  0  0999 V2000
    5.1737    1.1722    0.0000 C   0  0  0  0  0  0  0  0  0  0  0  0
    2.7466    1.1722    0.0000 C   0  0  0  0  0  0  0  0  0  0  0  0
    1.3200    1.6357    0.0000 S   0  0  0  0  0  0  0  0  0  0  0  0
    3.2102   -0.2544    0.0000 S   0  0  0  0  0  0  0  0  0  0  0  0
    3.9602    2.0538    0.0000 N   0  0  0  0  0  0  0  0  0  0  0  0
    3.9601    3.5538    0.0000 H   0  0  0  0  0  0  0  0  0  0  0  0
    4.7102   -0.2544    0.0000 S   0  0  0  0  0  0  0  0  0  0  0  0
    6.6003    1.6357    0.0000 N   0  0  0  0  0  0  0  0  0  0  0  0
  1  5  1  0  0  0  0
  1  7  1  0  0  0  0
  1  8  2  0  0  0  0
  2  3  2  0  0  0  0
  2  5  1  0  0  0  0
  2  4  1  0  0  0  0
  4  7  1  0  0  0  0
  5  6  1  0  0  0  0
M  END
