163443
 OpenBabel03021519512D

 30 34  0  0  0  0  0  0  0  0999 V2000
   -8.9259   -7.6318    0.0000 N   0  0  0  0  0  0  0  0  0  0  0  0
   -3.2340   -3.7178    0.0000 N   0  0  0  0  0  0  0  0  0  0  0  0
   -0.7859   -2.4320    0.0000 O   0  0  0  0  0  0  0  0  0  0  0  0
    1.4050    2.5127    0.0000 C   0  0  0  0  0  0  0  0  0  0  0  0
   -0.0045    1.9996    0.0000 C   0  0  0  0  0  0  0  0  0  0  0  0
    2.5541    1.5485    0.0000 C   0  0  0  0  0  0  0  0  0  0  0  0
   -0.2650    0.5224    0.0000 C   0  0  0  0  0  0  0  0  0  0  0  0
    2.2936    0.0713    0.0000 C   0  0  0  0  0  0  0  0  0  0  0  0
    0.8841   -0.4417    0.0000 C   0  0  0  0  0  0  0  0  0  0  0  0
   -5.9148   -4.2876    0.0000 C   0  0  0  0  0  0  0  0  0  0  0  0
   -6.9185   -5.4023    0.0000 C   0  0  0  0  0  0  0  0  0  0  0  0
   -4.4476   -4.5995    0.0000 C   0  0  0  0  0  0  0  0  0  0  0  0
   -8.3857   -5.0905    0.0000 C   0  0  0  0  0  0  0  0  0  0  0  0
   -9.3894   -6.2052    0.0000 C   0  0  0  0  0  0  0  0  0  0  0  0
   -3.9840   -6.0261    0.0000 C   0  0  0  0  0  0  0  0  0  0  0  0
   -6.4550   -6.8289    0.0000 C   0  0  0  0  0  0  0  0  0  0  0  0
   -4.9877   -7.1408    0.0000 C   0  0  0  0  0  0  0  0  0  0  0  0
   -2.4840   -6.0261    0.0000 C   0  0  0  0  0  0  0  0  0  0  0  0
   -0.5533   -4.2876    0.0000 C   0  0  0  0  0  0  0  0  0  0  0  0
    0.4504   -5.4023    0.0000 C   0  0  0  0  0  0  0  0  0  0  0  0
   -2.0205   -4.5995    0.0000 C   0  0  0  0  0  0  0  0  0  0  0  0
   -0.0131   -6.8289    0.0000 C   0  0  0  0  0  0  0  0  0  0  0  0
   -1.4803   -7.1408    0.0000 C   0  0  0  0  0  0  0  0  0  0  0  0
   -7.4587   -7.9436    0.0000 C   0  0  0  0  0  0  0  0  0  0  0  0
   -6.3783   -2.8610    0.0000 C   0  0  0  0  0  0  0  0  0  0  0  0
   -4.5242   -8.5674    0.0000 C   0  0  0  0  0  0  0  0  0  0  0  0
   -1.9350   -1.4678    0.0000 C   0  0  0  0  0  0  0  0  0  0  0  0
   -3.2340   -2.2178    0.0000 C   0  0  0  0  0  0  0  0  0  0  0  0
    0.6236   -1.9190    0.0000 C   0  0  0  0  0  0  0  0  0  0  0  0
    1.7727   -2.8831    0.0000 O   0  0  0  0  0  0  0  0  0  0  0  0
  1 24  2  0  0  0  0
  1 14  1  0  0  0  0
  2 12  1  0  0  0  0
  2 21  1  0  0  0  0
  2 28  1  0  0  0  0
  3 27  1  0  0  0  0
  3 29  1  0  0  0  0
  4  5  2  0  0  0  0
  4  6  1  0  0  0  0
  5  7  1  0  0  0  0
  6  8  2  0  0  0  0
  7  9  2  0  0  0  0
  8  9  1  0  0  0  0
  9 29  1  0  0  0  0
 10 11  2  0  0  0  0
 10 12  1  0  0  0  0
 10 25  1  0  0  0  0
 11 13  1  0  0  0  0
 11 16  1  0  0  0  0
 12 15  2  0  0  0  0
 13 14  2  0  0  0  0
 15 17  1  0  0  0  0
 15 18  1  0  0  0  0
 16 17  2  0  0  0  0
 16 24  1  0  0  0  0
 17 26  1  0  0  0  0
 18 21  2  0  0  0  0
 18 23  1  0  0  0  0
 19 20  2  0  0  0  0
 19 21  1  0  0  0  0
 20 22  1  0  0  0  0
 22 23  2  0  0  0  0
 27 28  1  0  0  0  0
 29 30  2  0  0  0  0
M  END
