197049
 OpenBabel03021519512D

 12 12  0  0  0  0  0  0  0  0999 V2000
    1.9112    0.4988    0.0000 C   0  0  0  0  0  0  0  0  0  0  0  0
    0.5703   -0.1734    0.0000 C   0  0  0  0  0  0  0  0  0  0  0  0
    0.7952   -1.6564    0.0000 C   0  0  0  0  0  0  0  0  0  0  0  0
   -2.0251   -0.2923    0.0000 O   0  0  0  0  0  0  0  0  0  0  0  0
   -0.8304    2.0148    0.0000 O   0  0  0  0  0  0  0  0  0  0  0  0
   -0.7617    0.5164    0.0000 C   0  0  0  0  0  0  0  0  0  0  0  0
    2.1556    1.9787    0.0000 S   0  0  0  0  0  0  0  0  0  0  0  0
    2.9649   -0.5688    0.0000 S   0  0  0  0  0  0  0  0  0  0  0  0
    2.2751   -1.9008    0.0000 S   0  0  0  0  0  0  0  0  0  0  0  0
   -3.3571    0.3974    0.0000 C   0  0  0  0  0  0  0  0  0  0  0  0
   -3.4257    1.8959    0.0000 C   0  0  0  0  0  0  0  0  0  0  0  0
   -0.2724   -2.7101    0.0000 N   0  0  0  0  0  0  0  0  0  0  0  0
  1  7  2  0  0  0  0
  1  2  1  0  0  0  0
  1  8  1  0  0  0  0
  2  6  1  0  0  0  0
  2  3  2  0  0  0  0
  3  9  1  0  0  0  0
  3 12  1  0  0  0  0
  4  6  1  0  0  0  0
  4 10  1  0  0  0  0
  5  6  2  0  0  0  0
  8  9  1  0  0  0  0
 10 11  1  0  0  0  0
M  END
