158549
 OpenBabel03021519512D

 20 23  0  0  0  0  0  0  0  0999 V2000
    7.5408    0.9136    0.0000 N   0  0  0  0  0  0  0  0  0  0  0  0
    7.6976   -0.5781    0.0000 N   0  0  0  0  0  0  0  0  0  0  0  0
    6.3273   -1.1882    0.0000 N   0  0  0  0  0  0  0  0  0  0  0  0
   10.2957   -0.5781    0.0000 C   0  0  0  0  0  0  0  0  0  0  0  0
    8.9966   -1.3281    0.0000 C   0  0  0  0  0  0  0  0  0  0  0  0
   11.5947   -1.3281    0.0000 C   0  0  0  0  0  0  0  0  0  0  0  0
   11.5947   -2.8281    0.0000 C   0  0  0  0  0  0  0  0  0  0  0  0
    8.9966   -2.8281    0.0000 C   0  0  0  0  0  0  0  0  0  0  0  0
   10.2957   -3.5781    0.0000 C   0  0  0  0  0  0  0  0  0  0  0  0
    6.0736    1.2255    0.0000 C   0  0  0  0  0  0  0  0  0  0  0  0
    5.3235    2.5245    0.0000 C   0  0  0  0  0  0  0  0  0  0  0  0
    5.3236   -0.0735    0.0000 C   0  0  0  0  0  0  0  0  0  0  0  0
    6.0735    3.8236    0.0000 C   0  0  0  0  0  0  0  0  0  0  0  0
    5.3235    5.1226    0.0000 C   0  0  0  0  0  0  0  0  0  0  0  0
    3.8236   -0.0735    0.0000 C   0  0  0  0  0  0  0  0  0  0  0  0
    3.8235    2.5245    0.0000 C   0  0  0  0  0  0  0  0  0  0  0  0
    3.8235    5.1226    0.0000 C   0  0  0  0  0  0  0  0  0  0  0  0
    3.0736    1.2255    0.0000 C   0  0  0  0  0  0  0  0  0  0  0  0
    3.0735    3.8236    0.0000 C   0  0  0  0  0  0  0  0  0  0  0  0
    7.6976   -3.5781    0.0000 N   0  0  0  0  0  0  0  0  0  0  0  0
  1  2  1  0  0  0  0
  1 10  2  0  0  0  0
  2  3  1  0  0  0  0
  2  5  1  0  0  0  0
  3 12  2  0  0  0  0
  4  6  2  0  0  0  0
  4  5  1  0  0  0  0
  5  8  2  0  0  0  0
  6  7  1  0  0  0  0
  7  9  2  0  0  0  0
  8  9  1  0  0  0  0
  8 20  1  0  0  0  0
 10 11  1  0  0  0  0
 10 12  1  0  0  0  0
 11 16  2  0  0  0  0
 11 13  1  0  0  0  0
 12 15  1  0  0  0  0
 13 14  2  0  0  0  0
 14 17  1  0  0  0  0
 15 18  2  0  0  0  0
 16 19  1  0  0  0  0
 16 18  1  0  0  0  0
 17 19  2  0  0  0  0
M  END
