289090
 OpenBabel03021519512D

 17 18  0  0  0  0  0  0  0  0999 V2000
   -2.2500    3.3481    0.0000 N   0  0  0  0  0  0  0  0  0  0  0  0
   -0.7500    3.3481    0.0000 C   0  0  0  0  0  0  0  0  0  0  0  0
    0.7500    3.3481    0.0000 N   0  0  0  0  0  0  0  0  0  0  0  0
    3.0000    2.0490    0.0000 N   0  0  0  0  0  0  0  0  0  0  0  0
    3.7500    3.3481    0.0000 C   0  0  0  0  0  0  0  0  0  0  0  0
    3.7500    0.7500    0.0000 C   0  0  0  0  0  0  0  0  0  0  0  0
    5.2500    3.3481    0.0000 C   0  0  0  0  0  0  0  0  0  0  0  0
    5.2500    0.7500    0.0000 C   0  0  0  0  0  0  0  0  0  0  0  0
    6.0000    2.0490    0.0000 C   0  0  0  0  0  0  0  0  0  0  0  0
    7.5000    2.0490    0.0000 C   0  0  0  0  0  0  0  0  0  0  0  0
    8.2500    0.7500    0.0000 C   0  0  0  0  0  0  0  0  0  0  0  0
    8.2500    3.3481    0.0000 C   0  0  0  0  0  0  0  0  0  0  0  0
    9.7500    0.7500    0.0000 C   0  0  0  0  0  0  0  0  0  0  0  0
    9.7500    3.3481    0.0000 C   0  0  0  0  0  0  0  0  0  0  0  0
   10.5000    2.0490    0.0000 C   0  0  0  0  0  0  0  0  0  0  0  0
   12.0000    2.0490    0.0000 Cl  0  0  0  0  0  0  0  0  0  0  0  0
    1.5000    2.0490    0.0000 C   0  0  0  0  0  0  0  0  0  0  0  0
  1  2  3  0  0  0  0
  2  3  1  0  0  0  0
  3 17  2  0  0  0  0
  4  5  1  0  0  0  0
  4  6  1  0  0  0  0
  4 17  1  0  0  0  0
  5  7  1  0  0  0  0
  6  8  1  0  0  0  0
  7  9  2  0  0  0  0
  8  9  1  0  0  0  0
  9 10  1  0  0  0  0
 10 12  2  0  0  0  0
 10 11  1  0  0  0  0
 11 13  2  0  0  0  0
 12 14  1  0  0  0  0
 13 15  1  0  0  0  0
 14 15  2  0  0  0  0
 15 16  1  0  0  0  0
M  END
