44688
 OpenBabel03021519512D

 17 18  0  0  0  0  0  0  0  0999 V2000
   -7.1078   -0.0477    0.0000 N   0  0  0  0  0  0  0  0  0  0  0  0
   -5.7375    0.5624    0.0000 N   0  0  0  0  0  0  0  0  0  0  0  0
   -5.8943    2.0542    0.0000 C   0  0  0  0  0  0  0  0  0  0  0  0
   -7.3615    2.3661    0.0000 C   0  0  0  0  0  0  0  0  0  0  0  0
   -8.1115    1.0670    0.0000 C   0  0  0  0  0  0  0  0  0  0  0  0
   -3.1394    0.5624    0.0000 C   0  0  0  0  0  0  0  0  0  0  0  0
   -1.8404   -0.1876    0.0000 C   0  0  0  0  0  0  0  0  0  0  0  0
   -4.4384   -0.1876    0.0000 C   0  0  0  0  0  0  0  0  0  0  0  0
   -1.8404   -1.6876    0.0000 C   0  0  0  0  0  0  0  0  0  0  0  0
   -4.4384   -1.6876    0.0000 C   0  0  0  0  0  0  0  0  0  0  0  0
   -3.1394   -2.4376    0.0000 C   0  0  0  0  0  0  0  0  0  0  0  0
   -7.9716    3.7364    0.0000 O   0  0  0  0  0  0  0  0  0  0  0  0
  -11.9767    1.9669    0.0000 C   0  0  0  0  0  0  0  0  0  0  0  0
  -12.8584    3.1805    0.0000 C   0  0  0  0  0  0  0  0  0  0  0  0
  -10.4850    2.1237    0.0000 O   0  0  0  0  0  0  0  0  0  0  0  0
   -9.6033    0.9102    0.0000 C   0  0  0  0  0  0  0  0  0  0  0  0
  -10.2134   -0.4601    0.0000 O   0  0  0  0  0  0  0  0  0  0  0  0
  1  2  1  0  0  0  0
  1  5  2  0  0  0  0
  2  3  1  0  0  0  0
  2  8  1  0  0  0  0
  3  4  2  0  0  0  0
  4  5  1  0  0  0  0
  4 12  1  0  0  0  0
  5 16  1  0  0  0  0
  6  7  2  0  0  0  0
  6  8  1  0  0  0  0
  7  9  1  0  0  0  0
  8 10  2  0  0  0  0
  9 11  2  0  0  0  0
 10 11  1  0  0  0  0
 13 14  1  0  0  0  0
 13 15  1  0  0  0  0
 15 16  1  0  0  0  0
 16 17  2  0  0  0  0
M  END
