159398
 OpenBabel03021519512D

 10 10  0  0  0  0  0  0  0  0999 V2000
   -0.5071    6.5733    0.0000 I   0  0  0  0  0  0  0  0  0  0  0  0
   -0.5071    3.5733    0.0000 O   0  0  0  0  0  0  0  0  0  0  0  0
    2.0910    3.5733    0.0000 N   0  0  0  0  0  0  0  0  0  0  0  0
    2.0910    2.0733    0.0000 H   0  0  0  0  0  0  0  0  0  0  0  0
    4.6891    6.5733    0.0000 I   0  0  0  0  0  0  0  0  0  0  0  0
    2.0910    6.5733    0.0000 C   0  0  0  0  0  0  0  0  0  0  0  0
    3.3900    5.8233    0.0000 C   0  0  0  0  0  0  0  0  0  0  0  0
    0.7919    5.8233    0.0000 C   0  0  0  0  0  0  0  0  0  0  0  0
    3.3900    4.3233    0.0000 C   0  0  0  0  0  0  0  0  0  0  0  0
    0.7919    4.3233    0.0000 C   0  0  0  0  0  0  0  0  0  0  0  0
  1  8  1  0  0  0  0
  2 10  2  0  0  0  0
  3  9  1  0  0  0  0
  3 10  1  0  0  0  0
  3  4  1  0  0  0  0
  5  7  1  0  0  0  0
  6  8  2  0  0  0  0
  6  7  1  0  0  0  0
  7  9  2  0  0  0  0
  8 10  1  0  0  0  0
M  END
