80807
 OpenBabel03021519512D

 15 15  0  0  0  0  0  0  0  0999 V2000
   -5.6644    5.5420    0.0000 S   0  0  0  0  0  0  0  0  0  0  0  0
   -7.7663    4.3284    0.0000 N   0  0  0  0  0  0  0  0  0  0  0  0
   -6.2745   -1.0245    0.0000 H   0  0  0  0  0  0  0  0  0  0  0  0
   -5.5245    0.2745    0.0000 C   0  0  0  0  0  0  0  0  0  0  0  0
   -4.0245    0.2745    0.0000 C   0  0  0  0  0  0  0  0  0  0  0  0
   -3.2745   -1.0245    0.0000 H   0  0  0  0  0  0  0  0  0  0  0  0
   -6.2745    4.1716    0.0000 C   0  0  0  0  0  0  0  0  0  0  0  0
   -6.7791    6.5457    0.0000 C   0  0  0  0  0  0  0  0  0  0  0  0
   -8.0782    5.7957    0.0000 C   0  0  0  0  0  0  0  0  0  0  0  0
   -5.5245    2.8726    0.0000 N   0  0  0  0  0  0  0  0  0  0  0  0
   -6.2745    1.5736    0.0000 C   0  0  0  0  0  0  0  0  0  0  0  0
   -7.7745    1.5736    0.0000 O   0  0  0  0  0  0  0  0  0  0  0  0
   -3.2745    1.5736    0.0000 C   0  0  0  0  0  0  0  0  0  0  0  0
   -1.7745    1.5736    0.0000 O   0  0  0  0  0  0  0  0  0  0  0  0
   -4.0245    2.8726    0.0000 O   0  0  0  0  0  0  0  0  0  0  0  0
  1  7  1  0  0  0  0
  1  8  1  0  0  0  0
  2  7  2  0  0  0  0
  2  9  1  0  0  0  0
  3  4  1  0  0  0  0
  4  5  2  0  0  0  0
  4 11  1  0  0  0  0
  5  6  1  0  0  0  0
  5 13  1  0  0  0  0
  7 10  1  0  0  0  0
  8  9  2  0  0  0  0
 10 11  1  0  0  0  0
 11 12  2  0  0  0  0
 13 14  2  0  0  0  0
 13 15  1  0  0  0  0
M  END
