111847
 OpenBabel03021519512D

 20 22  0  0  0  0  0  0  0  0999 V2000
   -2.8726   -2.5245    0.0000 N   0  0  0  0  0  0  0  0  0  0  0  0
   -2.8726    2.9505    0.0000 C   0  0  0  0  0  0  0  0  0  0  0  0
   -1.5736    2.2005    0.0000 C   0  0  0  0  0  0  0  0  0  0  0  0
   -4.1716    2.2005    0.0000 C   0  0  0  0  0  0  0  0  0  0  0  0
   -4.1716    0.7005    0.0000 C   0  0  0  0  0  0  0  0  0  0  0  0
   -1.5736    0.7005    0.0000 C   0  0  0  0  0  0  0  0  0  0  0  0
   -2.8726   -0.0495    0.0000 C   0  0  0  0  0  0  0  0  0  0  0  0
   -4.1716   -4.7745    0.0000 C   0  0  0  0  0  0  0  0  0  0  0  0
   -2.8726   -5.5245    0.0000 C   0  0  0  0  0  0  0  0  0  0  0  0
   -5.4707   -5.5245    0.0000 C   0  0  0  0  0  0  0  0  0  0  0  0
   -6.7697   -4.7745    0.0000 C   0  0  0  0  0  0  0  0  0  0  0  0
   -8.0688   -5.5245    0.0000 C   0  0  0  0  0  0  0  0  0  0  0  0
   -2.8726   -7.0245    0.0000 C   0  0  0  0  0  0  0  0  0  0  0  0
   -5.4707   -7.0245    0.0000 C   0  0  0  0  0  0  0  0  0  0  0  0
   -8.0687   -7.0245    0.0000 C   0  0  0  0  0  0  0  0  0  0  0  0
   -4.1716   -7.7745    0.0000 C   0  0  0  0  0  0  0  0  0  0  0  0
   -6.7697   -7.7745    0.0000 C   0  0  0  0  0  0  0  0  0  0  0  0
   -4.1716   -3.2745    0.0000 C   0  0  0  0  0  0  0  0  0  0  0  0
   -5.4707   -0.0495    0.0000 O   0  0  0  0  0  0  0  0  0  0  0  0
   -1.5736   -4.7745    0.0000 O   0  0  0  0  0  0  0  0  0  0  0  0
  1  7  1  0  0  0  0
  1 18  2  0  0  0  0
  2  4  2  0  0  0  0
  2  3  1  0  0  0  0
  3  6  2  0  0  0  0
  4  5  1  0  0  0  0
  5  7  2  0  0  0  0
  5 19  1  0  0  0  0
  6  7  1  0  0  0  0
  8  9  2  0  0  0  0
  8 10  1  0  0  0  0
  8 18  1  0  0  0  0
  9 13  1  0  0  0  0
  9 20  1  0  0  0  0
 10 14  2  0  0  0  0
 10 11  1  0  0  0  0
 11 12  2  0  0  0  0
 12 15  1  0  0  0  0
 13 16  2  0  0  0  0
 14 16  1  0  0  0  0
 14 17  1  0  0  0  0
 15 17  2  0  0  0  0
M  END
