679449
 OpenBabel03021519512D

 10 11  0  0  1  0  0  0  0  0999 V2000
   -0.1186   -6.6679    0.0000 C   0  0  0  0  0  0  0  0  0  0  0  0
    1.3091   -6.2079    0.0000 C   0  0  3  0  0  0  0  0  0  0  0  0
    1.3128   -4.7079    0.0000 C   0  0  3  0  0  0  0  0  0  0  0  0
   -0.1126   -4.2408    0.0000 C   0  0  0  0  0  0  0  0  0  0  0  0
    2.7345   -6.6750    0.0000 C   0  0  0  0  0  0  0  0  0  0  0  0
    3.6192   -5.4636    0.0000 N   0  0  0  0  0  0  0  0  0  0  0  0
    2.7406   -4.2479    0.0000 N   0  0  0  0  0  0  0  0  0  0  0  0
    1.3166   -3.2079    0.0000 C   0  0  0  0  0  0  0  0  0  0  0  0
    1.3203   -1.7079    0.0000 N   0  0  0  0  0  0  0  0  0  0  0  0
   -0.9973   -5.4521    0.0000 N   0  0  0  0  0  0  0  0  0  0  0  0
  1  2  1  0  0  0  0
  1 10  1  0  0  0  0
  2  3  1  0  0  0  0
  2  5  1  0  0  0  0
  3  4  1  0  0  0  0
  3  7  1  0  0  0  0
  3  8  1  0  0  0  0
  4 10  1  0  0  0  0
  5  6  1  0  0  0  0
  6  7  2  0  0  0  0
  8  9  3  0  0  0  0
M  END
