114490
 OpenBabel03021519512D

 17 18  0  0  0  0  0  0  0  0999 V2000
    2.0491   -5.2500    0.0000 C   0  0  0  0  0  0  0  0  0  0  0  0
    0.7500   -6.0000    0.0000 N   0  0  0  0  0  0  0  0  0  0  0  0
    3.3481   -7.5000    0.0000 C   0  0  0  0  0  0  0  0  0  0  0  0
    2.0491   -8.2500    0.0000 C   0  0  0  0  0  0  0  0  0  0  0  0
    4.6471   -8.2500    0.0000 C   0  0  0  0  0  0  0  0  0  0  0  0
    4.6472   -9.7500    0.0000 C   0  0  0  0  0  0  0  0  0  0  0  0
    2.0491   -9.7500    0.0000 C   0  0  0  0  0  0  0  0  0  0  0  0
    3.3481  -10.5000    0.0000 C   0  0  0  0  0  0  0  0  0  0  0  0
    3.3481   -3.0000    0.0000 C   0  0  0  0  0  0  0  0  0  0  0  0
    3.3481   -1.5000    0.0000 C   0  0  0  0  0  0  0  0  0  0  0  0
    2.0491   -3.7500    0.0000 C   0  0  0  0  0  0  0  0  0  0  0  0
    0.7500   -3.0000    0.0000 C   0  0  0  0  0  0  0  0  0  0  0  0
    2.0490   -0.7500    0.0000 C   0  0  0  0  0  0  0  0  0  0  0  0
    0.7500   -1.5000    0.0000 C   0  0  0  0  0  0  0  0  0  0  0  0
    3.3481   -6.0000    0.0000 N   0  0  0  0  0  0  0  0  0  0  0  0
    4.6471   -5.2500    0.0000 O   0  0  0  0  0  0  0  0  0  0  0  0
    0.7500   -7.5000    0.0000 C   0  0  0  0  0  0  0  0  0  0  0  0
  1  2  2  0  0  0  0
  1 11  1  0  0  0  0
  1 15  1  0  0  0  0
  2 17  1  0  0  0  0
  3  5  2  0  0  0  0
  3  4  1  0  0  0  0
  4  7  2  0  0  0  0
  4 17  1  0  0  0  0
  5  6  1  0  0  0  0
  6  8  2  0  0  0  0
  7  8  1  0  0  0  0
  9 10  2  0  0  0  0
  9 11  1  0  0  0  0
 10 13  1  0  0  0  0
 11 12  2  0  0  0  0
 12 14  1  0  0  0  0
 13 14  2  0  0  0  0
 15 16  1  0  0  0  0
M  END
