112547
 OpenBabel03021519512D

 23 25  0  0  0  0  0  0  0  0999 V2000
    2.9731    1.3755    0.0000 H   0  0  0  0  0  0  0  0  0  0  0  0
    4.2721    0.6255    0.0000 N   0  0  0  0  0  0  0  0  0  0  0  0
    5.5712    2.8755    0.0000 S   0  0  0  0  0  0  0  0  0  0  0  0
    6.8702    0.6255    0.0000 N   0  0  0  0  0  0  0  0  0  0  0  0
    8.1692    1.3755    0.0000 H   0  0  0  0  0  0  0  0  0  0  0  0
    8.1692   -1.6245    0.0000 O   0  0  0  0  0  0  0  0  0  0  0  0
    5.5712    1.3755    0.0000 C   0  0  0  0  0  0  0  0  0  0  0  0
    6.8702   -0.8745    0.0000 C   0  0  0  0  0  0  0  0  0  0  0  0
    5.5712   -1.6245    0.0000 C   0  0  0  0  0  0  0  0  0  0  0  0
    4.2721   -0.8745    0.0000 C   0  0  0  0  0  0  0  0  0  0  0  0
    7.3249   -4.6620    0.0000 C   0  0  0  0  0  0  0  0  0  0  0  0
    7.3249   -6.1620    0.0000 C   0  0  0  0  0  0  0  0  0  0  0  0
    8.6239   -3.9120    0.0000 C   0  0  0  0  0  0  0  0  0  0  0  0
    6.0258   -6.9120    0.0000 C   0  0  0  0  0  0  0  0  0  0  0  0
    6.0258   -8.4120    0.0000 C   0  0  0  0  0  0  0  0  0  0  0  0
    9.9229   -4.6620    0.0000 C   0  0  0  0  0  0  0  0  0  0  0  0
    8.6239   -6.9120    0.0000 C   0  0  0  0  0  0  0  0  0  0  0  0
    7.3249   -9.1620    0.0000 C   0  0  0  0  0  0  0  0  0  0  0  0
    9.9229   -6.1620    0.0000 C   0  0  0  0  0  0  0  0  0  0  0  0
    8.6239   -8.4120    0.0000 C   0  0  0  0  0  0  0  0  0  0  0  0
    2.9731   -1.6245    0.0000 C   0  0  0  0  0  0  0  0  0  0  0  0
    5.5712   -3.6495    0.0000 C   0  0  0  0  0  0  0  0  0  0  0  0
    8.6239   -2.4120    0.0000 O   0  0  0  0  0  0  0  0  0  0  0  0
  1  2  1  0  0  0  0
  2  7  1  0  0  0  0
  2 10  1  0  0  0  0
  3  7  2  0  0  0  0
  4  7  1  0  0  0  0
  4  8  1  0  0  0  0
  4  5  1  0  0  0  0
  6  8  2  0  0  0  0
  8  9  1  0  0  0  0
  9 10  2  0  0  0  0
  9 22  1  0  0  0  0
 10 21  1  0  0  0  0
 11 13  2  0  0  0  0
 11 12  1  0  0  0  0
 11 22  1  0  0  0  0
 12 17  2  0  0  0  0
 12 14  1  0  0  0  0
 13 16  1  0  0  0  0
 13 23  1  0  0  0  0
 14 15  2  0  0  0  0
 15 18  1  0  0  0  0
 16 19  2  0  0  0  0
 17 19  1  0  0  0  0
 17 20  1  0  0  0  0
 18 20  2  0  0  0  0
M  END
