56410
 OpenBabel03021519512D

 25 28  0  0  1  0  0  0  0  0999 V2000
    1.7110    7.2309    0.0000 O   0  0  0  0  0  0  0  0  0  0  0  0
    3.5651    1.5246    0.0000 O   0  0  0  0  0  0  0  0  0  0  0  0
    5.6053    4.0659    0.0000 N   0  0  0  0  0  0  0  0  0  0  0  0
    9.0361    5.1806    0.0000 N   0  0  0  0  0  0  0  0  0  0  0  0
    4.8553    6.3741    0.0000 C   0  0  3  0  0  0  0  0  0  0  0  0
    3.6418    5.4924    0.0000 C   0  0  0  0  0  0  0  0  0  0  0  0
    6.0688    5.4924    0.0000 C   0  0  3  0  0  0  0  0  0  0  0  0
    2.1746    5.8043    0.0000 C   0  0  0  0  0  0  0  0  0  0  0  0
    1.1709    4.6896    0.0000 C   0  0  0  0  0  0  0  0  0  0  0  0
    7.5688    5.4924    0.0000 C   0  0  3  0  0  0  0  0  0  0  0  0
    8.0324    4.0659    0.0000 C   0  0  3  0  0  0  0  0  0  0  0  0
    4.1053    4.0659    0.0000 C   0  0  0  0  0  0  0  0  0  0  0  0
    1.6344    3.2630    0.0000 C   0  0  0  0  0  0  0  0  0  0  0  0
    6.8188    3.1842    0.0000 C   0  0  0  0  0  0  0  0  0  0  0  0
    3.1016    2.9511    0.0000 C   0  0  0  0  0  0  0  0  0  0  0  0
   -0.2963    5.0015    0.0000 N   0  0  0  0  0  0  0  0  0  0  0  0
    0.6307    2.1483    0.0000 C   0  0  0  0  0  0  0  0  0  0  0  0
    4.8553    7.8741    0.0000 C   0  0  0  0  0  0  0  0  0  0  0  0
    3.4458    8.3872    0.0000 O   0  0  0  0  0  0  0  0  0  0  0  0
    3.1853    9.8644    0.0000 C   0  0  0  0  0  0  0  0  0  0  0  0
    1.7758   10.3774    0.0000 O   0  0  0  0  0  0  0  0  0  0  0  0
    4.3344   10.8285    0.0000 N   0  0  0  0  0  0  0  0  0  0  0  0
    6.5324    6.9190    0.0000 O   0  0  0  0  0  0  0  0  0  0  0  0
    7.9996    7.2309    0.0000 C   0  0  0  0  0  0  0  0  0  0  0  0
   10.4627    5.6441    0.0000 C   0  0  0  0  0  0  0  0  0  0  0  0
  1  8  2  0  0  0  0
  2 15  2  0  0  0  0
  3  7  1  0  0  0  0
  3 12  1  0  0  0  0
  3 14  1  0  0  0  0
  4 10  1  0  0  0  0
  4 11  1  0  0  0  0
  4 25  1  0  0  0  0
  5  6  1  0  0  0  0
  5  7  1  0  0  0  0
  5 18  1  0  0  0  0
  6 12  2  0  0  0  0
  6  8  1  0  0  0  0
  7 10  1  0  0  0  0
  7 23  1  0  0  0  0
  8  9  1  0  0  0  0
  9 13  2  0  0  0  0
  9 16  1  0  0  0  0
 10 11  1  0  0  0  0
 11 14  1  0  0  0  0
 12 15  1  0  0  0  0
 13 15  1  0  0  0  0
 13 17  1  0  0  0  0
 18 19  1  0  0  0  0
 19 20  1  0  0  0  0
 20 21  2  0  0  0  0
 20 22  1  0  0  0  0
 23 24  1  0  0  0  0
M  END
