126405
 OpenBabel03021519512D

 11 11  0  0  0  0  0  0  0  0999 V2000
   -8.1321   -0.9223    0.0000 Cl  0  0  0  0  0  0  0  0  0  0  0  0
   -7.1237   -4.0259    0.0000 Cl  0  0  0  0  0  0  0  0  0  0  0  0
   -5.4920    0.9959    0.0000 Cl  0  0  0  0  0  0  0  0  0  0  0  0
   -3.8603   -4.0259    0.0000 Cl  0  0  0  0  0  0  0  0  0  0  0  0
   -5.4920   -0.5041    0.0000 C   0  0  0  0  0  0  0  0  0  0  0  0
   -6.7056   -1.3858    0.0000 C   0  0  0  0  0  0  0  0  0  0  0  0
   -4.2785   -1.3858    0.0000 C   0  0  0  0  0  0  0  0  0  0  0  0
   -4.7420   -2.8124    0.0000 C   0  0  0  0  0  0  0  0  0  0  0  0
   -6.2420   -2.8124    0.0000 C   0  0  0  0  0  0  0  0  0  0  0  0
   -2.8519   -0.9223    0.0000 N   0  0  0  0  0  0  0  0  0  0  0  0
   -1.7372   -1.9260    0.0000 N   0  0  0  0  0  0  0  0  0  0  0  0
  1  6  1  0  0  0  0
  2  9  1  0  0  0  0
  3  5  1  0  0  0  0
  4  8  1  0  0  0  0
  5  6  2  0  0  0  0
  5  7  1  0  0  0  0
  6  9  1  0  0  0  0
  7  8  1  0  0  0  0
  7 10  2  0  0  0  0
  8  9  2  0  0  0  0
 10 11  1  0  0  0  0
M  END
