328010
 OpenBabel03021519512D

 25 26  0  0  1  0  0  0  0  0999 V2000
    1.0578    4.8094    0.0000 O   0  0  0  0  0  0  0  0  0  0  0  0
    1.6359    7.3424    0.0000 O   0  0  0  0  0  0  0  0  0  0  0  0
    2.0780    5.9090    0.0000 C   0  0  0  0  0  0  0  0  0  0  0  0
    3.5404    5.5752    0.0000 C   0  0  0  0  0  0  0  0  0  0  0  0
    3.8742    4.1128    0.0000 C   0  0  0  0  0  0  0  0  0  0  0  0
    4.4757    6.7480    0.0000 C   0  0  0  0  0  0  0  0  0  0  0  0
    5.2257    3.4620    0.0000 N   0  0  0  0  0  0  0  0  0  0  0  0
    5.8765    2.1106    0.0000 H   0  0  0  0  0  0  0  0  0  0  0  0
    5.9757    6.7480    0.0000 C   0  0  3  0  0  0  0  0  0  0  0  0
    5.5595    4.9244    0.0000 C   0  0  0  0  0  0  0  0  0  0  0  0
    6.9109    5.5752    0.0000 C   0  0  0  0  0  0  0  0  0  0  0  0
    4.4293    9.6217    0.0000 O   0  0  0  0  0  0  0  0  0  0  0  0
    9.3936    6.3410    0.0000 O   0  0  0  0  0  0  0  0  0  0  0  0
    8.3733    5.2414    0.0000 C   0  0  0  0  0  0  0  0  0  0  0  0
    5.9157    9.4203    0.0000 C   0  0  0  0  0  0  0  0  0  0  0  0
    6.6265    8.0994    0.0000 N   0  0  0  0  0  0  0  0  0  0  0  0
    8.8154    3.8081    0.0000 O   0  0  0  0  0  0  0  0  0  0  0  0
    6.9523   10.5045    0.0000 C   0  0  0  0  0  0  0  0  0  0  0  0
    8.1024    8.3673    0.0000 C   0  0  0  0  0  0  0  0  0  0  0  0
    9.1866    7.3307    0.0000 O   0  0  0  0  0  0  0  0  0  0  0  0
    8.3037    9.8537    0.0000 C   0  0  0  0  0  0  0  0  0  0  0  0
   -0.4046    5.1432    0.0000 C   0  0  0  0  0  0  0  0  0  0  0  0
    2.7015    3.1776    0.0000 C   0  0  0  0  0  0  0  0  0  0  0  0
    6.7322    3.9892    0.0000 C   0  0  0  0  0  0  0  0  0  0  0  0
   10.2778    3.4743    0.0000 C   0  0  0  0  0  0  0  0  0  0  0  0
  1  3  1  0  0  0  0
  1 22  1  0  0  0  0
  2  3  2  0  0  0  0
  3  4  1  0  0  0  0
  4  6  1  0  0  0  0
  4  5  2  0  0  0  0
  5  7  1  0  0  0  0
  5 23  1  0  0  0  0
  6  9  1  0  0  0  0
  7 10  1  0  0  0  0
  7  8  1  0  0  0  0
  9 16  1  0  0  0  0
  9 11  1  0  0  0  0
 10 11  2  0  0  0  0
 10 24  1  0  0  0  0
 11 14  1  0  0  0  0
 12 15  2  0  0  0  0
 13 14  2  0  0  0  0
 14 17  1  0  0  0  0
 15 18  1  0  0  0  0
 15 16  1  0  0  0  0
 16 19  1  0  0  0  0
 17 25  1  0  0  0  0
 18 21  1  0  0  0  0
 19 21  1  0  0  0  0
 19 20  2  0  0  0  0
M  END
