149046
 OpenBabel03021519512D

 15 15  0  0  0  0  0  0  0  0999 V2000
  -10.9169   -3.3965    0.0000 O   0  0  0  0  0  0  0  0  0  0  0  0
   -7.7693   -0.9495    0.0000 C   0  0  0  0  0  0  0  0  0  0  0  0
   -9.1208   -1.6003    0.0000 C   0  0  0  0  0  0  0  0  0  0  0  0
   -6.4178   -1.6003    0.0000 C   0  0  0  0  0  0  0  0  0  0  0  0
   -6.0841   -3.0627    0.0000 C   0  0  0  0  0  0  0  0  0  0  0  0
   -9.4545   -3.0627    0.0000 C   0  0  0  0  0  0  0  0  0  0  0  0
   -7.0193   -4.2355    0.0000 C   0  0  0  0  0  0  0  0  0  0  0  0
   -8.5193   -4.2355    0.0000 C   0  0  0  0  0  0  0  0  0  0  0  0
   -7.7693    0.5505    0.0000 O   0  0  0  0  0  0  0  0  0  0  0  0
   -9.0683    1.3005    0.0000 C   0  0  0  0  0  0  0  0  0  0  0  0
   -4.6217   -3.3965    0.0000 N   0  0  0  0  0  0  0  0  0  0  0  0
   -3.6014   -2.2969    0.0000 C   0  0  0  0  0  0  0  0  0  0  0  0
   -4.0435   -0.8636    0.0000 O   0  0  0  0  0  0  0  0  0  0  0  0
   -2.1390   -2.6307    0.0000 C   0  0  0  0  0  0  0  0  0  0  0  0
   -1.1188   -1.5312    0.0000 Cl  0  0  0  0  0  0  0  0  0  0  0  0
  1  6  2  0  0  0  0
  2  3  2  0  0  0  0
  2  4  1  0  0  0  0
  2  9  1  0  0  0  0
  3  6  1  0  0  0  0
  4  5  2  0  0  0  0
  5  7  1  0  0  0  0
  5 11  1  0  0  0  0
  6  8  1  0  0  0  0
  7  8  2  0  0  0  0
  9 10  1  0  0  0  0
 11 12  1  0  0  0  0
 12 13  2  0  0  0  0
 12 14  1  0  0  0  0
 14 15  1  0  0  0  0
M  END
