125095
 OpenBabel03021519512D

 26 28  0  0  0  0  0  0  0  0999 V2000
    0.9240    4.3995    0.0000 O   0  0  0  0  0  0  0  0  0  0  0  0
   -0.3750    6.6495    0.0000 O   0  0  0  0  0  0  0  0  0  0  0  0
    0.9240    5.8995    0.0000 C   0  0  0  0  0  0  0  0  0  0  0  0
    2.2231    8.1495    0.0000 C   0  0  0  0  0  0  0  0  0  0  0  0
    2.2231    6.6495    0.0000 C   0  0  0  0  0  0  0  0  0  0  0  0
    3.5221    8.8995    0.0000 C   0  0  0  0  0  0  0  0  0  0  0  0
    3.5221    5.8995    0.0000 C   0  0  0  0  0  0  0  0  0  0  0  0
    4.8212    8.1495    0.0000 C   0  0  0  0  0  0  0  0  0  0  0  0
    4.8212    6.6495    0.0000 C   0  0  0  0  0  0  0  0  0  0  0  0
    6.1202    8.8995    0.0000 N   0  0  0  0  0  0  0  0  0  0  0  0
    6.1202    5.8995    0.0000 C   0  0  0  0  0  0  0  0  0  0  0  0
    7.4192    6.6495    0.0000 C   0  0  0  0  0  0  0  0  0  0  0  0
    7.4192    8.1495    0.0000 C   0  0  0  0  0  0  0  0  0  0  0  0
    8.7183    8.8995    0.0000 C   0  0  0  0  0  0  0  0  0  0  0  0
    8.7183   10.3995    0.0000 C   0  0  0  0  0  0  0  0  0  0  0  0
   10.0173    8.1495    0.0000 C   0  0  0  0  0  0  0  0  0  0  0  0
   10.0173   11.1495    0.0000 C   0  0  0  0  0  0  0  0  0  0  0  0
   11.3163    8.8995    0.0000 C   0  0  0  0  0  0  0  0  0  0  0  0
   11.3163   10.3995    0.0000 C   0  0  0  0  0  0  0  0  0  0  0  0
   11.8654   12.4486    0.0000 O   0  0  0  0  0  0  0  0  0  0  0  0
   13.3654    9.8505    0.0000 O   0  0  0  0  0  0  0  0  0  0  0  0
   12.6154   11.1495    0.0000 S   0  0  0  0  0  0  0  0  0  0  0  0
   13.9144   11.8995    0.0000 F   0  0  0  0  0  0  0  0  0  0  0  0
   -0.3750    3.6495    0.0000 C   0  0  0  0  0  0  0  0  0  0  0  0
   -1.6740    4.3995    0.0000 C   0  0  0  0  0  0  0  0  0  0  0  0
    6.1202    4.3995    0.0000 O   0  0  0  0  0  0  0  0  0  0  0  0
  1  3  1  0  0  0  0
  1 24  1  0  0  0  0
  2  3  2  0  0  0  0
  3  5  1  0  0  0  0
  4  6  2  0  0  0  0
  4  5  1  0  0  0  0
  5  7  2  0  0  0  0
  6  8  1  0  0  0  0
  7  9  1  0  0  0  0
  8 10  1  0  0  0  0
  8  9  2  0  0  0  0
  9 11  1  0  0  0  0
 10 13  2  0  0  0  0
 11 12  2  0  0  0  0
 11 26  1  0  0  0  0
 12 13  1  0  0  0  0
 13 14  1  0  0  0  0
 14 15  2  0  0  0  0
 14 16  1  0  0  0  0
 15 17  1  0  0  0  0
 16 18  2  0  0  0  0
 17 19  2  0  0  0  0
 18 19  1  0  0  0  0
 19 22  1  0  0  0  0
 20 22  2  0  0  0  0
 21 22  2  0  0  0  0
 22 23  1  0  0  0  0
 24 25  1  0  0  0  0
M  END
