380802
 OpenBabel03021519512D

 27 30  0  0  1  0  0  0  0  0999 V2000
   -9.3678  -10.7745    0.0000 C   0  0  0  0  0  0  0  0  0  0  0  0
   -9.3678  -12.2745    0.0000 C   0  0  0  0  0  0  0  0  0  0  0  0
   -8.0688  -10.0245    0.0000 C   0  0  0  0  0  0  0  0  0  0  0  0
   -8.0688  -13.0245    0.0000 C   0  0  0  0  0  0  0  0  0  0  0  0
   -6.7697   -6.2745    0.0000 C   0  0  0  0  0  0  0  0  0  0  0  0
   -6.7697   -7.7745    0.0000 C   0  0  0  0  0  0  0  0  0  0  0  0
   -6.7697  -10.7745    0.0000 C   0  0  0  0  0  0  0  0  0  0  0  0
   -6.7697  -12.2745    0.0000 C   0  0  0  0  0  0  0  0  0  0  0  0
   -5.4707   -8.5245    0.0000 N   0  0  0  0  0  0  0  0  0  0  0  0
   -5.4707  -10.0245    0.0000 C   0  0  0  0  0  0  0  0  0  0  0  0
   -5.4707   -5.5245    0.0000 C   0  0  0  0  0  0  0  0  0  0  0  0
   -4.1716  -10.7745    0.0000 N   0  0  0  0  0  0  0  0  0  0  0  0
   -4.1716   -7.7745    0.0000 C   0  0  3  0  0  0  0  0  0  0  0  0
   -4.1717   -6.2745    0.0000 C   0  0  0  0  0  0  0  0  0  0  0  0
   -2.8726  -10.0245    0.0000 O   0  0  0  0  0  0  0  0  0  0  0  0
   -2.8726   -8.5245    0.0000 N   0  0  0  0  0  0  0  0  0  0  0  0
   -1.5736   -7.7745    0.0000 C   0  0  0  0  0  0  0  0  0  0  0  0
   -1.5736   -6.2745    0.0000 C   0  0  0  0  0  0  0  0  0  0  0  0
   -0.2745   -5.5245    0.0000 C   0  0  0  0  0  0  0  0  0  0  0  0
   -0.2745   -8.5245    0.0000 N   0  0  0  0  0  0  0  0  0  0  0  0
    1.0245   -7.7745    0.0000 C   0  0  0  0  0  0  0  0  0  0  0  0
    1.0245   -6.2745    0.0000 C   0  0  0  0  0  0  0  0  0  0  0  0
   -8.0688   -5.5245    0.0000 C   0  0  0  0  0  0  0  0  0  0  0  0
   -8.0688  -14.5245    0.0000 N   0  3  0  0  0  0  0  0  0  0  0  0
   -9.3678  -15.2745    0.0000 O   0  5  0  0  0  0  0  0  0  0  0  0
   -6.7697  -15.2745    0.0000 O   0  0  0  0  0  0  0  0  0  0  0  0
    2.3235   -5.5245    0.0000 C   0  0  0  0  0  0  0  0  0  0  0  0
  1  3  2  0  0  0  0
  1  2  1  0  0  0  0
  2  4  2  0  0  0  0
  3  7  1  0  0  0  0
  4  8  1  0  0  0  0
  4 24  1  0  0  0  0
  5 11  1  0  0  0  0
  5  6  2  0  0  0  0
  5 23  1  0  0  0  0
  6  9  1  0  0  0  0
  7 10  1  0  0  0  0
  7  8  2  0  0  0  0
  9 13  1  0  0  0  0
  9 10  1  0  0  0  0
 10 12  2  0  0  0  0
 11 14  2  0  0  0  0
 12 15  1  0  0  0  0
 13 14  1  0  0  0  0
 13 16  1  0  0  0  0
 15 16  1  0  0  0  0
 16 17  1  0  0  0  0
 17 18  2  0  0  0  0
 17 20  1  0  0  0  0
 18 19  1  0  0  0  0
 19 22  2  0  0  0  0
 20 21  2  0  0  0  0
 21 22  1  0  0  0  0
 22 27  1  0  0  0  0
 24 25  1  0  0  0  0
 24 26  2  0  0  0  0
M  CHG  2  24   1  25  -1
M  END
