211340
 OpenBabel03021519512D

 21 23  0  0  0  0  0  0  0  0999 V2000
    6.5522    0.5146    0.0000 C   0  0  0  0  0  0  0  0  0  0  0  0
    6.2917   -0.9626    0.0000 C   0  0  0  0  0  0  0  0  0  0  0  0
    4.8822   -1.4756    0.0000 C   0  0  0  0  0  0  0  0  0  0  0  0
    3.7331   -0.5115    0.0000 C   0  0  0  0  0  0  0  0  0  0  0  0
    3.9936    0.9658    0.0000 C   0  0  0  0  0  0  0  0  0  0  0  0
    5.4031    1.4788    0.0000 C   0  0  0  0  0  0  0  0  0  0  0  0
    2.3236   -1.0245    0.0000 C   0  0  0  0  0  0  0  0  0  0  0  0
    2.3236   -2.5245    0.0000 S   0  0  0  0  0  0  0  0  0  0  0  0
    3.6226   -4.7745    0.0000 N   0  0  0  0  0  0  0  0  0  0  0  0
    4.9217   -5.5245    0.0000 C   0  0  0  0  0  0  0  0  0  0  0  0
    6.2207   -4.7745    0.0000 C   0  0  0  0  0  0  0  0  0  0  0  0
    6.2207   -3.2745    0.0000 C   0  0  0  0  0  0  0  0  0  0  0  0
    4.9217   -2.5245    0.0000 N   0  0  0  0  0  0  0  0  0  0  0  0
    3.6226   -3.2745    0.0000 C   0  0  0  0  0  0  0  0  0  0  0  0
    7.6473   -5.2380    0.0000 N   0  0  0  0  0  0  0  0  0  0  0  0
    8.5290   -4.0245    0.0000 C   0  0  0  0  0  0  0  0  0  0  0  0
    7.6473   -2.8110    0.0000 N   0  0  0  0  0  0  0  0  0  0  0  0
    2.8445    1.9299    0.0000 N   0  3  0  0  0  0  0  0  0  0  0  0
    3.1049    3.4071    0.0000 O   0  5  0  0  0  0  0  0  0  0  0  0
    1.4349    1.4169    0.0000 O   0  0  0  0  0  0  0  0  0  0  0  0
    4.9217   -7.0245    0.0000 O   0  0  0  0  0  0  0  0  0  0  0  0
  1  2  2  0  0  0  0
  1  6  1  0  0  0  0
  2  3  1  0  0  0  0
  3  4  2  0  0  0  0
  4  5  1  0  0  0  0
  4  7  1  0  0  0  0
  5  6  2  0  0  0  0
  5 18  1  0  0  0  0
  7  8  1  0  0  0  0
  8 14  1  0  0  0  0
  9 10  2  0  0  0  0
  9 14  1  0  0  0  0
 10 11  1  0  0  0  0
 10 21  1  0  0  0  0
 11 12  2  0  0  0  0
 11 15  1  0  0  0  0
 12 13  1  0  0  0  0
 12 17  1  0  0  0  0
 13 14  2  0  0  0  0
 15 16  2  0  0  0  0
 16 17  1  0  0  0  0
 18 19  1  0  0  0  0
 18 20  2  0  0  0  0
M  CHG  2  18   1  19  -1
M  END
