6268
 OpenBabel03021519512D

 24 26  0  0  0  0  0  0  0  0999 V2000
  -12.4413   -3.7500    0.0000 N   0  0  0  0  0  0  0  0  0  0  0  0
  -11.1423   -3.0000    0.0000 N   0  0  0  0  0  0  0  0  0  0  0  0
   -5.9461   -3.0000    0.0000 N   0  0  0  0  0  0  0  0  0  0  0  0
   -4.6471   -3.7500    0.0000 N   0  0  0  0  0  0  0  0  0  0  0  0
   -8.5442   -3.0000    0.0000 C   0  0  0  0  0  0  0  0  0  0  0  0
   -7.2452   -3.7500    0.0000 C   0  0  0  0  0  0  0  0  0  0  0  0
   -9.8433   -3.7500    0.0000 C   0  0  0  0  0  0  0  0  0  0  0  0
   -7.2452   -5.2500    0.0000 C   0  0  0  0  0  0  0  0  0  0  0  0
   -9.8433   -5.2500    0.0000 C   0  0  0  0  0  0  0  0  0  0  0  0
   -8.5442   -6.0000    0.0000 C   0  0  0  0  0  0  0  0  0  0  0  0
   -3.3481   -1.5000    0.0000 C   0  0  0  0  0  0  0  0  0  0  0  0
   -3.3481   -3.0000    0.0000 C   0  0  0  0  0  0  0  0  0  0  0  0
   -2.0490   -0.7500    0.0000 C   0  0  0  0  0  0  0  0  0  0  0  0
   -0.7500   -1.5000    0.0000 C   0  0  0  0  0  0  0  0  0  0  0  0
   -2.0490   -3.7500    0.0000 C   0  0  0  0  0  0  0  0  0  0  0  0
   -0.7500   -3.0000    0.0000 C   0  0  0  0  0  0  0  0  0  0  0  0
  -13.7404   -1.5000    0.0000 C   0  0  0  0  0  0  0  0  0  0  0  0
  -13.7404   -3.0000    0.0000 C   0  0  0  0  0  0  0  0  0  0  0  0
  -15.0394   -0.7500    0.0000 C   0  0  0  0  0  0  0  0  0  0  0  0
  -15.0394   -3.7500    0.0000 C   0  0  0  0  0  0  0  0  0  0  0  0
  -16.3385   -1.5000    0.0000 C   0  0  0  0  0  0  0  0  0  0  0  0
  -16.3385   -3.0000    0.0000 C   0  0  0  0  0  0  0  0  0  0  0  0
  -11.1423   -6.0000    0.0000 O   0  0  0  0  0  0  0  0  0  0  0  0
   -8.5442   -1.5000    0.0000 O   0  0  0  0  0  0  0  0  0  0  0  0
  1 18  1  0  0  0  0
  1  2  2  0  0  0  0
  2  7  1  0  0  0  0
  3  6  1  0  0  0  0
  3  4  2  0  0  0  0
  4 12  1  0  0  0  0
  5  6  2  0  0  0  0
  5  7  1  0  0  0  0
  5 24  1  0  0  0  0
  6  8  1  0  0  0  0
  7  9  2  0  0  0  0
  8 10  2  0  0  0  0
  9 10  1  0  0  0  0
  9 23  1  0  0  0  0
 11 13  2  0  0  0  0
 11 12  1  0  0  0  0
 12 15  2  0  0  0  0
 13 14  1  0  0  0  0
 14 16  2  0  0  0  0
 15 16  1  0  0  0  0
 17 19  2  0  0  0  0
 17 18  1  0  0  0  0
 18 20  2  0  0  0  0
 19 21  1  0  0  0  0
 20 22  1  0  0  0  0
 21 22  2  0  0  0  0
M  END
