114449
 OpenBabel03021519512D

 23 24  0  0  0  0  0  0  0  0999 V2000
   -4.8056    7.3386    0.0000 O   0  0  0  0  0  0  0  0  0  0  0  0
   -4.5059    4.7579    0.0000 N   0  0  0  0  0  0  0  0  0  0  0  0
   -2.4208    6.3078    0.0000 N   0  0  0  0  0  0  0  0  0  0  0  0
   -0.0360    5.2770    0.0000 O   0  0  0  0  0  0  0  0  0  0  0  0
   -1.2263    2.5232    0.0000 N   0  0  0  0  0  0  0  0  0  0  0  0
    0.2637    2.6963    0.0000 N   0  0  0  0  0  0  0  0  0  0  0  0
   -3.6111    3.5540    0.0000 C   0  0  0  0  0  0  0  0  0  0  0  0
   -2.1211    3.7271    0.0000 C   0  0  0  0  0  0  0  0  0  0  0  0
   -1.5260    5.1040    0.0000 C   0  0  0  0  0  0  0  0  0  0  0  0
    1.0070    0.2068    0.0000 C   0  0  0  0  0  0  0  0  0  0  0  0
    2.0973   -0.8234    0.0000 C   0  0  0  0  0  0  0  0  0  0  0  0
    1.3540    1.6661    0.0000 C   0  0  0  0  0  0  0  0  0  0  0  0
    3.5346   -0.3942    0.0000 C   0  0  0  0  0  0  0  0  0  0  0  0
    2.7913    2.0952    0.0000 C   0  0  0  0  0  0  0  0  0  0  0  0
    3.8816    1.0651    0.0000 C   0  0  0  0  0  0  0  0  0  0  0  0
   -3.9108    6.1348    0.0000 C   0  0  0  0  0  0  0  0  0  0  0  0
   -5.9959    4.5849    0.0000 C   0  0  0  0  0  0  0  0  0  0  0  0
   -4.2062    2.1772    0.0000 N   0  0  0  0  0  0  0  0  0  0  0  0
   -1.8257    7.6847    0.0000 C   0  0  0  0  0  0  0  0  0  0  0  0
    4.6249   -1.4244    0.0000 S   0  0  0  0  0  0  0  0  0  0  0  0
    5.6551   -0.3341    0.0000 O   0  0  0  0  0  0  0  0  0  0  0  0
    3.5948   -2.5147    0.0000 O   0  0  0  0  0  0  0  0  0  0  0  0
    5.7152   -2.4546    0.0000 N   0  0  0  0  0  0  0  0  0  0  0  0
  1 16  2  0  0  0  0
  2  7  1  0  0  0  0
  2 16  1  0  0  0  0
  2 17  1  0  0  0  0
  3  9  1  0  0  0  0
  3 16  1  0  0  0  0
  3 19  1  0  0  0  0
  4  9  2  0  0  0  0
  5  8  1  0  0  0  0
  5  6  2  0  0  0  0
  6 12  1  0  0  0  0
  7  8  2  0  0  0  0
  7 18  1  0  0  0  0
  8  9  1  0  0  0  0
 10 11  2  0  0  0  0
 10 12  1  0  0  0  0
 11 13  1  0  0  0  0
 12 14  2  0  0  0  0
 13 15  2  0  0  0  0
 13 20  1  0  0  0  0
 14 15  1  0  0  0  0
 20 21  2  0  0  0  0
 20 22  2  0  0  0  0
 20 23  1  0  0  0  0
M  END
