166375
 OpenBabel03021519512D

 30 30  0  0  0  0  0  0  0  0999 V2000
   -6.7292  -10.7512    0.0000 Cl  0  0  0  0  0  0  0  0  0  0  0  0
   -6.7293   -6.2512    0.0000 C   0  0  0  0  0  0  0  0  0  0  0  0
   -8.0283   -7.0012    0.0000 C   0  0  0  0  0  0  0  0  0  0  0  0
   -5.4302   -7.0012    0.0000 C   0  0  0  0  0  0  0  0  0  0  0  0
   -5.4302   -8.5012    0.0000 C   0  0  0  0  0  0  0  0  0  0  0  0
   -8.0283   -8.5012    0.0000 C   0  0  0  0  0  0  0  0  0  0  0  0
   -6.7293   -9.2512    0.0000 C   0  0  0  0  0  0  0  0  0  0  0  0
   -4.1446  -11.6250    0.0000 C   0  0  0  0  0  0  0  0  0  0  0  0
   -4.8946  -12.9240    0.0000 C   0  0  0  0  0  0  0  0  0  0  0  0
   -2.6446  -11.6250    0.0000 C   0  0  0  0  0  0  0  0  0  0  0  0
   -1.8946  -12.9240    0.0000 C   0  0  0  0  0  0  0  0  0  0  0  0
   -4.1446  -14.2230    0.0000 C   0  0  0  0  0  0  0  0  0  0  0  0
   -2.6446  -14.2230    0.0000 C   0  0  0  0  0  0  0  0  0  0  0  0
   -1.8946  -10.3259    0.0000 N   0  0  0  0  0  0  0  0  0  0  0  0
   -0.3946  -10.3259    0.0000 S   0  0  0  0  0  0  0  0  0  0  0  0
   -0.3946  -11.8259    0.0000 O   0  0  0  0  0  0  0  0  0  0  0  0
   -0.3946   -8.8259    0.0000 O   0  0  0  0  0  0  0  0  0  0  0  0
    1.1054  -10.3259    0.0000 O   0  0  0  0  0  0  0  0  0  0  0  0
  -10.6264   -8.5012    0.0000 O   0  0  0  0  0  0  0  0  0  0  0  0
   -9.3273   -9.2512    0.0000 C   0  0  0  0  0  0  0  0  0  0  0  0
   -6.7293   -4.7512    0.0000 C   0  0  0  0  0  0  0  0  0  0  0  0
   -4.1312   -6.2512    0.0000 N   0  0  0  0  0  0  0  0  0  0  0  0
   -4.1312   -9.2512    0.0000 C   0  0  0  0  0  0  0  0  0  0  0  0
   -2.8321   -7.0012    0.0000 C   0  0  0  0  0  0  0  0  0  0  0  0
   -1.5331   -6.2512    0.0000 C   0  0  0  0  0  0  0  0  0  0  0  0
   -1.5331   -4.7512    0.0000 N   0  0  0  0  0  0  0  0  0  0  0  0
   -2.8321   -4.0012    0.0000 C   0  0  0  0  0  0  0  0  0  0  0  0
   -2.8321   -2.5012    0.0000 C   0  0  0  0  0  0  0  0  0  0  0  0
   -0.2341   -4.0012    0.0000 C   0  0  0  0  0  0  0  0  0  0  0  0
   -0.2341   -2.5012    0.0000 C   0  0  0  0  0  0  0  0  0  0  0  0
  1  7  1  0  0  0  0
  2  4  2  0  0  0  0
  2  3  1  0  0  0  0
  2 21  1  0  0  0  0
  3  6  2  0  0  0  0
  4  5  1  0  0  0  0
  4 22  1  0  0  0  0
  5  7  2  0  0  0  0
  5 23  1  0  0  0  0
  6  7  1  0  0  0  0
  6 20  1  0  0  0  0
  8  9  1  0  0  0  0
  8 10  1  0  0  0  0
  9 12  1  0  0  0  0
 10 11  1  0  0  0  0
 10 14  1  0  0  0  0
 11 13  1  0  0  0  0
 12 13  1  0  0  0  0
 14 15  1  0  0  0  0
 15 16  2  0  0  0  0
 15 17  2  0  0  0  0
 15 18  1  0  0  0  0
 19 20  1  0  0  0  0
 22 24  1  0  0  0  0
 24 25  1  0  0  0  0
 25 26  1  0  0  0  0
 26 27  1  0  0  0  0
 26 29  1  0  0  0  0
 27 28  1  0  0  0  0
 29 30  1  0  0  0  0
M  END
