21678
 OpenBabel03021519512D

 18 19  0  0  0  0  0  0  0  0999 V2000
   -6.3053   -4.4680    0.0000 H   0  0  0  0  0  0  0  0  0  0  0  0
   -4.8254   -4.2233    0.0000 N   0  0  0  0  0  0  0  0  0  0  0  0
   -3.7576   -5.2768    0.0000 N   0  0  0  0  0  0  0  0  0  0  0  0
   -1.6170   -2.0390    0.0000 N   0  0  0  0  0  0  0  0  0  0  0  0
   -0.1655   -2.4174    0.0000 N   0  0  0  0  0  0  0  0  0  0  0  0
   -4.1535   -2.8822    0.0000 C   0  0  0  0  0  0  0  0  0  0  0  0
   -2.6704   -3.1069    0.0000 C   0  0  0  0  0  0  0  0  0  0  0  0
   -2.4257   -4.5868    0.0000 C   0  0  0  0  0  0  0  0  0  0  0  0
    0.9165   -0.0554    0.0000 C   0  0  0  0  0  0  0  0  0  0  0  0
    1.0574   -1.5488    0.0000 C   0  0  0  0  0  0  0  0  0  0  0  0
    2.1394    0.8133    0.0000 C   0  0  0  0  0  0  0  0  0  0  0  0
    3.5031    0.1886    0.0000 C   0  0  0  0  0  0  0  0  0  0  0  0
    2.4211   -2.1735    0.0000 C   0  0  0  0  0  0  0  0  0  0  0  0
    3.6440   -1.3048    0.0000 C   0  0  0  0  0  0  0  0  0  0  0  0
   -4.8435   -1.5504    0.0000 N   0  0  0  0  0  0  0  0  0  0  0  0
   -1.0846   -5.2587    0.0000 N   0  0  0  0  0  0  0  0  0  0  0  0
    4.7260    1.0572    0.0000 O   0  0  0  0  0  0  0  0  0  0  0  0
    4.5852    2.5506    0.0000 C   0  0  0  0  0  0  0  0  0  0  0  0
  1  2  1  0  0  0  0
  2  3  1  0  0  0  0
  2  6  1  0  0  0  0
  3  8  2  0  0  0  0
  4  7  1  0  0  0  0
  4  5  2  0  0  0  0
  5 10  1  0  0  0  0
  6  7  2  0  0  0  0
  6 15  1  0  0  0  0
  7  8  1  0  0  0  0
  8 16  1  0  0  0  0
  9 11  2  0  0  0  0
  9 10  1  0  0  0  0
 10 13  2  0  0  0  0
 11 12  1  0  0  0  0
 12 14  2  0  0  0  0
 12 17  1  0  0  0  0
 13 14  1  0  0  0  0
 17 18  1  0  0  0  0
M  END
