102288
 OpenBabel03021519512D

 15 17  0  0  1  0  0  0  0  0999 V2000
    9.2848    5.2700    0.0000 C   0  0  0  0  0  0  0  0  0  0  0  0
   10.1664    4.0565    0.0000 C   0  0  0  0  0  0  0  0  0  0  0  0
    7.8582    4.8065    0.0000 C   0  0  3  0  0  0  0  0  0  0  0  0
    6.5591    5.5565    0.0000 C   0  0  3  0  0  0  0  0  0  0  0  0
    5.2601    4.8065    0.0000 C   0  0  0  0  0  0  0  0  0  0  0  0
    7.4252    4.0565    0.0000 C   0  0  0  0  0  0  0  0  0  0  0  0
    9.2848    2.8429    0.0000 C   0  0  0  0  0  0  0  0  0  0  0  0
    7.8582    3.3065    0.0000 C   0  0  3  0  0  0  0  0  0  0  0  0
    5.2601    3.3065    0.0000 C   0  0  0  0  0  0  0  0  0  0  0  0
    6.5591    2.5565    0.0000 C   0  0  3  0  0  0  0  0  0  0  0  0
    0.0640    3.3065    0.0000 N   0  0  0  0  0  0  0  0  0  0  0  0
    1.3630    2.5565    0.0000 C   0  0  0  0  0  0  0  0  0  0  0  0
    1.3630    1.0565    0.0000 O   0  0  0  0  0  0  0  0  0  0  0  0
    2.6620    3.3065    0.0000 N   0  0  0  0  0  0  0  0  0  0  0  0
    3.9611    2.5565    0.0000 N   0  0  0  0  0  0  0  0  0  0  0  0
  1  2  1  0  0  0  0
  1  3  1  0  0  0  0
  2  7  2  0  0  0  0
  3  4  1  0  0  0  0
  3  8  1  0  0  0  0
  4  5  1  0  0  0  0
  4  6  1  0  0  0  0
  5  9  1  0  0  0  0
  6 10  1  0  0  0  0
  7  8  1  0  0  0  0
  8 10  1  0  0  0  0
  9 10  1  0  0  0  0
  9 15  2  0  0  0  0
 11 12  1  0  0  0  0
 12 13  2  0  0  0  0
 12 14  1  0  0  0  0
 14 15  1  0  0  0  0
M  END
