367474
 OpenBabel03021519512D

 22 24  0  0  0  0  0  0  0  0999 V2000
    4.0245    2.8726    0.0000 C   0  0  0  0  0  0  0  0  0  0  0  0
    3.2745    1.5736    0.0000 C   0  0  0  0  0  0  0  0  0  0  0  0
    5.5245    2.8726    0.0000 C   0  0  0  0  0  0  0  0  0  0  0  0
    4.0245    0.2745    0.0000 N   0  0  0  0  0  0  0  0  0  0  0  0
    6.2745    4.1716    0.0000 O   0  0  0  0  0  0  0  0  0  0  0  0
    3.2745   -1.0245    0.0000 H   0  0  0  0  0  0  0  0  0  0  0  0
    5.5245    0.2745    0.0000 C   0  0  0  0  0  0  0  0  0  0  0  0
    6.2745    1.5736    0.0000 N   0  0  0  0  0  0  0  0  0  0  0  0
    6.5282   -0.8402    0.0000 C   0  0  0  0  0  0  0  0  0  0  0  0
    7.7417    1.2617    0.0000 N   0  0  0  0  0  0  0  0  0  0  0  0
    7.8985   -0.2301    0.0000 C   0  0  0  0  0  0  0  0  0  0  0  0
    9.1976   -0.9801    0.0000 C   0  0  0  0  0  0  0  0  0  0  0  0
    9.1976   -2.4801    0.0000 C   0  0  0  0  0  0  0  0  0  0  0  0
   10.4966   -3.2301    0.0000 C   0  0  0  0  0  0  0  0  0  0  0  0
   10.4966   -0.2301    0.0000 C   0  0  0  0  0  0  0  0  0  0  0  0
   11.7957   -0.9801    0.0000 C   0  0  0  0  0  0  0  0  0  0  0  0
   11.7957   -2.4801    0.0000 C   0  0  0  0  0  0  0  0  0  0  0  0
    1.7745    1.5736    0.0000 C   0  0  0  0  0  0  0  0  0  0  0  0
   13.0947   -3.2301    0.0000 C   0  0  0  0  0  0  0  0  0  0  0  0
   12.3447   -4.5291    0.0000 C   0  0  0  0  0  0  0  0  0  0  0  0
   13.8447   -1.9310    0.0000 C   0  0  0  0  0  0  0  0  0  0  0  0
   14.3937   -3.9801    0.0000 C   0  0  0  0  0  0  0  0  0  0  0  0
  1  3  1  0  0  0  0
  1  2  2  0  0  0  0
  2  4  1  0  0  0  0
  2 18  1  0  0  0  0
  3  5  2  0  0  0  0
  3  8  1  0  0  0  0
  4  7  1  0  0  0  0
  4  6  1  0  0  0  0
  7  8  1  0  0  0  0
  7  9  2  0  0  0  0
  8 10  1  0  0  0  0
  9 11  1  0  0  0  0
 10 11  2  0  0  0  0
 11 12  1  0  0  0  0
 12 15  1  0  0  0  0
 12 13  2  0  0  0  0
 13 14  1  0  0  0  0
 14 17  2  0  0  0  0
 15 16  2  0  0  0  0
 16 17  1  0  0  0  0
 17 19  1  0  0  0  0
 19 20  1  0  0  0  0
 19 21  1  0  0  0  0
 19 22  1  0  0  0  0
M  END
