180964
 OpenBabel03021519512D

 20 21  0  0  0  0  0  0  0  0999 V2000
   -2.0490    7.5000    0.0000 C   0  0  0  0  0  0  0  0  0  0  0  0
   -0.7500    6.7500    0.0000 C   0  0  0  0  0  0  0  0  0  0  0  0
   -3.3481    6.7500    0.0000 C   0  0  0  0  0  0  0  0  0  0  0  0
   -4.6471    7.5000    0.0000 C   0  0  0  0  0  0  0  0  0  0  0  0
   -5.9461    6.7500    0.0000 C   0  0  0  0  0  0  0  0  0  0  0  0
   -0.7500    5.2500    0.0000 C   0  0  0  0  0  0  0  0  0  0  0  0
   -3.3481    5.2500    0.0000 C   0  0  0  0  0  0  0  0  0  0  0  0
   -5.9461    5.2500    0.0000 C   0  0  0  0  0  0  0  0  0  0  0  0
   -2.0490    4.5000    0.0000 C   0  0  0  0  0  0  0  0  0  0  0  0
   -4.6471    4.5000    0.0000 C   0  0  0  0  0  0  0  0  0  0  0  0
   -7.2452    7.5000    0.0000 C   0  0  0  0  0  0  0  0  0  0  0  0
   -7.2452    4.5000    0.0000 C   0  0  0  0  0  0  0  0  0  0  0  0
   -2.0490    9.0000    0.0000 O   0  0  0  0  0  0  0  0  0  0  0  0
   -3.3481    9.7500    0.0000 C   0  0  0  0  0  0  0  0  0  0  0  0
   -4.6471    9.0000    0.0000 O   0  0  0  0  0  0  0  0  0  0  0  0
   -3.3481   11.2500    0.0000 C   0  0  0  0  0  0  0  0  0  0  0  0
   -2.0490    3.0000    0.0000 O   0  0  0  0  0  0  0  0  0  0  0  0
   -3.3481    2.2500    0.0000 C   0  0  0  0  0  0  0  0  0  0  0  0
   -4.6471    3.0000    0.0000 O   0  0  0  0  0  0  0  0  0  0  0  0
   -3.3481    0.7500    0.0000 C   0  0  0  0  0  0  0  0  0  0  0  0
  1  2  2  0  0  0  0
  1  3  1  0  0  0  0
  1 13  1  0  0  0  0
  2  6  1  0  0  0  0
  3  7  2  0  0  0  0
  3  4  1  0  0  0  0
  4  5  1  0  0  0  0
  5  8  2  0  0  0  0
  5 11  1  0  0  0  0
  6  9  2  0  0  0  0
  7 10  1  0  0  0  0
  7  9  1  0  0  0  0
  8 10  1  0  0  0  0
  8 12  1  0  0  0  0
  9 17  1  0  0  0  0
 13 14  1  0  0  0  0
 14 15  2  0  0  0  0
 14 16  1  0  0  0  0
 17 18  1  0  0  0  0
 18 19  2  0  0  0  0
 18 20  1  0  0  0  0
M  END
