37641
 OpenBabel03021519512D

 38 43  0  0  1  0  0  0  0  0999 V2000
   -3.3894  -17.5252    0.0000 O   0  0  0  0  0  0  0  0  0  0  0  0
   -0.0673  -13.2574    0.0000 F   0  0  0  0  0  0  0  0  0  0  0  0
   -0.3389  -10.6736    0.0000 H   0  0  0  0  0  0  0  0  0  0  0  0
    2.1566  -11.6315    0.0000 H   0  0  0  0  0  0  0  0  0  0  0  0
   -1.5128   -5.8577    0.0000 O   0  0  0  0  0  0  0  0  0  0  0  0
    1.1529   -6.5897    0.0000 O   0  0  0  0  0  0  0  0  0  0  0  0
    3.4612   -7.3397    0.0000 O   0  0  0  0  0  0  0  0  0  0  0  0
    2.5795   -6.1262    0.0000 C   0  0  3  0  0  0  0  0  0  0  0  0
    1.1529   -8.0897    0.0000 C   0  0  2  0  0  0  0  0  0  0  0  0
    2.5795   -8.5533    0.0000 C   0  0  1  0  0  0  0  0  0  0  0  0
    0.2713   -9.3033    0.0000 C   0  0  1  0  0  0  0  0  0  0  0  0
   -1.2205   -9.4601    0.0000 C   0  0  0  0  0  0  0  0  0  0  0  0
   -1.8306  -10.8304    0.0000 C   0  0  1  0  0  0  0  0  0  0  0  0
    2.5795  -10.0533    0.0000 C   0  0  0  0  0  0  0  0  0  0  0  0
    1.1529  -10.5168    0.0000 C   0  0  1  0  0  0  0  0  0  0  0  0
   -0.9490  -12.0439    0.0000 C   0  0  2  0  0  0  0  0  0  0  0  0
    0.5428  -11.8871    0.0000 C   0  0  1  0  0  0  0  0  0  0  0  0
   -1.5591  -13.4142    0.0000 C   0  0  1  0  0  0  0  0  0  0  0  0
   -3.0509  -13.5710    0.0000 C   0  0  0  0  0  0  0  0  0  0  0  0
   -3.6610  -14.9413    0.0000 C   0  0  0  0  0  0  0  0  0  0  0  0
    1.4245  -13.1007    0.0000 C   0  0  0  0  0  0  0  0  0  0  0  0
   -0.6774  -14.6278    0.0000 C   0  0  0  0  0  0  0  0  0  0  0  0
   -2.7793  -16.1549    0.0000 C   0  0  0  0  0  0  0  0  0  0  0  0
    0.8144  -14.4710    0.0000 C   0  0  0  0  0  0  0  0  0  0  0  0
   -1.2875  -15.9981    0.0000 C   0  0  0  0  0  0  0  0  0  0  0  0
   -3.3224  -10.9872    0.0000 O   0  0  0  0  0  0  0  0  0  0  0  0
   -2.4408  -12.2007    0.0000 C   0  0  0  0  0  0  0  0  0  0  0  0
   -1.2009   -7.3249    0.0000 C   0  0  0  0  0  0  0  0  0  0  0  0
   -2.3156   -8.3286    0.0000 C   0  0  0  0  0  0  0  0  0  0  0  0
   -3.7422   -7.8651    0.0000 O   0  0  0  0  0  0  0  0  0  0  0  0
   -0.4787   -8.0042    0.0000 C   0  0  0  0  0  0  0  0  0  0  0  0
    1.9694   -4.7559    0.0000 C   0  0  0  0  0  0  0  0  0  0  0  0
    3.8786   -5.3762    0.0000 C   0  0  0  0  0  0  0  0  0  0  0  0
    3.8785   -3.8762    0.0000 C   0  0  0  0  0  0  0  0  0  0  0  0
    5.1776   -3.1262    0.0000 C   0  0  0  0  0  0  0  0  0  0  0  0
    6.4766   -3.8762    0.0000 C   0  0  0  0  0  0  0  0  0  0  0  0
    6.4766   -5.3762    0.0000 C   0  0  0  0  0  0  0  0  0  0  0  0
    5.1776   -6.1262    0.0000 C   0  0  0  0  0  0  0  0  0  0  0  0
  1 23  2  0  0  0  0
  5 28  2  0  0  0  0
  6  8  1  0  0  0  0
  7  8  1  0  0  0  0
  8 32  1  0  0  0  0
  8 33  1  0  0  0  0
  9  6  1  0  0  0  0
  9 10  1  0  0  0  0
  9 11  1  0  0  0  0
  9 28  1  1  0  0  0
 10  7  1  6  0  0  0
 10 14  1  0  0  0  0
 11 12  1  0  0  0  0
 11 15  1  0  0  0  0
 11 31  1  1  0  0  0
 12 13  1  0  0  0  0
 13 16  1  0  0  0  0
 13 26  1  1  0  0  0
 14 15  1  0  0  0  0
 15  4  1  6  0  0  0
 15 17  1  0  0  0  0
 16  2  1  6  0  0  0
 16 18  1  0  0  0  0
 16 17  1  0  0  0  0
 17  3  1  1  0  0  0
 17 21  1  0  0  0  0
 18 19  1  0  0  0  0
 18 22  1  0  0  0  0
 18 27  1  1  0  0  0
 19 20  2  0  0  0  0
 20 23  1  0  0  0  0
 21 24  1  0  0  0  0
 22 25  2  0  0  0  0
 22 24  1  0  0  0  0
 23 25  1  0  0  0  0
 28 29  1  0  0  0  0
 29 30  1  0  0  0  0
 33 34  2  0  0  0  0
 33 38  1  0  0  0  0
 34 35  1  0  0  0  0
 35 36  2  0  0  0  0
 36 37  1  0  0  0  0
 37 38  2  0  0  0  0
M  END
