10772
 OpenBabel03021519512D

 13 13  0  0  1  0  0  0  0  0999 V2000
   -4.9749   -9.5541    0.0000 N   0  0  0  0  0  0  0  0  0  0  0  0
   -5.7249   -8.2550    0.0000 C   0  0  0  0  0  0  0  0  0  0  0  0
   -7.2249   -8.2550    0.0000 O   0  0  0  0  0  0  0  0  0  0  0  0
   -4.9749   -6.9560    0.0000 N   0  0  0  0  0  0  0  0  0  0  0  0
   -3.4749   -6.9560    0.0000 C   0  0  3  0  0  0  0  0  0  0  0  0
   -2.7249   -8.2550    0.0000 C   0  0  0  0  0  0  0  0  0  0  0  0
   -2.7249   -5.6569    0.0000 C   0  0  0  0  0  0  0  0  0  0  0  0
   -1.2249   -5.6569    0.0000 C   0  0  0  0  0  0  0  0  0  0  0  0
    0.4549   -6.1106    0.0000 C   0  0  0  0  0  0  0  0  0  0  0  0
    2.1341   -4.4381    0.0000 C   0  0  0  0  0  0  0  0  0  0  0  0
    1.6870   -2.7565    0.0000 C   0  0  0  0  0  0  0  0  0  0  0  0
    1.2959   -4.2046    0.0000 C   0  0  0  0  0  0  0  0  0  0  0  0
    0.2332   -5.2631    0.0000 C   0  0  0  0  0  0  0  0  0  0  0  0
  1  2  1  0  0  0  0
  2  3  2  0  0  0  0
  2  4  1  0  0  0  0
  4  5  1  0  0  0  0
  5  6  1  0  0  0  0
  5  7  1  0  0  0  0
  7  8  1  0  0  0  0
  8  9  2  0  0  0  0
  8 13  1  0  0  0  0
  9 10  1  0  0  0  0
 10 11  2  0  0  0  0
 11 12  1  0  0  0  0
 12 13  2  0  0  0  0
M  END
