407282
 OpenBabel03021519512D

 15 17  0  0  1  0  0  0  0  0999 V2000
    2.0244    1.1972    0.0000 H   0  0  0  0  0  0  0  0  0  0  0  0
    3.3235    0.4472    0.0000 N   0  0  0  0  0  0  0  0  0  0  0  0
    7.2206   -1.8028    0.0000 N   0  0  0  0  0  0  0  0  0  0  0  0
    8.5196   -4.0528    0.0000 O   0  0  0  0  0  0  0  0  0  0  0  0
    5.9215    0.4472    0.0000 C   0  0  2  0  0  0  0  0  0  0  0  0
    7.2206   -0.3028    0.0000 C   0  0  0  0  0  0  0  0  0  0  0  0
    5.9215   -1.0528    0.0000 C   0  0  0  0  0  0  0  0  0  0  0  0
    4.6225    1.1972    0.0000 C   0  0  0  0  0  0  0  0  0  0  0  0
    8.5196    0.4472    0.0000 C   0  0  0  0  0  0  0  0  0  0  0  0
    9.8187   -0.3028    0.0000 C   0  0  0  0  0  0  0  0  0  0  0  0
    9.8186   -1.8028    0.0000 C   0  0  0  0  0  0  0  0  0  0  0  0
    4.6225   -1.8028    0.0000 C   0  0  1  0  0  0  0  0  0  0  0  0
    8.5196   -2.5528    0.0000 C   0  0  0  0  0  0  0  0  0  0  0  0
    3.3235   -1.0528    0.0000 C   0  0  0  0  0  0  0  0  0  0  0  0
    5.9215   -2.5528    0.0000 C   0  0  0  0  0  0  0  0  0  0  0  0
  1  2  1  0  0  0  0
  2  8  1  0  0  0  0
  2 14  1  0  0  0  0
  3  6  1  0  0  0  0
  3 13  1  0  0  0  0
  3 15  1  0  0  0  0
  4 13  2  0  0  0  0
  5  6  1  6  0  0  0
  5  7  1  0  0  0  0
  5  8  1  0  0  0  0
  6  9  2  0  0  0  0
  9 10  1  0  0  0  0
 10 11  2  0  0  0  0
 11 13  1  0  0  0  0
 12  7  1  6  0  0  0
 12 14  1  0  0  0  0
 12 15  1  0  0  0  0
M  END
