372767
 OpenBabel03021519512D

 21 23  0  0  0  0  0  0  0  0999 V2000
    1.0245    0.2745    0.0000 Br  0  0  0  0  0  0  0  0  0  0  0  0
    2.5245    0.2745    0.0000 C   0  0  0  0  0  0  0  0  0  0  0  0
    3.2745    1.5736    0.0000 C   0  0  0  0  0  0  0  0  0  0  0  0
    3.2745   -1.0245    0.0000 C   0  0  0  0  0  0  0  0  0  0  0  0
    4.7745    1.5736    0.0000 C   0  0  0  0  0  0  0  0  0  0  0  0
    4.7745   -1.0245    0.0000 C   0  0  0  0  0  0  0  0  0  0  0  0
    5.5245    0.2745    0.0000 C   0  0  0  0  0  0  0  0  0  0  0  0
    7.0245    0.2745    0.0000 C   0  0  0  0  0  0  0  0  0  0  0  0
    7.9062    1.4881    0.0000 C   0  0  0  0  0  0  0  0  0  0  0  0
    7.9062   -0.9390    0.0000 O   0  0  0  0  0  0  0  0  0  0  0  0
    9.3328   -0.4755    0.0000 C   0  0  0  0  0  0  0  0  0  0  0  0
    9.3328    1.0245    0.0000 N   0  0  0  0  0  0  0  0  0  0  0  0
   10.5463   -1.3571    0.0000 C   0  0  0  0  0  0  0  0  0  0  0  0
   11.9166   -0.7470    0.0000 C   0  0  0  0  0  0  0  0  0  0  0  0
   10.3895   -2.8489    0.0000 C   0  0  0  0  0  0  0  0  0  0  0  0
   13.1302   -1.6287    0.0000 C   0  0  0  0  0  0  0  0  0  0  0  0
   11.6031   -3.7306    0.0000 C   0  0  0  0  0  0  0  0  0  0  0  0
   12.9734   -3.1205    0.0000 C   0  0  0  0  0  0  0  0  0  0  0  0
   14.1869   -4.0021    0.0000 N   0  3  0  0  0  0  0  0  0  0  0  0
   15.5572   -3.3920    0.0000 O   0  5  0  0  0  0  0  0  0  0  0  0
   14.0301   -5.4939    0.0000 O   0  0  0  0  0  0  0  0  0  0  0  0
  1  2  1  0  0  0  0
  2  3  1  0  0  0  0
  2  4  2  0  0  0  0
  3  5  2  0  0  0  0
  4  6  1  0  0  0  0
  5  7  1  0  0  0  0
  6  7  2  0  0  0  0
  7  8  1  0  0  0  0
  8  9  2  0  0  0  0
  8 10  1  0  0  0  0
  9 12  1  0  0  0  0
 10 11  1  0  0  0  0
 11 12  2  0  0  0  0
 11 13  1  0  0  0  0
 13 14  2  0  0  0  0
 13 15  1  0  0  0  0
 14 16  1  0  0  0  0
 15 17  2  0  0  0  0
 16 18  2  0  0  0  0
 17 18  1  0  0  0  0
 18 19  1  0  0  0  0
 19 20  1  0  0  0  0
 19 21  2  0  0  0  0
M  CHG  2  19   1  20  -1
M  END
