345850
 OpenBabel03021519512D

 24 26  0  0  1  0  0  0  0  0999 V2000
    1.6740    1.3995    0.0000 C   0  0  0  0  0  0  0  0  0  0  0  0
    1.6740   -0.1005    0.0000 C   0  0  0  0  0  0  0  0  0  0  0  0
    2.9731    2.1495    0.0000 C   0  0  0  0  0  0  0  0  0  0  0  0
    2.9731   -0.8505    0.0000 C   0  0  0  0  0  0  0  0  0  0  0  0
    4.2721    4.3995    0.0000 O   0  0  0  0  0  0  0  0  0  0  0  0
    4.2721    1.3995    0.0000 C   0  0  3  0  0  0  0  0  0  0  0  0
    4.2721   -0.1005    0.0000 C   0  0  0  0  0  0  0  0  0  0  0  0
    5.5712    2.1495    0.0000 N   0  0  0  0  0  0  0  0  0  0  0  0
    6.8702    4.3996    0.0000 O   0  0  0  0  0  0  0  0  0  0  0  0
    5.5712   -0.8505    0.0000 N   0  0  0  0  0  0  0  0  0  0  0  0
    5.5711    3.6495    0.0000 C   0  0  0  0  0  0  0  0  0  0  0  0
    6.8702   -0.1004    0.0000 N   0  0  0  0  0  0  0  0  0  0  0  0
    6.8702    1.3996    0.0000 N   0  0  0  0  0  0  0  0  0  0  0  0
    8.1692    3.6496    0.0000 O   0  0  0  0  0  0  0  0  0  0  0  0
    8.1692    2.1496    0.0000 C   0  0  0  0  0  0  0  0  0  0  0  0
    9.4683    1.3996    0.0000 O   0  0  0  0  0  0  0  0  0  0  0  0
    4.2721    5.8995    0.0000 C   0  0  0  0  0  0  0  0  0  0  0  0
    8.1692   -0.8504    0.0000 C   0  0  0  0  0  0  0  0  0  0  0  0
    9.4683   -0.1004    0.0000 C   0  0  0  0  0  0  0  0  0  0  0  0
   10.7673   -0.8504    0.0000 C   0  0  0  0  0  0  0  0  0  0  0  0
   10.7673   -2.3504    0.0000 C   0  0  0  0  0  0  0  0  0  0  0  0
    9.4683   -3.1004    0.0000 C   0  0  0  0  0  0  0  0  0  0  0  0
    8.1693   -2.3504    0.0000 C   0  0  0  0  0  0  0  0  0  0  0  0
   10.7673    2.1496    0.0000 C   0  0  0  0  0  0  0  0  0  0  0  0
  1  3  1  0  0  0  0
  1  2  1  0  0  0  0
  2  4  1  0  0  0  0
  3  6  1  0  0  0  0
  4  7  1  0  0  0  0
  5 11  1  0  0  0  0
  5 17  1  0  0  0  0
  6  8  1  0  0  0  0
  6  7  1  0  0  0  0
  7 10  2  0  0  0  0
  8 11  1  0  0  0  0
  8 13  1  0  0  0  0
  9 11  2  0  0  0  0
 10 12  1  0  0  0  0
 12 13  1  0  0  0  0
 12 18  1  0  0  0  0
 13 15  1  0  0  0  0
 14 15  2  0  0  0  0
 15 16  1  0  0  0  0
 16 24  1  0  0  0  0
 18 19  2  0  0  0  0
 18 23  1  0  0  0  0
 19 20  1  0  0  0  0
 20 21  2  0  0  0  0
 21 22  1  0  0  0  0
 22 23  2  0  0  0  0
M  END
