117554
 OpenBabel03021519512D

 19 21  0  0  0  0  0  0  0  0999 V2000
    2.4510   -3.2573    0.0000 C   0  0  0  0  0  0  0  0  0  0  0  0
    2.4510   -4.7573    0.0000 C   0  0  0  0  0  0  0  0  0  0  0  0
    3.7500   -2.5073    0.0000 C   0  0  0  0  0  0  0  0  0  0  0  0
    3.7500   -5.5073    0.0000 C   0  0  0  0  0  0  0  0  0  0  0  0
    3.7500   -1.0073    0.0000 O   0  0  0  0  0  0  0  0  0  0  0  0
    5.0490   -4.7573    0.0000 C   0  0  0  0  0  0  0  0  0  0  0  0
    5.0490   -3.2573    0.0000 C   0  0  0  0  0  0  0  0  0  0  0  0
    3.0000   -6.8063    0.0000 C   0  0  0  0  0  0  0  0  0  0  0  0
    3.7500   -8.1054    0.0000 C   0  0  0  0  0  0  0  0  0  0  0  0
    3.0000   -9.4044    0.0000 C   0  0  0  0  0  0  0  0  0  0  0  0
    1.5000   -9.4044    0.0000 C   0  0  0  0  0  0  0  0  0  0  0  0
    0.7500   -8.1054    0.0000 C   0  0  0  0  0  0  0  0  0  0  0  0
    1.5000   -6.8063    0.0000 C   0  0  0  0  0  0  0  0  0  0  0  0
    5.0490   -6.2573    0.0000 C   0  0  0  0  0  0  0  0  0  0  0  0
    6.3481   -5.5073    0.0000 C   0  0  0  0  0  0  0  0  0  0  0  0
    7.6471   -6.2573    0.0000 C   0  0  0  0  0  0  0  0  0  0  0  0
    7.6471   -7.7573    0.0000 C   0  0  0  0  0  0  0  0  0  0  0  0
    6.3481   -8.5073    0.0000 C   0  0  0  0  0  0  0  0  0  0  0  0
    5.0490   -7.7573    0.0000 C   0  0  0  0  0  0  0  0  0  0  0  0
  1  3  1  0  0  0  0
  1  2  1  0  0  0  0
  2  4  1  0  0  0  0
  3  5  2  0  0  0  0
  3  7  1  0  0  0  0
  4  6  1  0  0  0  0
  4  8  1  0  0  0  0
  4 14  1  0  0  0  0
  6  7  1  0  0  0  0
  8  9  2  0  0  0  0
  8 13  1  0  0  0  0
  9 10  1  0  0  0  0
 10 11  2  0  0  0  0
 11 12  1  0  0  0  0
 12 13  2  0  0  0  0
 14 15  2  0  0  0  0
 14 19  1  0  0  0  0
 15 16  1  0  0  0  0
 16 17  2  0  0  0  0
 17 18  1  0  0  0  0
 18 19  2  0  0  0  0
M  END
