107582
 OpenBabel03021519512D

 26 28  0  0  0  0  0  0  0  0999 V2000
   -9.7640   -2.8422    0.0000 O   0  0  0  0  0  0  0  0  0  0  0  0
   -3.9768   -3.9823    0.0000 N   0  0  0  0  0  0  0  0  0  0  0  0
   -3.9768   -6.9823    0.0000 Br  0  0  0  0  0  0  0  0  0  0  0  0
   -9.3005   -4.2688    0.0000 C   0  0  0  0  0  0  0  0  0  0  0  0
   -7.8739   -4.7323    0.0000 C   0  0  0  0  0  0  0  0  0  0  0  0
   -6.5749   -3.9823    0.0000 C   0  0  0  0  0  0  0  0  0  0  0  0
   -5.2759   -4.7323    0.0000 C   0  0  0  0  0  0  0  0  0  0  0  0
  -10.1822   -5.4823    0.0000 C   0  0  0  0  0  0  0  0  0  0  0  0
  -11.6740   -5.6391    0.0000 C   0  0  0  0  0  0  0  0  0  0  0  0
  -12.2841   -7.0094    0.0000 C   0  0  0  0  0  0  0  0  0  0  0  0
   -5.2759   -6.2323    0.0000 C   0  0  0  0  0  0  0  0  0  0  0  0
   -7.8739   -6.2323    0.0000 C   0  0  0  0  0  0  0  0  0  0  0  0
   -9.3005   -6.6958    0.0000 C   0  0  0  0  0  0  0  0  0  0  0  0
  -11.4024   -8.2229    0.0000 C   0  0  0  0  0  0  0  0  0  0  0  0
   -6.5749   -6.9823    0.0000 C   0  0  0  0  0  0  0  0  0  0  0  0
   -9.9106   -8.0661    0.0000 C   0  0  0  0  0  0  0  0  0  0  0  0
  -13.7759   -7.1662    0.0000 N   0  3  0  0  0  0  0  0  0  0  0  0
  -14.3860   -8.5365    0.0000 O   0  5  0  0  0  0  0  0  0  0  0  0
  -14.6575   -5.9527    0.0000 O   0  0  0  0  0  0  0  0  0  0  0  0
   -3.9768   -2.4823    0.0000 C   0  0  0  0  0  0  0  0  0  0  0  0
   -5.2759   -1.7323    0.0000 N   0  0  0  0  0  0  0  0  0  0  0  0
   -6.5749   -2.4823    0.0000 O   0  0  0  0  0  0  0  0  0  0  0  0
   -2.6778   -1.7323    0.0000 C   0  0  0  0  0  0  0  0  0  0  0  0
   -1.9278   -3.0313    0.0000 F   0  0  0  0  0  0  0  0  0  0  0  0
   -1.3788   -0.9823    0.0000 F   0  0  0  0  0  0  0  0  0  0  0  0
   -3.4278   -0.4332    0.0000 F   0  0  0  0  0  0  0  0  0  0  0  0
  1  4  2  0  0  0  0
  2  7  1  0  0  0  0
  2 20  2  0  0  0  0
  3 11  1  0  0  0  0
  4  5  1  0  0  0  0
  4  8  1  0  0  0  0
  5 12  2  0  0  0  0
  5  6  1  0  0  0  0
  6  7  2  0  0  0  0
  7 11  1  0  0  0  0
  8 13  2  0  0  0  0
  8  9  1  0  0  0  0
  9 10  2  0  0  0  0
 10 14  1  0  0  0  0
 10 17  1  0  0  0  0
 11 15  2  0  0  0  0
 12 15  1  0  0  0  0
 12 13  1  0  0  0  0
 13 16  1  0  0  0  0
 14 16  2  0  0  0  0
 17 18  1  0  0  0  0
 17 19  2  0  0  0  0
 20 21  1  0  0  0  0
 20 23  1  0  0  0  0
 21 22  1  0  0  0  0
 23 24  1  0  0  0  0
 23 25  1  0  0  0  0
 23 26  1  0  0  0  0
M  CHG  2  17   1  18  -1
M  END
