110899
 OpenBabel03021519512D

 17 18  0  0  0  0  0  0  0  0999 V2000
   -3.3481   -1.2990    0.0000 O   0  0  0  0  0  0  0  0  0  0  0  0
   -0.7500   -1.2990    0.0000 O   0  0  0  0  0  0  0  0  0  0  0  0
   -5.9462   -1.2990    0.0000 C   0  0  0  0  0  0  0  0  0  0  0  0
   -7.2452   -2.0490    0.0000 C   0  0  0  0  0  0  0  0  0  0  0  0
   -4.6471   -2.0491    0.0000 C   0  0  0  0  0  0  0  0  0  0  0  0
   -4.6471   -3.5491    0.0000 C   0  0  0  0  0  0  0  0  0  0  0  0
   -7.2452   -3.5490    0.0000 C   0  0  0  0  0  0  0  0  0  0  0  0
   -3.3481   -4.2991    0.0000 C   0  0  0  0  0  0  0  0  0  0  0  0
   -2.0490   -2.0490    0.0000 C   0  0  0  0  0  0  0  0  0  0  0  0
   -2.0490   -3.5490    0.0000 C   0  0  0  0  0  0  0  0  0  0  0  0
   -5.9461   -4.2990    0.0000 C   0  0  0  0  0  0  0  0  0  0  0  0
  -10.5933   -0.7500    0.0000 C   0  0  0  0  0  0  0  0  0  0  0  0
   -9.8433   -2.0490    0.0000 S   0  0  0  0  0  0  0  0  0  0  0  0
  -11.1423   -2.7991    0.0000 O   0  0  0  0  0  0  0  0  0  0  0  0
   -9.0933   -3.3481    0.0000 O   0  0  0  0  0  0  0  0  0  0  0  0
   -8.5442   -1.2991    0.0000 O   0  0  0  0  0  0  0  0  0  0  0  0
   -3.3481   -5.7991    0.0000 C   0  0  0  0  0  0  0  0  0  0  0  0
  1  5  1  0  0  0  0
  1  9  1  0  0  0  0
  2  9  2  0  0  0  0
  3  4  2  0  0  0  0
  3  5  1  0  0  0  0
  4  7  1  0  0  0  0
  4 16  1  0  0  0  0
  5  6  2  0  0  0  0
  6  8  1  0  0  0  0
  6 11  1  0  0  0  0
  7 11  2  0  0  0  0
  8 10  2  0  0  0  0
  8 17  1  0  0  0  0
  9 10  1  0  0  0  0
 12 13  1  0  0  0  0
 13 14  2  0  0  0  0
 13 15  2  0  0  0  0
 13 16  1  0  0  0  0
M  END
