379468
 OpenBabel03021519512D

 19 20  0  0  0  0  0  0  0  0999 V2000
   -1.6005    4.2721    0.0000 C   0  0  0  0  0  0  0  0  0  0  0  0
   -0.8505    5.5712    0.0000 C   0  0  0  0  0  0  0  0  0  0  0  0
   -0.8505    2.9731    0.0000 C   0  0  0  0  0  0  0  0  0  0  0  0
    0.6495    5.5712    0.0000 C   0  0  0  0  0  0  0  0  0  0  0  0
    0.6495    2.9731    0.0000 C   0  0  0  0  0  0  0  0  0  0  0  0
    1.3995    4.2721    0.0000 C   0  0  0  0  0  0  0  0  0  0  0  0
    1.3995    6.8702    0.0000 Cl  0  0  0  0  0  0  0  0  0  0  0  0
    1.3995    1.6740    0.0000 Cl  0  0  0  0  0  0  0  0  0  0  0  0
    3.6495    5.5712    0.0000 C   0  0  0  0  0  0  0  0  0  0  0  0
    2.8995    6.8702    0.0000 O   0  0  0  0  0  0  0  0  0  0  0  0
    5.8995    6.8702    0.0000 C   0  0  0  0  0  0  0  0  0  0  0  0
    7.3995    6.8702    0.0000 C   0  0  0  0  0  0  0  0  0  0  0  0
    5.1495    8.1692    0.0000 C   0  0  0  0  0  0  0  0  0  0  0  0
    8.1495    8.1692    0.0000 C   0  0  0  0  0  0  0  0  0  0  0  0
    5.8995    9.4683    0.0000 N   0  0  0  0  0  0  0  0  0  0  0  0
    7.3995    9.4683    0.0000 C   0  0  0  0  0  0  0  0  0  0  0  0
    2.8995    4.2721    0.0000 N   0  0  0  0  0  0  0  0  0  0  0  0
    5.1495    5.5712    0.0000 N   0  0  0  0  0  0  0  0  0  0  0  0
    8.1495   10.7673    0.0000 C   0  0  0  0  0  0  0  0  0  0  0  0
  1  2  1  0  0  0  0
  1  3  2  0  0  0  0
  2  4  2  0  0  0  0
  3  5  1  0  0  0  0
  4  7  1  0  0  0  0
  4  6  1  0  0  0  0
  5  6  2  0  0  0  0
  5  8  1  0  0  0  0
  6 17  1  0  0  0  0
  9 10  2  0  0  0  0
  9 17  1  0  0  0  0
  9 18  1  0  0  0  0
 11 13  1  0  0  0  0
 11 12  2  0  0  0  0
 11 18  1  0  0  0  0
 12 14  1  0  0  0  0
 13 15  2  0  0  0  0
 14 16  2  0  0  0  0
 15 16  1  0  0  0  0
 16 19  1  0  0  0  0
M  END
