66241
 OpenBabel03021519512D

 16 17  0  0  0  0  0  0  0  0999 V2000
    3.2988    4.2136    0.0000 H   0  0  0  0  0  0  0  0  0  0  0  0
    4.1437    2.9742    0.0000 N   0  0  0  0  0  0  0  0  0  0  0  0
    2.9215   -0.8207    0.0000 O   0  0  0  0  0  0  0  0  0  0  0  0
    5.6270    3.1978    0.0000 N   0  0  0  0  0  0  0  0  0  0  0  0
    6.7266    2.1775    0.0000 C   0  0  0  0  0  0  0  0  0  0  0  0
    6.6145    0.6817    0.0000 C   0  0  0  0  0  0  0  0  0  0  0  0
    5.3751   -0.1632    0.0000 C   0  0  0  0  0  0  0  0  0  0  0  0
    7.9135   -0.0683    0.0000 C   0  0  0  0  0  0  0  0  0  0  0  0
    9.2125    0.6817    0.0000 C   0  0  0  0  0  0  0  0  0  0  0  0
   10.5116   -0.0683    0.0000 C   0  0  0  0  0  0  0  0  0  0  0  0
   10.5116   -1.5683    0.0000 C   0  0  0  0  0  0  0  0  0  0  0  0
    7.9135   -1.5683    0.0000 C   0  0  0  0  0  0  0  0  0  0  0  0
    3.9417    0.2789    0.0000 C   0  0  0  0  0  0  0  0  0  0  0  0
    3.3937    1.6752    0.0000 C   0  0  0  0  0  0  0  0  0  0  0  0
    9.2125   -2.3183    0.0000 C   0  0  0  0  0  0  0  0  0  0  0  0
    5.5987   -1.6465    0.0000 C   0  0  0  0  0  0  0  0  0  0  0  0
  1  2  1  0  0  0  0
  2  4  1  0  0  0  0
  2 14  1  0  0  0  0
  3 13  2  0  0  0  0
  4  5  2  0  0  0  0
  5  6  1  0  0  0  0
  6  7  2  0  0  0  0
  6  8  1  0  0  0  0
  7 13  1  0  0  0  0
  7 16  1  0  0  0  0
  8 12  2  0  0  0  0
  8  9  1  0  0  0  0
  9 10  2  0  0  0  0
 10 11  1  0  0  0  0
 11 15  2  0  0  0  0
 12 15  1  0  0  0  0
 13 14  1  0  0  0  0
M  END
