341902
 OpenBabel03021519512D

 14 15  0  0  1  0  0  0  0  0999 V2000
    2.1847    1.5625    0.0000 C   0  0  0  0  0  0  0  0  0  0  0  0
    2.1847    0.0625    0.0000 C   0  0  0  0  0  0  0  0  0  0  0  0
    3.4837    2.3125    0.0000 C   0  0  0  0  0  0  0  0  0  0  0  0
    3.4837   -0.6875    0.0000 C   0  0  0  0  0  0  0  0  0  0  0  0
    4.7827    1.5625    0.0000 C   0  0  3  0  0  0  0  0  0  0  0  0
    4.7827    0.0625    0.0000 C   0  0  0  0  0  0  0  0  0  0  0  0
    6.2093   -0.4010    0.0000 C   0  0  0  0  0  0  0  0  0  0  0  0
    6.2093    2.0260    0.0000 N   0  0  0  0  0  0  0  0  0  0  0  0
    7.0910    0.8125    0.0000 C   0  0  0  0  0  0  0  0  0  0  0  0
    6.6728    3.4526    0.0000 H   0  0  0  0  0  0  0  0  0  0  0  0
    8.5910    0.8125    0.0000 O   0  0  0  0  0  0  0  0  0  0  0  0
    4.9395    3.0543    0.0000 O   0  0  0  0  0  0  0  0  0  0  0  0
    6.6729   -1.8276    0.0000 C   0  0  0  0  0  0  0  0  0  0  0  0
    7.1364   -3.2542    0.0000 N   0  0  0  0  0  0  0  0  0  0  0  0
  1  3  1  0  0  0  0
  1  2  1  0  0  0  0
  2  4  1  0  0  0  0
  3  5  1  0  0  0  0
  4  6  1  0  0  0  0
  5  8  1  0  0  0  0
  5  6  1  0  0  0  0
  5 12  1  0  0  0  0
  6  7  2  0  0  0  0
  7  9  1  0  0  0  0
  7 13  1  0  0  0  0
  8 10  1  0  0  0  0
  8  9  1  0  0  0  0
  9 11  2  0  0  0  0
 13 14  3  0  0  0  0
M  END
