96541
 OpenBabel03021519512D

 24 27  0  0  1  0  0  0  0  0999 V2000
   -3.5221   -5.8995    0.0000 N   0  0  0  0  0  0  0  0  0  0  0  0
   -4.8212   -3.6495    0.0000 C   0  0  0  0  0  0  0  0  0  0  0  0
   -6.1202   -4.3995    0.0000 C   0  0  0  0  0  0  0  0  0  0  0  0
   -3.5221   -4.3995    0.0000 C   0  0  3  0  0  0  0  0  0  0  0  0
   -6.1202   -5.8995    0.0000 C   0  0  0  0  0  0  0  0  0  0  0  0
   -7.4192   -6.6495    0.0000 C   0  0  0  0  0  0  0  0  0  0  0  0
   -4.8212   -6.6495    0.0000 C   0  0  0  0  0  0  0  0  0  0  0  0
   -8.7183   -5.8995    0.0000 C   0  0  0  0  0  0  0  0  0  0  0  0
  -10.0173   -6.6495    0.0000 C   0  0  0  0  0  0  0  0  0  0  0  0
   -4.8211   -8.1495    0.0000 C   0  0  0  0  0  0  0  0  0  0  0  0
   -7.4192   -8.1495    0.0000 C   0  0  0  0  0  0  0  0  0  0  0  0
  -10.0173   -8.1495    0.0000 C   0  0  0  0  0  0  0  0  0  0  0  0
   -6.1202   -8.8995    0.0000 C   0  0  0  0  0  0  0  0  0  0  0  0
   -8.7183   -8.8995    0.0000 C   0  0  0  0  0  0  0  0  0  0  0  0
   -0.9240   -4.3995    0.0000 C   0  0  0  0  0  0  0  0  0  0  0  0
   -0.9240   -5.8995    0.0000 C   0  0  0  0  0  0  0  0  0  0  0  0
    0.3750   -3.6495    0.0000 C   0  0  0  0  0  0  0  0  0  0  0  0
    1.6740   -4.3995    0.0000 C   0  0  0  0  0  0  0  0  0  0  0  0
    0.3750   -6.6495    0.0000 C   0  0  0  0  0  0  0  0  0  0  0  0
    1.6740   -5.8995    0.0000 C   0  0  0  0  0  0  0  0  0  0  0  0
   -2.2231   -3.6495    0.0000 C   0  0  0  0  0  0  0  0  0  0  0  0
   -0.9240   -2.8995    0.0000 N   0  0  0  0  0  0  0  0  0  0  0  0
   -2.2231   -6.6495    0.0000 C   0  0  0  0  0  0  0  0  0  0  0  0
   -2.2231   -8.1495    0.0000 O   0  0  0  0  0  0  0  0  0  0  0  0
  1  4  1  0  0  0  0
  1  7  1  0  0  0  0
  1 23  1  0  0  0  0
  2  3  2  0  0  0  0
  2  4  1  0  0  0  0
  3  5  1  0  0  0  0
  4 21  1  0  0  0  0
  5  7  2  0  0  0  0
  5  6  1  0  0  0  0
  6 11  2  0  0  0  0
  6  8  1  0  0  0  0
  7 10  1  0  0  0  0
  8  9  2  0  0  0  0
  9 12  1  0  0  0  0
 10 13  2  0  0  0  0
 11 13  1  0  0  0  0
 11 14  1  0  0  0  0
 12 14  2  0  0  0  0
 15 17  2  0  0  0  0
 15 16  1  0  0  0  0
 16 19  2  0  0  0  0
 16 23  1  0  0  0  0
 17 18  1  0  0  0  0
 18 20  2  0  0  0  0
 19 20  1  0  0  0  0
 21 22  3  0  0  0  0
 23 24  2  0  0  0  0
M  END
