106045
 OpenBabel03021519512D

 14 15  0  0  0  0  0  0  0  0999 V2000
   -4.2954   -0.6459    0.0000 O   0  0  0  0  0  0  0  0  0  0  0  0
   -4.3544   -3.0722    0.0000 N   0  0  0  0  0  0  0  0  0  0  0  0
   -4.8524   -4.4871    0.0000 H   0  0  0  0  0  0  0  0  0  0  0  0
   -6.0583   -0.6030    0.0000 C   0  0  0  0  0  0  0  0  0  0  0  0
   -5.2063   -1.8376    0.0000 C   0  0  0  0  0  0  0  0  0  0  0  0
   -7.4957   -1.0318    0.0000 C   0  0  0  0  0  0  0  0  0  0  0  0
   -7.5321   -2.5313    0.0000 C   0  0  0  0  0  0  0  0  0  0  0  0
   -6.1172   -3.0294    0.0000 C   0  0  0  0  0  0  0  0  0  0  0  0
   -2.8805   -1.1439    0.0000 C   0  0  0  0  0  0  0  0  0  0  0  0
   -2.9170   -2.6435    0.0000 C   0  0  0  0  0  0  0  0  0  0  0  0
   -2.6408   -4.1178    0.0000 C   0  0  0  0  0  0  0  0  0  0  0  0
   -1.2259   -4.6159    0.0000 O   0  0  0  0  0  0  0  0  0  0  0  0
   -1.4218   -2.5229    0.0000 C   0  0  0  0  0  0  0  0  0  0  0  0
   -0.7786   -1.1678    0.0000 O   0  0  0  0  0  0  0  0  0  0  0  0
  1  5  1  0  0  0  0
  1  9  1  0  0  0  0
  2  5  1  0  0  0  0
  2 10  1  0  0  0  0
  2  3  1  0  0  0  0
  4  5  1  0  0  0  0
  4  6  1  0  0  0  0
  5  8  1  0  0  0  0
  6  7  1  0  0  0  0
  7  8  1  0  0  0  0
  9 10  1  0  0  0  0
 10 11  1  0  0  0  0
 10 13  1  0  0  0  0
 11 12  1  0  0  0  0
 13 14  1  0  0  0  0
M  END
