302584
 OpenBabel03021519512D

 19 20  0  0  0  0  0  0  0  0999 V2000
   -2.8995   -0.9240    0.0000 C   0  0  0  0  0  0  0  0  0  0  0  0
   -6.6495    0.3750    0.0000 C   0  0  0  0  0  0  0  0  0  0  0  0
   -7.3995    1.6740    0.0000 C   0  0  0  0  0  0  0  0  0  0  0  0
   -2.1495   -2.2231    0.0000 C   0  0  0  0  0  0  0  0  0  0  0  0
   -5.1495   -2.2231    0.0000 C   0  0  0  0  0  0  0  0  0  0  0  0
   -7.3995   -0.9240    0.0000 C   0  0  0  0  0  0  0  0  0  0  0  0
   -8.8995    1.6740    0.0000 C   0  0  0  0  0  0  0  0  0  0  0  0
   -2.8995   -3.5221    0.0000 C   0  0  0  0  0  0  0  0  0  0  0  0
   -8.8995   -0.9240    0.0000 C   0  0  0  0  0  0  0  0  0  0  0  0
   -9.6495    0.3750    0.0000 C   0  0  0  0  0  0  0  0  0  0  0  0
   -6.6495   -2.2231    0.0000 S   0  0  0  0  0  0  0  0  0  0  0  0
   -4.3995   -0.9240    0.0000 N   0  0  0  0  0  0  0  0  0  0  0  0
   -4.3995   -3.5221    0.0000 N   0  0  0  0  0  0  0  0  0  0  0  0
   -9.6495    2.9731    0.0000 N   0  3  0  0  0  0  0  0  0  0  0  0
   -8.8995    4.2721    0.0000 O   0  5  0  0  0  0  0  0  0  0  0  0
  -11.1495    2.9731    0.0000 O   0  0  0  0  0  0  0  0  0  0  0  0
   -9.6495   -2.2231    0.0000 N   0  3  0  0  0  0  0  0  0  0  0  0
   -8.8995   -3.5221    0.0000 O   0  5  0  0  0  0  0  0  0  0  0  0
  -11.1495   -2.2231    0.0000 O   0  0  0  0  0  0  0  0  0  0  0  0
  1 12  1  0  0  0  0
  1  4  2  0  0  0  0
  2  3  1  0  0  0  0
  2  6  2  0  0  0  0
  3  7  2  0  0  0  0
  4  8  1  0  0  0  0
  5 11  1  0  0  0  0
  5 12  2  0  0  0  0
  5 13  1  0  0  0  0
  6 11  1  0  0  0  0
  6  9  1  0  0  0  0
  7 10  1  0  0  0  0
  7 14  1  0  0  0  0
  8 13  2  0  0  0  0
  9 10  2  0  0  0  0
  9 17  1  0  0  0  0
 14 15  1  0  0  0  0
 14 16  2  0  0  0  0
 17 18  1  0  0  0  0
 17 19  2  0  0  0  0
M  CHG  4  14   1  15  -1  17   1  18  -1
M  END
