122297
 OpenBabel03021519512D

 17 18  0  0  0  0  0  0  0  0999 V2000
   -3.8536   -4.8901    0.0000 H   0  0  0  0  0  0  0  0  0  0  0  0
   -4.2718   -2.2500    0.0000 N   0  0  0  0  0  0  0  0  0  0  0  0
   -3.3901   -3.4635    0.0000 N   0  0  0  0  0  0  0  0  0  0  0  0
   -3.3901   -1.0365    0.0000 C   0  0  0  0  0  0  0  0  0  0  0  0
   -1.9635   -1.5000    0.0000 C   0  0  0  0  0  0  0  0  0  0  0  0
   -1.9635   -3.0000    0.0000 C   0  0  0  0  0  0  0  0  0  0  0  0
   -8.0218   -0.9510    0.0000 C   0  0  0  0  0  0  0  0  0  0  0  0
   -7.2718   -2.2500    0.0000 C   0  0  0  0  0  0  0  0  0  0  0  0
   -9.5218   -0.9510    0.0000 C   0  0  0  0  0  0  0  0  0  0  0  0
   -8.0218   -3.5490    0.0000 C   0  0  0  0  0  0  0  0  0  0  0  0
  -10.2718   -2.2500    0.0000 C   0  0  0  0  0  0  0  0  0  0  0  0
   -9.5218   -3.5490    0.0000 C   0  0  0  0  0  0  0  0  0  0  0  0
  -11.7718   -2.2500    0.0000 C   0  0  0  0  0  0  0  0  0  0  0  0
   -5.7718   -2.2500    0.0000 S   0  0  0  0  0  0  0  0  0  0  0  0
   -5.7718   -0.7500    0.0000 O   0  0  0  0  0  0  0  0  0  0  0  0
   -5.7718   -3.7500    0.0000 O   0  0  0  0  0  0  0  0  0  0  0  0
   -0.7500   -3.8817    0.0000 N   0  0  0  0  0  0  0  0  0  0  0  0
  1  3  1  0  0  0  0
  2  3  1  0  0  0  0
  2  4  1  0  0  0  0
  2 14  1  0  0  0  0
  3  6  1  0  0  0  0
  4  5  1  0  0  0  0
  5  6  2  0  0  0  0
  6 17  1  0  0  0  0
  7  9  2  0  0  0  0
  7  8  1  0  0  0  0
  8 10  2  0  0  0  0
  8 14  1  0  0  0  0
  9 11  1  0  0  0  0
 10 12  1  0  0  0  0
 11 12  2  0  0  0  0
 11 13  1  0  0  0  0
 14 15  2  0  0  0  0
 14 16  2  0  0  0  0
M  END
