34865
 OpenBabel03021519512D

 19 20  0  0  0  0  0  0  0  0999 V2000
   -5.4707   -4.0245    0.0000 O   0  0  0  0  0  0  0  0  0  0  0  0
   -3.4216   -3.0736    0.0000 C   0  0  0  0  0  0  0  0  0  0  0  0
   -2.1226   -2.3236    0.0000 C   0  0  0  0  0  0  0  0  0  0  0  0
   -3.4216   -4.5736    0.0000 C   0  0  0  0  0  0  0  0  0  0  0  0
   -0.8236   -3.0736    0.0000 C   0  0  0  0  0  0  0  0  0  0  0  0
   -2.1226   -5.3236    0.0000 C   0  0  0  0  0  0  0  0  0  0  0  0
   -0.8235   -4.5736    0.0000 C   0  0  0  0  0  0  0  0  0  0  0  0
   -7.3187   -5.3236    0.0000 C   0  0  0  0  0  0  0  0  0  0  0  0
   -6.0197   -6.0736    0.0000 C   0  0  0  0  0  0  0  0  0  0  0  0
   -8.6178   -6.0736    0.0000 C   0  0  0  0  0  0  0  0  0  0  0  0
   -6.0197   -7.5736    0.0000 C   0  0  0  0  0  0  0  0  0  0  0  0
   -8.6178   -7.5736    0.0000 C   0  0  0  0  0  0  0  0  0  0  0  0
   -7.3187   -8.3236    0.0000 C   0  0  0  0  0  0  0  0  0  0  0  0
   -9.9168   -8.3236    0.0000 N   0  3  0  0  0  0  0  0  0  0  0  0
  -11.2158   -7.5736    0.0000 O   0  5  0  0  0  0  0  0  0  0  0  0
   -9.9168   -9.8236    0.0000 O   0  0  0  0  0  0  0  0  0  0  0  0
   -4.7207   -5.3236    0.0000 As  0  0  3  0  0  0  0  0  0  0  0  0
   -3.9707   -6.6226    0.0000 O   0  0  0  0  0  0  0  0  0  0  0  0
    0.4755   -2.3236    0.0000 N   0  0  0  0  0  0  0  0  0  0  0  0
  1 17  2  0  0  0  0
  2  3  2  0  0  0  0
  2  4  1  0  0  0  0
  3  5  1  0  0  0  0
  4  6  2  0  0  0  0
  4 17  1  0  0  0  0
  5  7  2  0  0  0  0
  5 19  1  0  0  0  0
  6  7  1  0  0  0  0
  8 10  2  0  0  0  0
  8  9  1  0  0  0  0
  9 11  2  0  0  0  0
  9 17  1  0  0  0  0
 10 12  1  0  0  0  0
 11 13  1  0  0  0  0
 12 13  2  0  0  0  0
 12 14  1  0  0  0  0
 14 15  1  0  0  0  0
 14 16  2  0  0  0  0
 17 18  1  0  0  0  0
M  CHG  2  14   1  15  -1
M  END
