107679
 OpenBabel03021519512D

 25 27  0  0  1  0  0  0  0  0999 V2000
  -12.2173   -5.2500    0.0000 Cl  0  0  0  0  0  0  0  0  0  0  0  0
   -7.0211   -5.2500    0.0000 N   0  0  0  0  0  0  0  0  0  0  0  0
   -7.0211   -6.7500    0.0000 H   0  0  0  0  0  0  0  0  0  0  0  0
   -5.7221   -3.0000    0.0000 N   0  0  0  0  0  0  0  0  0  0  0  0
   -4.4231   -2.2500    0.0000 H   0  0  0  0  0  0  0  0  0  0  0  0
   -9.6192   -2.2500    0.0000 C   0  0  0  0  0  0  0  0  0  0  0  0
  -10.9182   -3.0000    0.0000 C   0  0  0  0  0  0  0  0  0  0  0  0
   -8.3202   -3.0000    0.0000 C   0  0  0  0  0  0  0  0  0  0  0  0
   -8.3202   -4.5000    0.0000 C   0  0  0  0  0  0  0  0  0  0  0  0
  -10.9182   -4.5000    0.0000 C   0  0  0  0  0  0  0  0  0  0  0  0
   -9.6192   -5.2500    0.0000 C   0  0  0  0  0  0  0  0  0  0  0  0
   -5.7221   -4.5000    0.0000 C   0  0  3  0  0  0  0  0  0  0  0  0
   -2.9672   -3.0082    0.0000 C   0  0  0  0  0  0  0  0  0  0  0  0
   -1.5000   -2.6963    0.0000 C   0  0  0  0  0  0  0  0  0  0  0  0
   -3.1240   -4.5000    0.0000 C   0  0  0  0  0  0  0  0  0  0  0  0
   -0.7500   -3.9954    0.0000 C   0  0  0  0  0  0  0  0  0  0  0  0
   -1.7537   -5.1101    0.0000 C   0  0  0  0  0  0  0  0  0  0  0  0
  -13.5163   -1.5000    0.0000 N   0  0  0  0  0  0  0  0  0  0  0  0
  -12.2173   -2.2500    0.0000 S   0  0  0  0  0  0  0  0  0  0  0  0
  -12.9673   -3.5490    0.0000 O   0  0  0  0  0  0  0  0  0  0  0  0
  -11.4673   -0.9510    0.0000 O   0  0  0  0  0  0  0  0  0  0  0  0
   -7.0211   -2.2500    0.0000 S   0  0  0  0  0  0  0  0  0  0  0  0
   -7.0211   -3.7500    0.0000 O   0  0  0  0  0  0  0  0  0  0  0  0
   -7.0211   -0.7500    0.0000 O   0  0  0  0  0  0  0  0  0  0  0  0
   -4.4230   -5.2500    0.0000 C   0  0  0  0  0  0  0  0  0  0  0  0
  1 10  1  0  0  0  0
  2  9  1  0  0  0  0
  2 12  1  0  0  0  0
  2  3  1  0  0  0  0
  4 12  1  0  0  0  0
  4  5  1  0  0  0  0
  4 22  1  0  0  0  0
  6  7  2  0  0  0  0
  6  8  1  0  0  0  0
  7 10  1  0  0  0  0
  7 19  1  0  0  0  0
  8  9  2  0  0  0  0
  8 22  1  0  0  0  0
  9 11  1  0  0  0  0
 10 11  2  0  0  0  0
 12 25  1  0  0  0  0
 13 14  1  0  0  0  0
 13 15  1  0  0  0  0
 14 16  1  0  0  0  0
 15 17  1  0  0  0  0
 15 25  1  0  0  0  0
 16 17  1  0  0  0  0
 18 19  1  0  0  0  0
 19 20  2  0  0  0  0
 19 21  2  0  0  0  0
 22 23  2  0  0  0  0
 22 24  2  0  0  0  0
M  END
