5907
 OpenBabel03021519512D

 30 32  0  0  0  0  0  0  0  0999 V2000
  -12.7159    4.9754    0.0000 C   0  0  0  0  0  0  0  0  0  0  0  0
   -8.8188    4.2254    0.0000 C   0  0  0  0  0  0  0  0  0  0  0  0
  -11.4168    4.2254    0.0000 C   0  0  0  0  0  0  0  0  0  0  0  0
  -14.0149    4.2254    0.0000 C   0  0  0  0  0  0  0  0  0  0  0  0
   -8.8188    2.7254    0.0000 C   0  0  0  0  0  0  0  0  0  0  0  0
  -11.4168    2.7254    0.0000 C   0  0  0  0  0  0  0  0  0  0  0  0
  -14.0149    2.7254    0.0000 C   0  0  0  0  0  0  0  0  0  0  0  0
  -10.1178    1.9754    0.0000 C   0  0  0  0  0  0  0  0  0  0  0  0
  -12.7159    1.9754    0.0000 C   0  0  0  0  0  0  0  0  0  0  0  0
   -8.8187   -1.7746    0.0000 C   0  0  0  0  0  0  0  0  0  0  0  0
  -11.4168   -1.7746    0.0000 C   0  0  0  0  0  0  0  0  0  0  0  0
   -7.5197   -2.5246    0.0000 C   0  0  0  0  0  0  0  0  0  0  0  0
  -10.1178   -2.5246    0.0000 C   0  0  0  0  0  0  0  0  0  0  0  0
  -12.7159   -2.5246    0.0000 C   0  0  0  0  0  0  0  0  0  0  0  0
   -7.5197   -4.0246    0.0000 C   0  0  0  0  0  0  0  0  0  0  0  0
  -10.1178   -4.0246    0.0000 C   0  0  0  0  0  0  0  0  0  0  0  0
  -12.7159   -4.0246    0.0000 C   0  0  0  0  0  0  0  0  0  0  0  0
  -11.4168   -4.7746    0.0000 C   0  0  0  0  0  0  0  0  0  0  0  0
  -14.0149   -1.7746    0.0000 O   0  0  0  0  0  0  0  0  0  0  0  0
  -15.3139    1.9754    0.0000 O   0  0  0  0  0  0  0  0  0  0  0  0
  -10.1178    4.9754    0.0000 N   0  0  0  0  0  0  0  0  0  0  0  0
   -8.8187   -4.7746    0.0000 N   0  0  0  0  0  0  0  0  0  0  0  0
  -13.1178   -3.6227    0.0000 O   0  0  0  0  0  0  0  0  0  0  0  0
  -11.6178   -3.6227    0.0000 C   0  0  0  0  0  0  0  0  0  0  0  0
  -16.6130    2.7254    0.0000 C   0  0  0  0  0  0  0  0  0  0  0  0
  -15.3139   -2.5246    0.0000 C   0  0  0  0  0  0  0  0  0  0  0  0
   -8.8187   -0.2746    0.0000 C   0  0  0  0  0  0  0  0  0  0  0  0
  -10.1178    0.4754    0.0000 C   0  0  0  0  0  0  0  0  0  0  0  0
  -10.8678   -4.9217    0.0000 C   0  0  0  0  0  0  0  0  0  0  0  0
  -10.8678   -2.3236    0.0000 O   0  0  0  0  0  0  0  0  0  0  0  0
  1  4  2  0  0  0  0
  1  3  1  0  0  0  0
  2 21  2  0  0  0  0
  2  5  1  0  0  0  0
  3 21  1  0  0  0  0
  3  6  2  0  0  0  0
  4  7  1  0  0  0  0
  5  8  2  0  0  0  0
  6  8  1  0  0  0  0
  6  9  1  0  0  0  0
  7  9  2  0  0  0  0
  7 20  1  0  0  0  0
  8 28  1  0  0  0  0
 10 12  2  0  0  0  0
 10 13  1  0  0  0  0
 10 27  1  0  0  0  0
 11 14  2  0  0  0  0
 11 13  1  0  0  0  0
 12 15  1  0  0  0  0
 13 16  2  0  0  0  0
 14 19  1  0  0  0  0
 14 17  1  0  0  0  0
 15 22  2  0  0  0  0
 16 22  1  0  0  0  0
 16 18  1  0  0  0  0
 17 18  2  0  0  0  0
 19 26  1  0  0  0  0
 20 25  1  0  0  0  0
 23 24  2  0  0  0  0
 24 29  1  0  0  0  0
 24 30  1  0  0  0  0
 27 28  2  0  0  0  0
M  END
