346578
 OpenBabel03021519512D

 25 28  0  0  0  0  0  0  0  0999 V2000
    2.6795    2.3190    0.0000 C   0  0  0  0  0  0  0  0  0  0  0  0
    2.6795    0.8190    0.0000 C   0  0  0  0  0  0  0  0  0  0  0  0
    3.9786    3.0690    0.0000 C   0  0  0  0  0  0  0  0  0  0  0  0
    3.9786    0.0690    0.0000 C   0  0  0  0  0  0  0  0  0  0  0  0
    3.9786   -1.4310    0.0000 F   0  0  0  0  0  0  0  0  0  0  0  0
    5.2776    2.3190    0.0000 C   0  0  0  0  0  0  0  0  0  0  0  0
    5.2776    0.8190    0.0000 C   0  0  0  0  0  0  0  0  0  0  0  0
    6.5767    3.0690    0.0000 C   0  0  0  0  0  0  0  0  0  0  0  0
    6.5767    0.0690    0.0000 N   0  0  0  0  0  0  0  0  0  0  0  0
    6.5766    4.5690    0.0000 O   0  0  0  0  0  0  0  0  0  0  0  0
    7.8757    0.8190    0.0000 C   0  0  0  0  0  0  0  0  0  0  0  0
    7.8757    2.3190    0.0000 C   0  0  0  0  0  0  0  0  0  0  0  0
    9.1747    0.0690    0.0000 C   0  0  0  0  0  0  0  0  0  0  0  0
    9.1747    4.5690    0.0000 O   0  0  0  0  0  0  0  0  0  0  0  0
    9.1748   -1.4310    0.0000 C   0  0  0  0  0  0  0  0  0  0  0  0
    9.1747    3.0690    0.0000 C   0  0  0  0  0  0  0  0  0  0  0  0
   10.4738    2.3190    0.0000 C   0  0  0  0  0  0  0  0  0  0  0  0
   10.4738    0.8190    0.0000 C   0  0  0  0  0  0  0  0  0  0  0  0
   10.4738   -2.1810    0.0000 C   0  0  0  0  0  0  0  0  0  0  0  0
   11.7728   -1.4310    0.0000 C   0  0  0  0  0  0  0  0  0  0  0  0
   11.7728    0.0690    0.0000 O   0  0  0  0  0  0  0  0  0  0  0  0
    6.5767   -1.4310    0.0000 C   0  0  0  0  0  0  0  0  0  0  0  0
   10.4738    5.3190    0.0000 C   0  0  0  0  0  0  0  0  0  0  0  0
   12.2859   -2.8405    0.0000 C   0  0  0  0  0  0  0  0  0  0  0  0
   13.2500   -1.1705    0.0000 C   0  0  0  0  0  0  0  0  0  0  0  0
  1  3  1  0  0  0  0
  1  2  2  0  0  0  0
  2  4  1  0  0  0  0
  3  6  2  0  0  0  0
  4  7  2  0  0  0  0
  4  5  1  0  0  0  0
  6  8  1  0  0  0  0
  6  7  1  0  0  0  0
  7  9  1  0  0  0  0
  8 10  2  0  0  0  0
  8 12  1  0  0  0  0
  9 11  1  0  0  0  0
  9 22  1  0  0  0  0
 11 12  2  0  0  0  0
 11 13  1  0  0  0  0
 12 16  1  0  0  0  0
 13 18  2  0  0  0  0
 13 15  1  0  0  0  0
 14 16  1  0  0  0  0
 14 23  1  0  0  0  0
 15 19  2  0  0  0  0
 16 17  2  0  0  0  0
 17 18  1  0  0  0  0
 18 21  1  0  0  0  0
 19 20  1  0  0  0  0
 20 21  1  0  0  0  0
 20 24  1  0  0  0  0
 20 25  1  0  0  0  0
M  END
