603071
 OpenBabel03021519512D

 27 31  0  0  1  0  0  0  0  0999 V2000
  -15.2987    1.2286    0.0000 C   0  0  0  0  0  0  0  0  0  0  0  0
  -15.1656   -0.2654    0.0000 C   0  0  0  0  0  0  0  0  0  0  0  0
  -13.8051   -0.8972    0.0000 C   0  0  0  0  0  0  0  0  0  0  0  0
  -14.0713    2.0910    0.0000 C   0  0  0  0  0  0  0  0  0  0  0  0
  -12.7108    1.4592    0.0000 C   0  0  0  0  0  0  0  0  0  0  0  0
  -12.5777   -0.0349    0.0000 C   0  0  0  0  0  0  0  0  0  0  0  0
  -11.2173   -0.6666    0.0000 N   0  0  0  0  0  0  0  0  0  0  0  0
  -11.4835    2.3215    0.0000 C   0  0  0  0  0  0  0  0  0  0  0  0
   -8.7432    2.2781    0.0000 C   0  0  0  0  0  0  0  0  0  0  0  0
  -10.1230    1.6898    0.0000 C   0  0  0  0  0  0  0  0  0  0  0  0
   -9.9899    0.1957    0.0000 C   0  0  0  0  0  0  0  0  0  0  0  0
   -6.2575    1.1238    0.0000 C   0  0  0  0  0  0  0  0  0  0  0  0
   -7.7573    1.1476    0.0000 N   0  0  0  0  0  0  0  0  0  0  0  0
   -8.5278   -0.1394    0.0000 C   0  0  0  0  0  0  0  0  0  0  0  0
   -7.7985   -1.4501    0.0000 C   0  0  0  0  0  0  0  0  0  0  0  0
   -6.2987   -1.4739    0.0000 C   0  0  0  0  0  0  0  0  0  0  0  0
   -5.5694   -2.7847    0.0000 C   0  0  2  0  0  0  0  0  0  0  0  0
   -4.0695   -2.8085    0.0000 C   0  0  0  0  0  0  0  0  0  0  0  0
   -3.2990   -1.5215    0.0000 O   0  0  0  0  0  0  0  0  0  0  0  0
   -4.0284   -0.2107    0.0000 C   0  0  0  0  0  0  0  0  0  0  0  0
   -5.5282   -0.1869    0.0000 C   0  0  0  0  0  0  0  0  0  0  0  0
   -5.4870    2.4108    0.0000 O   0  0  0  0  0  0  0  0  0  0  0  0
   -3.3402   -4.1192    0.0000 O   0  0  0  0  0  0  0  0  0  0  0  0
   -6.9869   -3.2753    0.0000 C   0  0  0  0  0  0  0  0  0  0  0  0
   -8.1205   -2.2930    0.0000 C   0  0  0  0  0  0  0  0  0  0  0  0
   -5.3323   -4.2658    0.0000 O   0  0  0  0  0  0  0  0  0  0  0  0
  -14.2044    3.5850    0.0000 N   0  0  0  0  0  0  0  0  0  0  0  0
  1  2  1  0  0  0  0
  1  4  2  0  0  0  0
  2  3  2  0  0  0  0
  3  6  1  0  0  0  0
  4  5  1  0  0  0  0
  4 27  1  0  0  0  0
  5  6  2  0  0  0  0
  5  8  1  0  0  0  0
  6  7  1  0  0  0  0
  7 11  2  0  0  0  0
  8 10  2  0  0  0  0
  9 10  1  0  0  0  0
  9 13  1  0  0  0  0
 10 11  1  0  0  0  0
 11 14  1  0  0  0  0
 12 13  1  0  0  0  0
 12 21  1  0  0  0  0
 12 22  2  0  0  0  0
 13 14  1  0  0  0  0
 14 15  2  0  0  0  0
 15 16  1  0  0  0  0
 16 17  1  0  0  0  0
 16 21  2  0  0  0  0
 17 18  1  0  0  0  0
 17 24  1  6  0  0  0
 17 26  1  0  0  0  0
 18 19  1  0  0  0  0
 18 23  2  0  0  0  0
 19 20  1  0  0  0  0
 20 21  1  0  0  0  0
 24 25  1  0  0  0  0
M  END
