164208
 OpenBabel03021519512D

 16 16  0  0  0  0  0  0  0  0999 V2000
   -3.6218   -6.9553    0.0000 C   0  0  0  0  0  0  0  0  0  0  0  0
   -4.5860   -5.8062    0.0000 C   0  0  0  0  0  0  0  0  0  0  0  0
   -4.1348   -8.3648    0.0000 C   0  0  0  0  0  0  0  0  0  0  0  0
   -6.0632   -6.0667    0.0000 C   0  0  0  0  0  0  0  0  0  0  0  0
   -5.6120   -8.6253    0.0000 C   0  0  0  0  0  0  0  0  0  0  0  0
   -6.5762   -7.4762    0.0000 C   0  0  0  0  0  0  0  0  0  0  0  0
   -4.0729   -4.3967    0.0000 N   0  0  0  0  0  0  0  0  0  0  0  0
   -7.0273   -4.9176    0.0000 C   0  0  0  0  0  0  0  0  0  0  0  0
   -6.5143   -3.5081    0.0000 C   0  0  0  0  0  0  0  0  0  0  0  0
   -2.5729   -4.3967    0.0000 C   0  0  0  0  0  0  0  0  0  0  0  0
   -1.8229   -3.0976    0.0000 O   0  0  0  0  0  0  0  0  0  0  0  0
   -1.8229   -5.6957    0.0000 N   0  0  0  0  0  0  0  0  0  0  0  0
   -0.3229   -5.6957    0.0000 C   0  0  0  0  0  0  0  0  0  0  0  0
    0.4271   -4.3967    0.0000 C   0  0  0  0  0  0  0  0  0  0  0  0
    1.9271   -4.3967    0.0000 C   0  0  0  0  0  0  0  0  0  0  0  0
    2.6771   -5.6957    0.0000 C   0  0  0  0  0  0  0  0  0  0  0  0
  1  3  2  0  0  0  0
  1  2  1  0  0  0  0
  2  4  2  0  0  0  0
  2  7  1  0  0  0  0
  3  5  1  0  0  0  0
  4  6  1  0  0  0  0
  4  8  1  0  0  0  0
  5  6  2  0  0  0  0
  7 10  1  0  0  0  0
  8  9  1  0  0  0  0
 10 11  2  0  0  0  0
 10 12  1  0  0  0  0
 12 13  1  0  0  0  0
 13 14  1  0  0  0  0
 14 15  1  0  0  0  0
 15 16  1  0  0  0  0
M  END
