50650
 OpenBabel03021519512D

 27 30  0  0  0  0  0  0  0  0999 V2000
   -9.5508    7.8363    0.0000 O   0  0  0  0  0  0  0  0  0  0  0  0
   -4.0428    1.8691    0.0000 C   0  0  0  0  0  0  0  0  0  0  0  0
   -2.7437    1.1191    0.0000 C   0  0  0  0  0  0  0  0  0  0  0  0
   -5.3418    1.1191    0.0000 C   0  0  0  0  0  0  0  0  0  0  0  0
   -2.7437   -0.3809    0.0000 C   0  0  0  0  0  0  0  0  0  0  0  0
   -5.3418   -0.3809    0.0000 C   0  0  0  0  0  0  0  0  0  0  0  0
   -4.0428   -1.1309    0.0000 C   0  0  0  0  0  0  0  0  0  0  0  0
   -7.9399    5.6191    0.0000 C   0  0  0  0  0  0  0  0  0  0  0  0
   -7.9399    4.1191    0.0000 C   0  0  0  0  0  0  0  0  0  0  0  0
   -9.2389    6.3691    0.0000 C   0  0  0  0  0  0  0  0  0  0  0  0
   -9.2389    3.3691    0.0000 C   0  0  0  0  0  0  0  0  0  0  0  0
  -10.5380    5.6191    0.0000 C   0  0  0  0  0  0  0  0  0  0  0  0
  -10.5380    4.1191    0.0000 C   0  0  0  0  0  0  0  0  0  0  0  0
  -11.6527    6.6228    0.0000 C   0  0  0  0  0  0  0  0  0  0  0  0
  -11.9243    9.2066    0.0000 C   0  0  0  0  0  0  0  0  0  0  0  0
  -11.0426    7.9931    0.0000 C   0  0  0  0  0  0  0  0  0  0  0  0
  -13.4161    9.0499    0.0000 C   0  0  0  0  0  0  0  0  0  0  0  0
  -14.0262    7.6795    0.0000 C   0  0  0  0  0  0  0  0  0  0  0  0
  -13.1445    6.4660    0.0000 C   0  0  0  0  0  0  0  0  0  0  0  0
   -9.2389    1.8691    0.0000 O   0  0  0  0  0  0  0  0  0  0  0  0
   -6.6409    3.3691    0.0000 C   0  0  0  0  0  0  0  0  0  0  0  0
   -5.3418    4.1191    0.0000 O   0  0  0  0  0  0  0  0  0  0  0  0
   -6.6408    1.8691    0.0000 N   0  0  0  0  0  0  0  0  0  0  0  0
   -4.0428    3.3691    0.0000 O   0  0  0  0  0  0  0  0  0  0  0  0
   -2.7437    4.1191    0.0000 C   0  0  0  0  0  0  0  0  0  0  0  0
   -4.0428   -2.6309    0.0000 O   0  0  0  0  0  0  0  0  0  0  0  0
   -5.3418   -3.3809    0.0000 C   0  0  0  0  0  0  0  0  0  0  0  0
  1 10  1  0  0  0  0
  1 16  1  0  0  0  0
  2  4  2  0  0  0  0
  2  3  1  0  0  0  0
  2 24  1  0  0  0  0
  3  5  2  0  0  0  0
  4  6  1  0  0  0  0
  4 23  1  0  0  0  0
  5  7  1  0  0  0  0
  6  7  2  0  0  0  0
  7 26  1  0  0  0  0
  8  9  2  0  0  0  0
  8 10  1  0  0  0  0
  9 11  1  0  0  0  0
  9 21  1  0  0  0  0
 10 12  2  0  0  0  0
 11 13  2  0  0  0  0
 11 20  1  0  0  0  0
 12 13  1  0  0  0  0
 12 14  1  0  0  0  0
 14 16  2  0  0  0  0
 14 19  1  0  0  0  0
 15 17  2  0  0  0  0
 15 16  1  0  0  0  0
 17 18  1  0  0  0  0
 18 19  2  0  0  0  0
 21 22  2  0  0  0  0
 21 23  1  0  0  0  0
 24 25  1  0  0  0  0
 26 27  1  0  0  0  0
M  END
