58724
 OpenBabel03021519512D

 19 22  0  0  1  0  0  0  0  0999 V2000
    0.4991    5.1355    0.0000 O   0  0  0  0  0  0  0  0  0  0  0  0
    2.8222    7.7757    0.0000 O   0  0  0  0  0  0  0  0  0  0  0  0
    3.2404    5.1355    0.0000 N   0  0  0  0  0  0  0  0  0  0  0  0
    2.8222    2.4954    0.0000 O   0  0  0  0  0  0  0  0  0  0  0  0
    2.3587    6.3491    0.0000 C   0  0  0  0  0  0  0  0  0  0  0  0
    0.9321    5.8855    0.0000 C   0  0  3  0  0  0  0  0  0  0  0  0
   -0.3669    6.6355    0.0000 C   0  0  3  0  0  0  0  0  0  0  0  0
   -1.6660    5.8855    0.0000 C   0  0  0  0  0  0  0  0  0  0  0  0
    0.9321    4.3855    0.0000 C   0  0  3  0  0  0  0  0  0  0  0  0
   -1.6660    4.3855    0.0000 C   0  0  0  0  0  0  0  0  0  0  0  0
   -0.3669    3.6355    0.0000 C   0  0  3  0  0  0  0  0  0  0  0  0
    2.3587    3.9220    0.0000 C   0  0  0  0  0  0  0  0  0  0  0  0
    6.7306    3.4655    0.0000 C   0  0  0  0  0  0  0  0  0  0  0  0
    5.2534    3.7260    0.0000 C   0  0  0  0  0  0  0  0  0  0  0  0
    7.2437    2.0560    0.0000 C   0  0  0  0  0  0  0  0  0  0  0  0
    6.2795    0.9069    0.0000 C   0  0  0  0  0  0  0  0  0  0  0  0
    4.2892    2.5769    0.0000 C   0  0  0  0  0  0  0  0  0  0  0  0
    4.8023    1.1674    0.0000 C   0  0  0  0  0  0  0  0  0  0  0  0
    4.7404    5.1355    0.0000 N   0  0  0  0  0  0  0  0  0  0  0  0
  1  7  1  0  0  0  0
  1 11  1  0  0  0  0
  2  5  2  0  0  0  0
  3  5  1  0  0  0  0
  3 12  1  0  0  0  0
  3 19  1  0  0  0  0
  4 12  2  0  0  0  0
  5  6  1  0  0  0  0
  6  7  1  0  0  0  0
  6  9  1  0  0  0  0
  7  8  1  0  0  0  0
  8 10  2  0  0  0  0
  9 11  1  0  0  0  0
  9 12  1  0  0  0  0
 10 11  1  0  0  0  0
 13 15  2  0  0  0  0
 13 14  1  0  0  0  0
 14 17  2  0  0  0  0
 14 19  1  0  0  0  0
 15 16  1  0  0  0  0
 16 18  2  0  0  0  0
 17 18  1  0  0  0  0
M  END
