80735
 OpenBabel03021519512D

 39 42  0  0  0  0  0  0  0  0999 V2000
   -4.2721   -8.8995    0.0000 O   0  0  0  0  0  0  0  0  0  0  0  0
    0.9241  -14.8995    0.0000 C   0  0  0  0  0  0  0  0  0  0  0  0
   -0.3750  -15.6495    0.0000 C   0  0  0  0  0  0  0  0  0  0  0  0
    2.2231  -15.6495    0.0000 C   0  0  0  0  0  0  0  0  0  0  0  0
    2.2231  -17.1495    0.0000 C   0  0  0  0  0  0  0  0  0  0  0  0
   -0.3750  -17.1495    0.0000 C   0  0  0  0  0  0  0  0  0  0  0  0
    0.9241  -17.8995    0.0000 C   0  0  0  0  0  0  0  0  0  0  0  0
   -2.9731  -12.6495    0.0000 C   0  0  0  0  0  0  0  0  0  0  0  0
   -2.9731  -11.1495    0.0000 C   0  0  0  0  0  0  0  0  0  0  0  0
   -4.2721  -13.3995    0.0000 C   0  0  0  0  0  0  0  0  0  0  0  0
   -5.5711  -12.6495    0.0000 C   0  0  0  0  0  0  0  0  0  0  0  0
   -4.2721  -10.3995    0.0000 C   0  0  0  0  0  0  0  0  0  0  0  0
   -5.5711  -11.1495    0.0000 C   0  0  0  0  0  0  0  0  0  0  0  0
   -1.6740   -8.8995    0.0000 C   0  0  0  0  0  0  0  0  0  0  0  0
   -0.3750   -8.1495    0.0000 C   0  0  0  0  0  0  0  0  0  0  0  0
   -2.9731   -8.1495    0.0000 C   0  0  0  0  0  0  0  0  0  0  0  0
   -2.9731   -6.6495    0.0000 C   0  0  0  0  0  0  0  0  0  0  0  0
   -0.3750   -6.6495    0.0000 C   0  0  0  0  0  0  0  0  0  0  0  0
   -1.6740   -5.8995    0.0000 C   0  0  0  0  0  0  0  0  0  0  0  0
    3.5221   -5.8995    0.0000 C   0  0  0  0  0  0  0  0  0  0  0  0
    4.8211   -6.6495    0.0000 C   0  0  0  0  0  0  0  0  0  0  0  0
    3.5221   -4.3995    0.0000 C   0  0  0  0  0  0  0  0  0  0  0  0
    4.8211   -3.6495    0.0000 C   0  0  0  0  0  0  0  0  0  0  0  0
    6.1202   -5.8995    0.0000 C   0  0  0  0  0  0  0  0  0  0  0  0
    6.1202   -4.3995    0.0000 C   0  0  0  0  0  0  0  0  0  0  0  0
    7.4192   -6.6495    0.0000 N   0  3  0  0  0  0  0  0  0  0  0  0
    7.4192   -8.1495    0.0000 O   0  5  0  0  0  0  0  0  0  0  0  0
    8.7183   -5.8995    0.0000 O   0  0  0  0  0  0  0  0  0  0  0  0
    2.2231   -3.6495    0.0000 N   0  0  0  0  0  0  0  0  0  0  0  0
    0.9240   -4.3995    0.0000 C   0  0  0  0  0  0  0  0  0  0  0  0
   -0.3750   -3.6495    0.0000 O   0  0  0  0  0  0  0  0  0  0  0  0
    0.9240   -5.8995    0.0000 N   0  0  0  0  0  0  0  0  0  0  0  0
   -4.2721  -14.8995    0.0000 N   0  0  0  0  0  0  0  0  0  0  0  0
   -2.9731  -15.6495    0.0000 C   0  0  0  0  0  0  0  0  0  0  0  0
   -2.9731  -17.1495    0.0000 O   0  0  0  0  0  0  0  0  0  0  0  0
   -1.6740  -14.8995    0.0000 N   0  0  0  0  0  0  0  0  0  0  0  0
    3.5221  -17.8995    0.0000 N   0  3  0  0  0  0  0  0  0  0  0  0
    4.8212  -17.1495    0.0000 O   0  5  0  0  0  0  0  0  0  0  0  0
    3.5221  -19.3995    0.0000 O   0  0  0  0  0  0  0  0  0  0  0  0
  1 12  1  0  0  0  0
  1 16  1  0  0  0  0
  2  4  2  0  0  0  0
  2  3  1  0  0  0  0
  3  6  2  0  0  0  0
  3 36  1  0  0  0  0
  4  5  1  0  0  0  0
  5  7  2  0  0  0  0
  5 37  1  0  0  0  0
  6  7  1  0  0  0  0
  8 10  2  0  0  0  0
  8  9  1  0  0  0  0
  9 12  2  0  0  0  0
 10 11  1  0  0  0  0
 10 33  1  0  0  0  0
 11 13  2  0  0  0  0
 12 13  1  0  0  0  0
 14 15  2  0  0  0  0
 14 16  1  0  0  0  0
 15 18  1  0  0  0  0
 16 17  2  0  0  0  0
 17 19  1  0  0  0  0
 18 19  2  0  0  0  0
 18 32  1  0  0  0  0
 20 21  2  0  0  0  0
 20 22  1  0  0  0  0
 21 24  1  0  0  0  0
 22 23  2  0  0  0  0
 22 29  1  0  0  0  0
 23 25  1  0  0  0  0
 24 25  2  0  0  0  0
 24 26  1  0  0  0  0
 26 27  1  0  0  0  0
 26 28  2  0  0  0  0
 29 30  1  0  0  0  0
 30 31  2  0  0  0  0
 30 32  1  0  0  0  0
 33 34  1  0  0  0  0
 34 35  2  0  0  0  0
 34 36  1  0  0  0  0
 37 38  1  0  0  0  0
 37 39  2  0  0  0  0
M  CHG  4  26   1  27  -1  37   1  38  -1
M  END
