299514
 OpenBabel03021519512D

 21 23  0  0  0  0  0  0  0  0999 V2000
   -2.1495    2.9731    0.0000 O   0  0  0  0  0  0  0  0  0  0  0  0
   -1.3995    4.2721    0.0000 C   0  0  0  0  0  0  0  0  0  0  0  0
   -2.1495    5.5712    0.0000 O   0  0  0  0  0  0  0  0  0  0  0  0
    0.8505    5.5712    0.0000 C   0  0  0  0  0  0  0  0  0  0  0  0
    2.3505    5.5712    0.0000 C   0  0  0  0  0  0  0  0  0  0  0  0
    0.1005    6.8702    0.0000 C   0  0  0  0  0  0  0  0  0  0  0  0
    3.1005    6.8702    0.0000 C   0  0  0  0  0  0  0  0  0  0  0  0
    2.3505    8.1692    0.0000 C   0  0  0  0  0  0  0  0  0  0  0  0
    0.8505    8.1692    0.0000 C   0  0  0  0  0  0  0  0  0  0  0  0
    0.3870    9.5958    0.0000 N   0  0  0  0  0  0  0  0  0  0  0  0
    2.8141    9.5958    0.0000 N   0  0  0  0  0  0  0  0  0  0  0  0
    4.2406   10.0593    0.0000 H   0  0  0  0  0  0  0  0  0  0  0  0
    1.6005   10.4775    0.0000 C   0  0  0  0  0  0  0  0  0  0  0  0
    1.6005   11.9775    0.0000 C   0  0  0  0  0  0  0  0  0  0  0  0
    2.8141   12.8592    0.0000 N   0  0  0  0  0  0  0  0  0  0  0  0
    2.3505   14.2858    0.0000 C   0  0  0  0  0  0  0  0  0  0  0  0
    0.3870   12.8592    0.0000 C   0  0  0  0  0  0  0  0  0  0  0  0
    0.8505   14.2858    0.0000 S   0  0  0  0  0  0  0  0  0  0  0  0
   -3.6495    2.9731    0.0000 C   0  0  0  0  0  0  0  0  0  0  0  0
   -4.3995    4.2721    0.0000 C   0  0  0  0  0  0  0  0  0  0  0  0
    0.1005    4.2721    0.0000 N   0  0  0  0  0  0  0  0  0  0  0  0
  1  2  1  0  0  0  0
  1 19  1  0  0  0  0
  2  3  2  0  0  0  0
  2 21  1  0  0  0  0
  4  6  2  0  0  0  0
  4  5  1  0  0  0  0
  4 21  1  0  0  0  0
  5  7  2  0  0  0  0
  6  9  1  0  0  0  0
  7  8  1  0  0  0  0
  8  9  2  0  0  0  0
  8 11  1  0  0  0  0
  9 10  1  0  0  0  0
 10 13  2  0  0  0  0
 11 13  1  0  0  0  0
 11 12  1  0  0  0  0
 13 14  1  0  0  0  0
 14 17  2  0  0  0  0
 14 15  1  0  0  0  0
 15 16  2  0  0  0  0
 16 18  1  0  0  0  0
 17 18  1  0  0  0  0
 19 20  1  0  0  0  0
M  END
