116339
 OpenBabel03021519512D

 33 38  0  0  1  0  0  0  0  0999 V2000
  -10.7175  -10.0538    0.0000 O   0  0  0  0  0  0  0  0  0  0  0  0
   -2.3783   -3.8767    0.0000 O   0  0  0  0  0  0  0  0  0  0  0  0
   -0.0701   -3.1267    0.0000 O   0  0  0  0  0  0  0  0  0  0  0  0
    1.7813   -4.4717    0.0000 O   0  0  0  0  0  0  0  0  0  0  0  0
    1.7813   -6.8988    0.0000 O   0  0  0  0  0  0  0  0  0  0  0  0
   -1.4966   -2.6632    0.0000 C   0  0  0  0  0  0  0  0  0  0  0  0
   -0.0701   -4.6267    0.0000 C   0  0  3  0  0  0  0  0  0  0  0  0
   -1.4966   -5.0902    0.0000 C   0  0  3  0  0  0  0  0  0  0  0  0
    0.3547   -6.4353    0.0000 C   0  0  0  0  0  0  0  0  0  0  0  0
   -0.6150   -6.3037    0.0000 C   0  0  3  0  0  0  0  0  0  0  0  0
   -2.9232   -5.5537    0.0000 C   0  0  3  0  0  0  0  0  0  0  0  0
   -4.2223   -4.8038    0.0000 C   0  0  0  0  0  0  0  0  0  0  0  0
   -5.5213   -5.5538    0.0000 C   0  0  3  0  0  0  0  0  0  0  0  0
   -1.4966   -7.5173    0.0000 C   0  0  0  0  0  0  0  0  0  0  0  0
   -2.9232   -7.0537    0.0000 C   0  0  3  0  0  0  0  0  0  0  0  0
   -5.5213   -7.0538    0.0000 C   0  0  3  0  0  0  0  0  0  0  0  0
   -4.2223   -7.8038    0.0000 C   0  0  3  0  0  0  0  0  0  0  0  0
   -6.8203   -7.8038    0.0000 C   0  0  3  0  0  0  0  0  0  0  0  0
   -8.1194   -7.0538    0.0000 C   0  0  0  0  0  0  0  0  0  0  0  0
   -9.4184   -7.8038    0.0000 C   0  0  0  0  0  0  0  0  0  0  0  0
   -4.2223   -9.3038    0.0000 C   0  0  0  0  0  0  0  0  0  0  0  0
   -6.8203   -9.3038    0.0000 C   0  0  0  0  0  0  0  0  0  0  0  0
   -9.4184   -9.3038    0.0000 C   0  0  0  0  0  0  0  0  0  0  0  0
   -5.5213  -10.0538    0.0000 C   0  0  0  0  0  0  0  0  0  0  0  0
   -8.1194  -10.0538    0.0000 C   0  0  0  0  0  0  0  0  0  0  0  0
    2.6629   -5.6853    0.0000 C   0  0  0  0  0  0  0  0  0  0  0  0
  -12.0165   -7.8038    0.0000 O   0  0  0  0  0  0  0  0  0  0  0  0
  -10.7175   -7.0538    0.0000 C   0  0  0  0  0  0  0  0  0  0  0  0
   -6.8203   -6.3038    0.0000 C   0  0  0  0  0  0  0  0  0  0  0  0
   -6.8203   -4.8038    0.0000 O   0  0  0  0  0  0  0  0  0  0  0  0
   -5.5213  -11.5538    0.0000 C   0  0  0  0  0  0  0  0  0  0  0  0
   -2.7664   -4.0620    0.0000 C   0  0  0  0  0  0  0  0  0  0  0  0
    0.8850   -6.3037    0.0000 C   0  0  0  0  0  0  0  0  0  0  0  0
  1 23  2  0  0  0  0
  2  6  1  0  0  0  0
  2  8  1  0  0  0  0
  3  6  1  0  0  0  0
  3  7  1  0  0  0  0
  4  7  1  0  0  0  0
  4 26  1  0  0  0  0
  5  9  1  0  0  0  0
  5 26  1  0  0  0  0
  7  8  1  0  0  0  0
  7  9  1  0  0  0  0
  8 10  1  0  0  0  0
  8 11  1  0  0  0  0
 10 14  1  0  0  0  0
 10 33  1  0  0  0  0
 11 12  1  0  0  0  0
 11 15  1  0  0  0  0
 11 32  1  0  0  0  0
 12 13  1  0  0  0  0
 13 16  1  0  0  0  0
 13 30  1  0  0  0  0
 14 15  1  0  0  0  0
 15 17  1  0  0  0  0
 16 17  1  0  0  0  0
 16 18  1  0  0  0  0
 17 21  1  0  0  0  0
 18 19  1  0  0  0  0
 18 22  1  0  0  0  0
 18 29  1  0  0  0  0
 19 20  1  0  0  0  0
 20 23  1  0  0  0  0
 20 28  2  0  0  0  0
 21 24  2  0  0  0  0
 22 25  2  0  0  0  0
 22 24  1  0  0  0  0
 23 25  1  0  0  0  0
 24 31  1  0  0  0  0
 27 28  1  0  0  0  0
M  END
