11624
 OpenBabel03021519512D

 18 20  0  0  0  0  0  0  0  0999 V2000
    2.1769   -0.1483    0.0000 N   0  0  0  0  0  0  0  0  0  0  0  0
    1.9054    2.4356    0.0000 N   0  0  0  0  0  0  0  0  0  0  0  0
    4.5504   -1.2050    0.0000 S   0  0  0  0  0  0  0  0  0  0  0  0
   10.5175   -0.5778    0.0000 Cl  0  0  0  0  0  0  0  0  0  0  0  0
    4.2788    3.8059    0.0000 N   0  0  0  0  0  0  0  0  0  0  0  0
    5.7054    3.3424    0.0000 N   0  0  0  0  0  0  0  0  0  0  0  0
    3.3972    2.5924    0.0000 C   0  0  0  0  0  0  0  0  0  0  0  0
    4.2788    1.3789    0.0000 C   0  0  0  0  0  0  0  0  0  0  0  0
    3.6687    0.0085    0.0000 C   0  0  0  0  0  0  0  0  0  0  0  0
    5.7054    1.8424    0.0000 C   0  0  0  0  0  0  0  0  0  0  0  0
    1.2953    1.0653    0.0000 C   0  0  0  0  0  0  0  0  0  0  0  0
    6.0422   -1.0482    0.0000 C   0  0  0  0  0  0  0  0  0  0  0  0
    6.6523    0.3221    0.0000 C   0  0  0  0  0  0  0  0  0  0  0  0
    6.9239   -2.2617    0.0000 C   0  0  0  0  0  0  0  0  0  0  0  0
    8.1441    0.4789    0.0000 C   0  0  0  0  0  0  0  0  0  0  0  0
    8.4157   -2.1049    0.0000 C   0  0  0  0  0  0  0  0  0  0  0  0
    9.0258   -0.7346    0.0000 C   0  0  0  0  0  0  0  0  0  0  0  0
    3.8153    5.2325    0.0000 C   0  0  0  0  0  0  0  0  0  0  0  0
  1  9  2  0  0  0  0
  1 11  1  0  0  0  0
  2 11  2  0  0  0  0
  2  7  1  0  0  0  0
  3  9  1  0  0  0  0
  3 12  1  0  0  0  0
  4 17  1  0  0  0  0
  5  6  1  0  0  0  0
  5  7  1  0  0  0  0
  5 18  1  0  0  0  0
  6 10  2  0  0  0  0
  7  8  2  0  0  0  0
  8  9  1  0  0  0  0
  8 10  1  0  0  0  0
 12 13  2  0  0  0  0
 12 14  1  0  0  0  0
 13 15  1  0  0  0  0
 14 16  2  0  0  0  0
 15 17  2  0  0  0  0
 16 17  1  0  0  0  0
M  END
