127458
 OpenBabel03021519512D

 15 17  0  0  0  0  0  0  0  0999 V2000
   -4.9487    2.8464    0.0000 N   0  0  0  0  0  0  0  0  0  0  0  0
   -2.5752    4.2167    0.0000 N   0  0  0  0  0  0  0  0  0  0  0  0
   -1.1486    3.7532    0.0000 N   0  0  0  0  0  0  0  0  0  0  0  0
   -3.9658    8.4965    0.0000 C   0  0  0  0  0  0  0  0  0  0  0  0
   -4.9695    7.3818    0.0000 C   0  0  0  0  0  0  0  0  0  0  0  0
   -2.4985    8.1846    0.0000 C   0  0  0  0  0  0  0  0  0  0  0  0
   -2.0350    6.7580    0.0000 C   0  0  0  0  0  0  0  0  0  0  0  0
   -4.5059    5.9552    0.0000 C   0  0  0  0  0  0  0  0  0  0  0  0
   -3.0387    5.6433    0.0000 C   0  0  0  0  0  0  0  0  0  0  0  0
   -3.4569    3.0032    0.0000 C   0  0  0  0  0  0  0  0  0  0  0  0
   -2.5752    1.7897    0.0000 C   0  0  0  0  0  0  0  0  0  0  0  0
   -1.1486    2.2532    0.0000 C   0  0  0  0  0  0  0  0  0  0  0  0
   -3.1853    0.4193    0.0000 C   0  0  0  0  0  0  0  0  0  0  0  0
   -4.6771    0.2626    0.0000 C   0  0  0  0  0  0  0  0  0  0  0  0
   -5.5588    1.4761    0.0000 C   0  0  0  0  0  0  0  0  0  0  0  0
  1 15  2  0  0  0  0
  1 10  1  0  0  0  0
  2  3  1  0  0  0  0
  2  9  1  0  0  0  0
  2 10  1  0  0  0  0
  3 12  2  0  0  0  0
  4  6  2  0  0  0  0
  4  5  1  0  0  0  0
  5  8  2  0  0  0  0
  6  7  1  0  0  0  0
  7  9  2  0  0  0  0
  8  9  1  0  0  0  0
 10 11  2  0  0  0  0
 11 12  1  0  0  0  0
 11 13  1  0  0  0  0
 13 14  2  0  0  0  0
 14 15  1  0  0  0  0
M  END
