88998
 OpenBabel03021519512D

 14 15  0  0  1  0  0  0  0  0999 V2000
   -5.1138    0.1709    0.0000 N   0  0  0  0  0  0  0  0  0  0  0  0
   -6.0866    2.6926    0.0000 C   0  0  3  0  0  0  0  0  0  0  0  0
   -4.9930    1.6660    0.0000 C   0  0  0  0  0  0  0  0  0  0  0  0
   -7.5712    2.4777    0.0000 C   0  0  0  0  0  0  0  0  0  0  0  0
   -6.0364    1.1012    0.0000 C   0  0  0  0  0  0  0  0  0  0  0  0
   -8.3287    1.1831    0.0000 C   0  0  0  0  0  0  0  0  0  0  0  0
   -7.8391    1.3750    0.0000 C   0  0  0  0  0  0  0  0  0  0  0  0
   -7.7888   -0.2164    0.0000 C   0  0  3  0  0  0  0  0  0  0  0  0
   -6.3581   -0.6669    0.0000 C   0  0  0  0  0  0  0  0  0  0  0  0
   -3.8192   -0.5867    0.0000 C   0  0  0  0  0  0  0  0  0  0  0  0
   -2.5158    0.1557    0.0000 O   0  0  0  0  0  0  0  0  0  0  0  0
   -3.8279   -2.0867    0.0000 C   0  0  0  0  0  0  0  0  0  0  0  0
   -2.5333   -2.8442    0.0000 Cl  0  0  0  0  0  0  0  0  0  0  0  0
   -5.1313   -2.8291    0.0000 Cl  0  0  0  0  0  0  0  0  0  0  0  0
  1  3  1  0  0  0  0
  1  9  1  0  0  0  0
  1 10  1  0  0  0  0
  2  3  1  0  0  0  0
  2  4  1  0  0  0  0
  2  5  1  0  0  0  0
  4  6  1  0  0  0  0
  5  7  1  0  0  0  0
  6  8  1  0  0  0  0
  7  8  1  0  0  0  0
  8  9  1  0  0  0  0
 10 11  2  0  0  0  0
 10 12  1  0  0  0  0
 12 13  1  0  0  0  0
 12 14  1  0  0  0  0
M  END
