341956
 OpenBabel03021519512D

 22 23  0  0  1  0  0  0  0  0999 V2000
   -1.5660   -0.1797    0.0000 C   0  0  0  0  0  0  0  0  0  0  0  0
   -1.3284   -1.6607    0.0000 C   0  0  0  0  0  0  0  0  0  0  0  0
    0.0731   -2.1955    0.0000 C   0  0  0  0  0  0  0  0  0  0  0  0
    1.2369   -1.2492    0.0000 C   0  0  0  0  0  0  0  0  0  0  0  0
    0.9993    0.2319    0.0000 C   0  0  0  0  0  0  0  0  0  0  0  0
   -0.4022    0.7666    0.0000 C   0  0  0  0  0  0  0  0  0  0  0  0
    3.3972   -0.1430    0.0000 C   0  0  3  0  0  0  0  0  0  0  0  0
    2.3344    0.9155    0.0000 C   0  0  0  0  0  0  0  0  0  0  0  0
   -2.9674    0.3551    0.0000 O   0  0  0  0  0  0  0  0  0  0  0  0
   -2.4922   -2.6070    0.0000 O   0  0  0  0  0  0  0  0  0  0  0  0
    2.7189   -1.4809    0.0000 N   0  0  0  0  0  0  0  0  0  0  0  0
   -3.2050    1.8361    0.0000 C   0  0  0  0  0  0  0  0  0  0  0  0
   -2.0412    2.7824    0.0000 O   0  0  0  0  0  0  0  0  0  0  0  0
   -4.6065    2.3709    0.0000 C   0  0  0  0  0  0  0  0  0  0  0  0
   -3.8937   -2.0723    0.0000 C   0  0  0  0  0  0  0  0  0  0  0  0
   -4.1313   -0.5912    0.0000 O   0  0  0  0  0  0  0  0  0  0  0  0
   -5.0575   -3.0186    0.0000 C   0  0  0  0  0  0  0  0  0  0  0  0
    4.6568   -0.9574    0.0000 C   0  0  0  0  0  0  0  0  0  0  0  0
    4.3389    1.0246    0.0000 C   0  0  0  0  0  0  0  0  0  0  0  0
    5.8209    0.7929    0.0000 O   0  0  0  0  0  0  0  0  0  0  0  0
    3.7985    2.4239    0.0000 O   0  0  0  0  0  0  0  0  0  0  0  0
    2.3165    2.6556    0.0000 C   0  0  0  0  0  0  0  0  0  0  0  0
  1  2  2  0  0  0  0
  1  6  1  0  0  0  0
  1  9  1  0  0  0  0
  2  3  1  0  0  0  0
  2 10  1  0  0  0  0
  3  4  2  0  0  0  0
  4  5  1  0  0  0  0
  4 11  1  0  0  0  0
  5  6  2  0  0  0  0
  5  8  1  0  0  0  0
  7  8  1  0  0  0  0
  7 11  1  0  0  0  0
  7 18  1  0  0  0  0
  7 19  1  0  0  0  0
  9 12  1  0  0  0  0
 10 15  1  0  0  0  0
 12 13  2  0  0  0  0
 12 14  1  0  0  0  0
 15 16  2  0  0  0  0
 15 17  1  0  0  0  0
 19 20  2  0  0  0  0
 19 21  1  0  0  0  0
 21 22  1  0  0  0  0
M  END
