45536
 OpenBabel03021519512D

 20 22  0  0  0  0  0  0  0  0999 V2000
   -2.4179   -4.7130    0.0000 F   0  0  0  0  0  0  0  0  0  0  0  0
    3.6226   -1.2255    0.0000 N   0  0  0  0  0  0  0  0  0  0  0  0
    4.9216   -1.9755    0.0000 N   0  0  0  0  0  0  0  0  0  0  0  0
   -1.1189   -3.9630    0.0000 C   0  0  0  0  0  0  0  0  0  0  0  0
   -1.1189   -2.4630    0.0000 C   0  0  0  0  0  0  0  0  0  0  0  0
    0.1802   -4.7130    0.0000 C   0  0  0  0  0  0  0  0  0  0  0  0
    0.1802   -1.7130    0.0000 C   0  0  0  0  0  0  0  0  0  0  0  0
    1.4792   -3.9630    0.0000 C   0  0  0  0  0  0  0  0  0  0  0  0
    1.4792   -2.4630    0.0000 C   0  0  0  0  0  0  0  0  0  0  0  0
    6.2207   -1.2255    0.0000 C   0  0  0  0  0  0  0  0  0  0  0  0
    6.2207    0.2745    0.0000 C   0  0  0  0  0  0  0  0  0  0  0  0
    7.5197   -1.9755    0.0000 C   0  0  0  0  0  0  0  0  0  0  0  0
    7.5197   -3.4755    0.0000 C   0  0  0  0  0  0  0  0  0  0  0  0
    8.8188   -4.2255    0.0000 C   0  0  0  0  0  0  0  0  0  0  0  0
    7.5197    1.0245    0.0000 C   0  0  0  0  0  0  0  0  0  0  0  0
    8.8188   -1.2255    0.0000 C   0  0  0  0  0  0  0  0  0  0  0  0
   10.1178   -3.4755    0.0000 C   0  0  0  0  0  0  0  0  0  0  0  0
    8.8187    0.2745    0.0000 C   0  0  0  0  0  0  0  0  0  0  0  0
   10.1178   -1.9755    0.0000 C   0  0  0  0  0  0  0  0  0  0  0  0
    4.9216    1.0245    0.0000 O   0  0  0  0  0  0  0  0  0  0  0  0
  1  4  1  0  0  0  0
  2  3  2  0  0  0  0
  2  9  1  0  0  0  0
  3 10  1  0  0  0  0
  4  5  2  0  0  0  0
  4  6  1  0  0  0  0
  5  7  1  0  0  0  0
  6  8  2  0  0  0  0
  7  9  2  0  0  0  0
  8  9  1  0  0  0  0
 10 11  2  0  0  0  0
 10 12  1  0  0  0  0
 11 15  1  0  0  0  0
 11 20  1  0  0  0  0
 12 16  2  0  0  0  0
 12 13  1  0  0  0  0
 13 14  2  0  0  0  0
 14 17  1  0  0  0  0
 15 18  2  0  0  0  0
 16 18  1  0  0  0  0
 16 19  1  0  0  0  0
 17 19  2  0  0  0  0
M  END
