66122
 OpenBabel03021519512D

 22 24  0  0  0  0  0  0  0  0999 V2000
    8.6476    2.8587    0.0000 N   0  0  0  0  0  0  0  0  0  0  0  0
    7.3485    3.6087    0.0000 N   0  0  0  0  0  0  0  0  0  0  0  0
    3.4514    7.3587    0.0000 C   0  0  0  0  0  0  0  0  0  0  0  0
    2.1524    8.1087    0.0000 C   0  0  0  0  0  0  0  0  0  0  0  0
    4.7505    8.1087    0.0000 C   0  0  0  0  0  0  0  0  0  0  0  0
    2.1524    9.6087    0.0000 C   0  0  0  0  0  0  0  0  0  0  0  0
    4.7505    9.6087    0.0000 C   0  0  0  0  0  0  0  0  0  0  0  0
    3.4514   10.3587    0.0000 C   0  0  0  0  0  0  0  0  0  0  0  0
    7.3485    5.1087    0.0000 C   0  0  0  0  0  0  0  0  0  0  0  0
    8.6476    5.8587    0.0000 C   0  0  0  0  0  0  0  0  0  0  0  0
    9.9466    5.1087    0.0000 C   0  0  0  0  0  0  0  0  0  0  0  0
    9.9466    3.6087    0.0000 C   0  0  0  0  0  0  0  0  0  0  0  0
   12.5447   -0.8913    0.0000 C   0  0  0  0  0  0  0  0  0  0  0  0
   12.5447    0.6087    0.0000 C   0  0  0  0  0  0  0  0  0  0  0  0
   13.8437   -1.6413    0.0000 C   0  0  0  0  0  0  0  0  0  0  0  0
   13.8437    1.3587    0.0000 C   0  0  0  0  0  0  0  0  0  0  0  0
   15.1428   -0.8913    0.0000 C   0  0  0  0  0  0  0  0  0  0  0  0
   15.1428    0.6087    0.0000 C   0  0  0  0  0  0  0  0  0  0  0  0
   11.2456    1.3587    0.0000 C   0  0  0  0  0  0  0  0  0  0  0  0
   11.2456    2.8587    0.0000 C   0  0  0  0  0  0  0  0  0  0  0  0
    6.0495    5.8587    0.0000 C   0  0  0  0  0  0  0  0  0  0  0  0
    6.0495    7.3587    0.0000 C   0  0  0  0  0  0  0  0  0  0  0  0
  1  2  2  0  0  0  0
  1 12  1  0  0  0  0
  2  9  1  0  0  0  0
  3  4  2  0  0  0  0
  3  5  1  0  0  0  0
  4  6  1  0  0  0  0
  5  7  2  0  0  0  0
  5 22  1  0  0  0  0
  6  8  2  0  0  0  0
  7  8  1  0  0  0  0
  9 10  2  0  0  0  0
  9 21  1  0  0  0  0
 10 11  1  0  0  0  0
 11 12  2  0  0  0  0
 12 20  1  0  0  0  0
 13 15  2  0  0  0  0
 13 14  1  0  0  0  0
 14 16  2  0  0  0  0
 14 19  1  0  0  0  0
 15 17  1  0  0  0  0
 16 18  1  0  0  0  0
 17 18  2  0  0  0  0
 19 20  2  0  0  0  0
 21 22  2  0  0  0  0
M  END
