63865
 OpenBabel03021519512D

 18 19  0  0  1  0  0  0  0  0999 V2000
   -2.7422   -1.6469    0.0000 O   0  0  0  0  0  0  0  0  0  0  0  0
   -0.6786   -4.1750    0.0000 H   0  0  0  0  0  0  0  0  0  0  0  0
   -0.2960   -2.7246    0.0000 N   0  0  0  0  0  0  0  0  0  0  0  0
   -0.9756    1.0969    0.0000 H   0  0  0  0  0  0  0  0  0  0  0  0
   -0.4326   -0.3013    0.0000 N   0  0  0  0  0  0  0  0  0  0  0  0
    3.3646   -1.3028    0.0000 S   0  0  0  0  0  0  0  0  0  0  0  0
    2.4161   -0.1408    0.0000 C   0  0  3  0  0  0  0  0  0  0  0  0
    1.0178   -0.6839    0.0000 C   0  0  3  0  0  0  0  0  0  0  0  0
    1.1022   -2.1815    0.0000 C   0  0  3  0  0  0  0  0  0  0  0  0
    2.5526   -2.5640    0.0000 C   0  0  0  0  0  0  0  0  0  0  0  0
   -1.2446   -1.5626    0.0000 C   0  0  0  0  0  0  0  0  0  0  0  0
    2.7986    1.3096    0.0000 C   0  0  0  0  0  0  0  0  0  0  0  0
    1.7338    2.3661    0.0000 C   0  0  0  0  0  0  0  0  0  0  0  0
    0.2865    1.9721    0.0000 C   0  0  0  0  0  0  0  0  0  0  0  0
   -0.7784    3.0286    0.0000 C   0  0  0  0  0  0  0  0  0  0  0  0
   -2.2257    2.6347    0.0000 C   0  0  0  0  0  0  0  0  0  0  0  0
   -2.6082    1.1843    0.0000 O   0  0  0  0  0  0  0  0  0  0  0  0
   -3.2905    3.6912    0.0000 O   0  0  0  0  0  0  0  0  0  0  0  0
  1 11  2  0  0  0  0
  2  3  1  0  0  0  0
  3  9  1  0  0  0  0
  3 11  1  0  0  0  0
  4  5  1  0  0  0  0
  5  8  1  0  0  0  0
  5 11  1  0  0  0  0
  6  7  1  0  0  0  0
  6 10  1  0  0  0  0
  7  8  1  0  0  0  0
  7 12  1  0  0  0  0
  8  9  1  0  0  0  0
  9 10  1  0  0  0  0
 12 13  1  0  0  0  0
 13 14  1  0  0  0  0
 14 15  1  0  0  0  0
 15 16  1  0  0  0  0
 16 17  2  0  0  0  0
 16 18  1  0  0  0  0
M  END
