45086
 OpenBabel03021519512D

 19 20  0  0  0  0  0  0  0  0999 V2000
    6.9873    4.8967    0.0000 O   0  0  0  0  0  0  0  0  0  0  0  0
    2.8726    5.5245    0.0000 C   0  0  0  0  0  0  0  0  0  0  0  0
    4.1716    4.7745    0.0000 C   0  0  0  0  0  0  0  0  0  0  0  0
    1.5736    4.7745    0.0000 C   0  0  0  0  0  0  0  0  0  0  0  0
    4.1716    3.2745    0.0000 C   0  0  0  0  0  0  0  0  0  0  0  0
    1.5735    3.2745    0.0000 C   0  0  0  0  0  0  0  0  0  0  0  0
    2.8726    2.5245    0.0000 C   0  0  0  0  0  0  0  0  0  0  0  0
    7.6915    3.5722    0.0000 C   0  0  0  0  0  0  0  0  0  0  0  0
    9.1687    3.8327    0.0000 C   0  0  0  0  0  0  0  0  0  0  0  0
    9.3775    5.3181    0.0000 C   0  0  0  0  0  0  0  0  0  0  0  0
    8.0293    5.9757    0.0000 C   0  0  0  0  0  0  0  0  0  0  0  0
    0.2745    2.5245    0.0000 N   0  3  0  0  0  0  0  0  0  0  0  0
   -1.0245    3.2745    0.0000 O   0  5  0  0  0  0  0  0  0  0  0  0
    0.2745    1.0245    0.0000 O   0  0  0  0  0  0  0  0  0  0  0  0
    5.4707    5.5245    0.0000 N   0  0  0  0  0  0  0  0  0  0  0  0
    5.2102    7.0017    0.0000 C   0  0  0  0  0  0  0  0  0  0  0  0
    3.8007    7.5148    0.0000 O   0  0  0  0  0  0  0  0  0  0  0  0
    6.3593    7.9659    0.0000 N   0  0  0  0  0  0  0  0  0  0  0  0
    7.7688    7.4529    0.0000 C   0  0  0  0  0  0  0  0  0  0  0  0
  1  8  1  0  0  0  0
  1 11  1  0  0  0  0
  2  4  2  0  0  0  0
  2  3  1  0  0  0  0
  3  5  2  0  0  0  0
  3 15  1  0  0  0  0
  4  6  1  0  0  0  0
  5  7  1  0  0  0  0
  6  7  2  0  0  0  0
  6 12  1  0  0  0  0
  8  9  2  0  0  0  0
  9 10  1  0  0  0  0
 10 11  2  0  0  0  0
 11 19  1  0  0  0  0
 12 13  1  0  0  0  0
 12 14  2  0  0  0  0
 15 16  1  0  0  0  0
 16 17  2  0  0  0  0
 16 18  1  0  0  0  0
 18 19  1  0  0  0  0
M  CHG  2  12   1  13  -1
M  END
