338042
 OpenBabel03021519512D

 30 33  0  0  0  0  0  0  0  0999 V2000
    3.6226    4.7745    0.0000 C   0  0  0  0  0  0  0  0  0  0  0  0
    3.6226    3.2745    0.0000 C   0  0  0  0  0  0  0  0  0  0  0  0
    4.9216    5.5245    0.0000 C   0  0  0  0  0  0  0  0  0  0  0  0
    4.9216    2.5245    0.0000 C   0  0  0  0  0  0  0  0  0  0  0  0
    6.2207    4.7745    0.0000 C   0  0  0  0  0  0  0  0  0  0  0  0
    6.2207    3.2745    0.0000 C   0  0  0  0  0  0  0  0  0  0  0  0
    8.8188    3.2745    0.0000 C   0  0  0  0  0  0  0  0  0  0  0  0
    8.8188    4.7745    0.0000 O   0  0  0  0  0  0  0  0  0  0  0  0
   10.1178    2.5245    0.0000 C   0  0  0  0  0  0  0  0  0  0  0  0
   11.4168    3.2745    0.0000 O   0  0  0  0  0  0  0  0  0  0  0  0
   12.7159    1.0245    0.0000 C   0  0  0  0  0  0  0  0  0  0  0  0
   11.4168    0.2745    0.0000 C   0  0  0  0  0  0  0  0  0  0  0  0
   11.4168   -1.2255    0.0000 C   0  0  0  0  0  0  0  0  0  0  0  0
   14.0149    0.2745    0.0000 C   0  0  0  0  0  0  0  0  0  0  0  0
   14.0149   -1.2255    0.0000 C   0  0  0  0  0  0  0  0  0  0  0  0
   12.7159   -1.9755    0.0000 C   0  0  0  0  0  0  0  0  0  0  0  0
    4.9216    1.0245    0.0000 C   0  0  0  0  0  0  0  0  0  0  0  0
    6.2207    0.2745    0.0000 C   0  0  0  0  0  0  0  0  0  0  0  0
    6.2207   -1.2255    0.0000 C   0  0  0  0  0  0  0  0  0  0  0  0
    4.9216   -1.9755    0.0000 C   0  0  0  0  0  0  0  0  0  0  0  0
    3.6226   -1.2255    0.0000 C   0  0  0  0  0  0  0  0  0  0  0  0
    3.6226    0.2745    0.0000 C   0  0  0  0  0  0  0  0  0  0  0  0
    7.5197    2.5245    0.0000 N   0  0  0  0  0  0  0  0  0  0  0  0
   10.1178    1.0245    0.0000 N   0  0  0  0  0  0  0  0  0  0  0  0
   10.1178   -1.9755    0.0000 C   0  0  0  0  0  0  0  0  0  0  0  0
   10.1178   -3.4755    0.0000 C   0  0  0  0  0  0  0  0  0  0  0  0
    8.8188   -4.2255    0.0000 C   0  0  0  0  0  0  0  0  0  0  0  0
    7.5197   -3.4755    0.0000 C   0  0  0  0  0  0  0  0  0  0  0  0
    7.5197   -1.9755    0.0000 C   0  0  0  0  0  0  0  0  0  0  0  0
    8.8188   -1.2255    0.0000 C   0  0  0  0  0  0  0  0  0  0  0  0
  1  3  1  0  0  0  0
  1  2  2  0  0  0  0
  2  4  1  0  0  0  0
  3  5  2  0  0  0  0
  4  6  2  0  0  0  0
  4 17  1  0  0  0  0
  5  6  1  0  0  0  0
  6 23  1  0  0  0  0
  7  8  2  0  0  0  0
  7  9  1  0  0  0  0
  7 23  1  0  0  0  0
  9 10  2  0  0  0  0
  9 24  1  0  0  0  0
 11 14  2  0  0  0  0
 11 12  1  0  0  0  0
 12 13  2  0  0  0  0
 12 24  1  0  0  0  0
 13 16  1  0  0  0  0
 13 25  1  0  0  0  0
 14 15  1  0  0  0  0
 15 16  2  0  0  0  0
 17 18  2  0  0  0  0
 17 22  1  0  0  0  0
 18 19  1  0  0  0  0
 19 20  2  0  0  0  0
 20 21  1  0  0  0  0
 21 22  2  0  0  0  0
 25 26  2  0  0  0  0
 25 30  1  0  0  0  0
 26 27  1  0  0  0  0
 27 28  2  0  0  0  0
 28 29  1  0  0  0  0
 29 30  2  0  0  0  0
M  END
