308848
 OpenBabel03021519512D

 23 25  0  0  0  0  0  0  0  0999 V2000
    1.7745    8.8187    0.0000 C   0  0  0  0  0  0  0  0  0  0  0  0
    0.2745    8.8187    0.0000 C   0  0  0  0  0  0  0  0  0  0  0  0
    4.0245    7.5197    0.0000 C   0  0  0  0  0  0  0  0  0  0  0  0
    2.5245    7.5197    0.0000 C   0  0  0  0  0  0  0  0  0  0  0  0
   -0.4755    7.5197    0.0000 C   0  0  0  0  0  0  0  0  0  0  0  0
    1.7745    6.2207    0.0000 C   0  0  0  0  0  0  0  0  0  0  0  0
    0.2745    6.2207    0.0000 C   0  0  0  0  0  0  0  0  0  0  0  0
    4.0245    4.9216    0.0000 C   0  0  0  0  0  0  0  0  0  0  0  0
    2.5245    4.9216    0.0000 C   0  0  0  0  0  0  0  0  0  0  0  0
   -0.4755    4.9216    0.0000 C   0  0  0  0  0  0  0  0  0  0  0  0
    1.7745    3.6226    0.0000 C   0  0  0  0  0  0  0  0  0  0  0  0
    0.2745    3.6226    0.0000 C   0  0  0  0  0  0  0  0  0  0  0  0
    4.7745    6.2207    0.0000 N   0  0  0  0  0  0  0  0  0  0  0  0
    4.7745    3.6226    0.0000 O   0  0  0  0  0  0  0  0  0  0  0  0
    4.7745    8.8188    0.0000 O   0  0  0  0  0  0  0  0  0  0  0  0
    8.2648    7.8907    0.0000 N   0  0  0  0  0  0  0  0  0  0  0  0
   -0.4755    2.3236    0.0000 N   0  0  0  0  0  0  0  0  0  0  0  0
    6.2745    6.2207    0.0000 C   0  0  0  0  0  0  0  0  0  0  0  0
    6.7876    7.6302    0.0000 C   0  0  0  0  0  0  0  0  0  0  0  0
    9.2289    6.7416    0.0000 C   0  0  0  0  0  0  0  0  0  0  0  0
   10.7062    7.0021    0.0000 C   0  0  0  0  0  0  0  0  0  0  0  0
    8.7778    9.3002    0.0000 C   0  0  0  0  0  0  0  0  0  0  0  0
   10.2550    9.5607    0.0000 C   0  0  0  0  0  0  0  0  0  0  0  0
  1  4  1  0  0  0  0
  1  2  2  0  0  0  0
  2  5  1  0  0  0  0
  3 15  2  0  0  0  0
  3  4  1  0  0  0  0
  3 13  1  0  0  0  0
  4  6  2  0  0  0  0
  5  7  2  0  0  0  0
  6  7  1  0  0  0  0
  6  9  1  0  0  0  0
  7 10  1  0  0  0  0
  8 13  1  0  0  0  0
  8  9  1  0  0  0  0
  8 14  2  0  0  0  0
  9 11  2  0  0  0  0
 10 12  2  0  0  0  0
 11 12  1  0  0  0  0
 12 17  1  0  0  0  0
 13 18  1  0  0  0  0
 16 19  1  0  0  0  0
 16 20  1  0  0  0  0
 16 22  1  0  0  0  0
 18 19  1  0  0  0  0
 20 21  1  0  0  0  0
 22 23  1  0  0  0  0
M  END
