312606
 OpenBabel03021519512D

 21 22  0  0  0  0  0  0  0  0999 V2000
   -1.8122    6.1387    0.0000 C   0  0  0  0  0  0  0  0  0  0  0  0
   -1.8122    4.6387    0.0000 C   0  0  0  0  0  0  0  0  0  0  0  0
   -0.5131    6.8887    0.0000 C   0  0  0  0  0  0  0  0  0  0  0  0
   -0.5131    3.8887    0.0000 C   0  0  0  0  0  0  0  0  0  0  0  0
    0.7859    6.1387    0.0000 C   0  0  0  0  0  0  0  0  0  0  0  0
    0.7859    4.6387    0.0000 N   0  0  0  0  0  0  0  0  0  0  0  0
    2.2125    6.6023    0.0000 C   0  0  0  0  0  0  0  0  0  0  0  0
    2.2125    4.1752    0.0000 N   0  0  0  0  0  0  0  0  0  0  0  0
    3.0942    5.3887    0.0000 C   0  0  0  0  0  0  0  0  0  0  0  0
    2.1218    9.1988    0.0000 C   0  0  0  0  0  0  0  0  0  0  0  0
   -0.0815    7.8220    0.0000 O   0  0  0  0  0  0  0  0  0  0  0  0
    0.6227    9.1464    0.0000 C   0  0  0  0  0  0  0  0  0  0  0  0
   -0.1721   10.4185    0.0000 O   0  0  0  0  0  0  0  0  0  0  0  0
    2.9167    7.9267    0.0000 C   0  0  0  0  0  0  0  0  0  0  0  0
    2.8260   10.5232    0.0000 C   0  0  0  0  0  0  0  0  0  0  0  0
    3.5302   11.8476    0.0000 N   0  0  0  0  0  0  0  0  0  0  0  0
    4.5942    5.3887    0.0000 N   0  0  0  0  0  0  0  0  0  0  0  0
    5.3442    6.6878    0.0000 C   0  0  0  0  0  0  0  0  0  0  0  0
    4.5942    7.9868    0.0000 C   0  0  0  0  0  0  0  0  0  0  0  0
   -1.6712   10.3661    0.0000 C   0  0  0  0  0  0  0  0  0  0  0  0
   -2.3754    9.0417    0.0000 C   0  0  0  0  0  0  0  0  0  0  0  0
  1  3  2  0  0  0  0
  1  2  1  0  0  0  0
  2  4  2  0  0  0  0
  3  5  1  0  0  0  0
  4  6  1  0  0  0  0
  5  7  2  0  0  0  0
  5  6  1  0  0  0  0
  6  8  1  0  0  0  0
  7  9  1  0  0  0  0
  7 14  1  0  0  0  0
  8  9  2  0  0  0  0
  9 17  1  0  0  0  0
 10 12  1  0  0  0  0
 10 14  2  0  0  0  0
 10 15  1  0  0  0  0
 11 12  2  0  0  0  0
 12 13  1  0  0  0  0
 13 20  1  0  0  0  0
 15 16  3  0  0  0  0
 17 18  1  0  0  0  0
 18 19  1  0  0  0  0
 20 21  1  0  0  0  0
M  END
