10091
 OpenBabel03021519512D

 19 20  0  0  0  0  0  0  0  0999 V2000
    3.6272    5.7199    0.0000 C   0  0  0  0  0  0  0  0  0  0  0  0
    1.0207    6.5668    0.0000 C   0  0  0  0  0  0  0  0  0  0  0  0
    4.2373    4.3496    0.0000 C   0  0  0  0  0  0  0  0  0  0  0  0
    2.1354    5.5631    0.0000 C   0  0  0  0  0  0  0  0  0  0  0  0
   -0.4059    6.1033    0.0000 C   0  0  0  0  0  0  0  0  0  0  0  0
    1.8235    4.0959    0.0000 C   0  0  0  0  0  0  0  0  0  0  0  0
   -0.7178    4.6361    0.0000 C   0  0  0  0  0  0  0  0  0  0  0  0
    0.3970    3.6324    0.0000 C   0  0  0  0  0  0  0  0  0  0  0  0
    3.1226    3.3459    0.0000 N   0  0  0  0  0  0  0  0  0  0  0  0
    3.2794    1.8541    0.0000 H   0  0  0  0  0  0  0  0  0  0  0  0
    5.8772    7.0190    0.0000 C   0  0  0  0  0  0  0  0  0  0  0  0
    6.6272    8.3180    0.0000 C   0  0  0  0  0  0  0  0  0  0  0  0
    5.8772    4.4209    0.0000 O   0  0  0  0  0  0  0  0  0  0  0  0
    7.3772    9.6170    0.0000 N   0  0  0  0  0  0  0  0  0  0  0  0
    6.6272    5.7199    0.0000 C   0  0  0  0  0  0  0  0  0  0  0  0
    8.1272    5.7199    0.0000 O   0  0  0  0  0  0  0  0  0  0  0  0
    4.3772    7.0190    0.0000 C   0  0  0  0  0  0  0  0  0  0  0  0
    8.8772    7.0190    0.0000 C   0  0  0  0  0  0  0  0  0  0  0  0
    8.1272    8.3180    0.0000 C   0  0  0  0  0  0  0  0  0  0  0  0
  1  3  2  0  0  0  0
  1  4  1  0  0  0  0
  1 17  1  0  0  0  0
  2  5  2  0  0  0  0
  2  4  1  0  0  0  0
  3  9  1  0  0  0  0
  4  6  2  0  0  0  0
  5  7  1  0  0  0  0
  6  9  1  0  0  0  0
  6  8  1  0  0  0  0
  7  8  2  0  0  0  0
  9 10  1  0  0  0  0
 11 15  1  0  0  0  0
 11 12  1  0  0  0  0
 11 17  2  0  0  0  0
 12 14  3  0  0  0  0
 13 15  2  0  0  0  0
 15 16  1  0  0  0  0
 16 18  1  0  0  0  0
 18 19  1  0  0  0  0
M  END
