102314
 OpenBabel03021519512D

 26 33  0  0  1  0  0  0  0  0999 V2000
    0.4182    1.2309    0.0000 O   0  0  0  0  0  0  0  0  0  0  0  0
   10.7103   11.9199    0.0000 O   0  0  0  0  0  0  0  0  0  0  0  0
    9.2186   14.5038    0.0000 C   0  0  0  0  0  0  0  0  0  0  0  0
    7.7920   14.0402    0.0000 C   0  0  3  0  0  0  0  0  0  0  0  0
   10.1002   13.2902    0.0000 C   0  0  3  0  0  0  0  0  0  0  0  0
    6.3654   14.5038    0.0000 C   0  0  3  0  0  0  0  0  0  0  0  0
    7.2471   13.2902    0.0000 C   0  0  0  0  0  0  0  0  0  0  0  0
    4.9388   14.0402    0.0000 C   0  0  0  0  0  0  0  0  0  0  0  0
    9.2186   12.0767    0.0000 C   0  0  3  0  0  0  0  0  0  0  0  0
    7.7920   12.5402    0.0000 C   0  0  3  0  0  0  0  0  0  0  0  0
    4.9388   12.5402    0.0000 C   0  0  3  0  0  0  0  0  0  0  0  0
    6.3654   12.0767    0.0000 C   0  0  3  0  0  0  0  0  0  0  0  0
   -0.6965    6.1617    0.0000 C   0  0  3  0  0  0  0  0  0  0  0  0
    0.1852    7.3752    0.0000 C   0  0  0  0  0  0  0  0  0  0  0  0
   -0.6965    4.6617    0.0000 C   0  0  3  0  0  0  0  0  0  0  0  0
    0.1852    4.9481    0.0000 C   0  0  0  0  0  0  0  0  0  0  0  0
   -1.5782    3.4481    0.0000 C   0  0  0  0  0  0  0  0  0  0  0  0
   -0.6965    2.2346    0.0000 C   0  0  3  0  0  0  0  0  0  0  0  0
    1.6118    6.9117    0.0000 C   0  0  3  0  0  0  0  0  0  0  0  0
    0.7301    4.1981    0.0000 C   0  0  3  0  0  0  0  0  0  0  0  0
    0.7301    2.6981    0.0000 C   0  0  3  0  0  0  0  0  0  0  0  0
    1.6118    5.4117    0.0000 C   0  0  3  0  0  0  0  0  0  0  0  0
    2.8253    7.7933    0.0000 O   0  0  0  0  0  0  0  0  0  0  0  0
    2.6685    9.2851    0.0000 C   0  0  0  0  0  0  0  0  0  0  0  0
    3.8821   10.1668    0.0000 C   0  0  0  0  0  0  0  0  0  0  0  0
    3.7253   11.6586    0.0000 O   0  0  0  0  0  0  0  0  0  0  0  0
  1 18  1  0  0  0  0
  1 21  1  0  0  0  0
  2  5  1  0  0  0  0
  2  9  1  0  0  0  0
  3  4  1  0  0  0  0
  3  5  1  0  0  0  0
  4  6  1  0  0  0  0
  4 10  1  0  0  0  0
  5  9  1  0  0  0  0
  6  7  1  0  0  0  0
  6  8  1  0  0  0  0
  7 12  1  0  0  0  0
  8 11  1  0  0  0  0
  9 10  1  0  0  0  0
 10 12  1  0  0  0  0
 11 12  1  0  0  0  0
 11 26  1  0  0  0  0
 13 14  1  0  0  0  0
 13 15  1  0  0  0  0
 13 16  1  0  0  0  0
 14 19  1  0  0  0  0
 15 17  1  0  0  0  0
 15 20  1  0  0  0  0
 16 22  1  0  0  0  0
 17 18  1  0  0  0  0
 18 21  1  0  0  0  0
 19 22  1  0  0  0  0
 19 23  1  0  0  0  0
 20 22  1  0  0  0  0
 20 21  1  0  0  0  0
 23 24  1  0  0  0  0
 24 25  1  0  0  0  0
 25 26  1  0  0  0  0
M  END
