370383
 OpenBabel03021519512D

 19 21  0  0  1  0  0  0  0  0999 V2000
    2.4537   -0.9184    0.0000 C   0  0  0  0  0  0  0  0  0  0  0  0
    3.3354   -2.1319    0.0000 C   0  0  0  0  0  0  0  0  0  0  0  0
    3.3354    0.2951    0.0000 N   0  0  0  0  0  0  0  0  0  0  0  0
    6.6521   -5.9855    0.0000 C   0  0  3  0  0  0  0  0  0  0  0  0
    8.0787   -5.5220    0.0000 C   0  0  3  0  0  0  0  0  0  0  0  0
    5.7704   -4.7720    0.0000 O   0  0  0  0  0  0  0  0  0  0  0  0
    8.0787   -4.0220    0.0000 C   0  0  3  0  0  0  0  0  0  0  0  0
    4.7620   -1.6684    0.0000 C   0  0  0  0  0  0  0  0  0  0  0  0
    4.7620   -0.1684    0.0000 N   0  0  0  0  0  0  0  0  0  0  0  0
    6.6521   -3.5585    0.0000 C   0  0  3  0  0  0  0  0  0  0  0  0
    6.1886    0.2951    0.0000 C   0  0  0  0  0  0  0  0  0  0  0  0
    6.1886   -2.1319    0.0000 N   0  0  0  0  0  0  0  0  0  0  0  0
    7.0702   -0.9184    0.0000 C   0  0  0  0  0  0  0  0  0  0  0  0
    7.1923   -8.5268    0.0000 O   0  0  0  0  0  0  0  0  0  0  0  0
    9.2922   -6.4037    0.0000 O   0  0  0  0  0  0  0  0  0  0  0  0
    2.8719   -3.5585    0.0000 C   0  0  0  0  0  0  0  0  0  0  0  0
    2.4084   -4.9851    0.0000 N   0  0  0  0  0  0  0  0  0  0  0  0
    6.1886   -7.4121    0.0000 C   0  0  0  0  0  0  0  0  0  0  0  0
    9.2922   -3.1403    0.0000 O   0  0  0  0  0  0  0  0  0  0  0  0
  1  3  2  0  0  0  0
  1  2  1  0  0  0  0
  2  8  2  0  0  0  0
  2 16  1  0  0  0  0
  3  9  1  0  0  0  0
  4  6  1  0  0  0  0
  4  5  1  0  0  0  0
  4 18  1  0  0  0  0
  5  7  1  0  0  0  0
  5 15  1  0  0  0  0
  6 10  1  0  0  0  0
  7 10  1  0  0  0  0
  7 19  1  0  0  0  0
  8  9  1  0  0  0  0
  8 12  1  0  0  0  0
  9 11  1  0  0  0  0
 10 12  1  0  0  0  0
 11 13  2  0  0  0  0
 12 13  1  0  0  0  0
 14 18  1  0  0  0  0
 16 17  3  0  0  0  0
M  END
