73053
 OpenBabel03021519512D

 26 27  0  0  0  0  0  0  0  0999 V2000
   -0.6230   -1.0447    0.0000 O   0  0  0  0  0  0  0  0  0  0  0  0
   -1.8365   -6.4263    0.0000 N   0  0  0  0  0  0  0  0  0  0  0  0
   -1.0865    0.3819    0.0000 C   0  0  0  0  0  0  0  0  0  0  0  0
   -2.5865    0.3819    0.0000 C   0  0  0  0  0  0  0  0  0  0  0  0
   -3.0501   -1.0447    0.0000 C   0  0  0  0  0  0  0  0  0  0  0  0
   -1.8365   -1.9263    0.0000 C   0  0  0  0  0  0  0  0  0  0  0  0
   -3.1356   -5.6763    0.0000 C   0  0  0  0  0  0  0  0  0  0  0  0
   -4.4346   -6.4263    0.0000 C   0  0  0  0  0  0  0  0  0  0  0  0
   -5.7337   -5.6763    0.0000 C   0  0  0  0  0  0  0  0  0  0  0  0
   -7.0327   -6.4263    0.0000 C   0  0  0  0  0  0  0  0  0  0  0  0
   -4.4346   -7.9263    0.0000 C   0  0  0  0  0  0  0  0  0  0  0  0
   -7.0327   -7.9263    0.0000 C   0  0  0  0  0  0  0  0  0  0  0  0
   -3.1356   -8.6763    0.0000 C   0  0  0  0  0  0  0  0  0  0  0  0
   -1.8365   -7.9263    0.0000 C   0  0  0  0  0  0  0  0  0  0  0  0
   -5.7336   -8.6763    0.0000 C   0  0  0  0  0  0  0  0  0  0  0  0
   -1.2798  -10.8370    0.0000 S   0  0  0  0  0  0  0  0  0  0  0  0
   -2.0298  -12.1360    0.0000 O   0  0  0  0  0  0  0  0  0  0  0  0
    0.0192  -11.5870    0.0000 O   0  0  0  0  0  0  0  0  0  0  0  0
   -0.5298   -9.5379    0.0000 O   0  0  0  0  0  0  0  0  0  0  0  0
   -2.5788  -10.0870    0.0000 O   0  0  0  0  0  0  0  0  0  0  0  0
   -8.3317   -5.6763    0.0000 O   0  0  0  0  0  0  0  0  0  0  0  0
   -9.6308   -6.4263    0.0000 C   0  0  0  0  0  0  0  0  0  0  0  0
   -8.3317   -8.6763    0.0000 O   0  0  0  0  0  0  0  0  0  0  0  0
   -9.6308   -7.9263    0.0000 C   0  0  0  0  0  0  0  0  0  0  0  0
   -1.8365   -3.4263    0.0000 C   0  0  0  0  0  0  0  0  0  0  0  0
   -3.1356   -4.1763    0.0000 C   0  0  0  0  0  0  0  0  0  0  0  0
  1  3  1  0  0  0  0
  1  6  1  0  0  0  0
  2  7  2  0  0  0  0
  2 14  1  0  0  0  0
  3  4  2  0  0  0  0
  4  5  1  0  0  0  0
  5  6  2  0  0  0  0
  6 25  1  0  0  0  0
  7  8  1  0  0  0  0
  7 26  1  0  0  0  0
  8 11  2  0  0  0  0
  8  9  1  0  0  0  0
  9 10  2  0  0  0  0
 10 12  1  0  0  0  0
 10 21  1  0  0  0  0
 11 13  1  0  0  0  0
 11 15  1  0  0  0  0
 12 15  2  0  0  0  0
 12 23  1  0  0  0  0
 13 14  1  0  0  0  0
 16 17  2  0  0  0  0
 16 18  1  0  0  0  0
 16 19  2  0  0  0  0
 16 20  1  0  0  0  0
 21 22  1  0  0  0  0
 23 24  1  0  0  0  0
 25 26  2  0  0  0  0
M  END
