43088
 OpenBabel03021519512D

 24 26  0  0  0  0  0  0  0  0999 V2000
    4.2721    8.8995    0.0000 S   0  0  0  0  0  0  0  0  0  0  0  0
    2.9731   11.1495    0.0000 C   0  0  0  0  0  0  0  0  0  0  0  0
    2.9731   12.6495    0.0000 C   0  0  0  0  0  0  0  0  0  0  0  0
    4.2721   10.3995    0.0000 C   0  0  0  0  0  0  0  0  0  0  0  0
    4.2721   13.3995    0.0000 C   0  0  0  0  0  0  0  0  0  0  0  0
    5.5712   11.1495    0.0000 C   0  0  0  0  0  0  0  0  0  0  0  0
    5.5712   12.6495    0.0000 C   0  0  0  0  0  0  0  0  0  0  0  0
    1.6740    8.8995    0.0000 C   0  0  0  0  0  0  0  0  0  0  0  0
    2.9731    8.1495    0.0000 C   0  0  0  0  0  0  0  0  0  0  0  0
    0.3750    8.1495    0.0000 C   0  0  0  0  0  0  0  0  0  0  0  0
    2.9731    6.6495    0.0000 C   0  0  0  0  0  0  0  0  0  0  0  0
    0.3750    6.6495    0.0000 C   0  0  0  0  0  0  0  0  0  0  0  0
    1.6740    5.8995    0.0000 C   0  0  0  0  0  0  0  0  0  0  0  0
   -2.2231    3.6495    0.0000 C   0  0  0  0  0  0  0  0  0  0  0  0
   -0.9240    4.3995    0.0000 C   0  0  0  0  0  0  0  0  0  0  0  0
   -2.2231    2.1495    0.0000 C   0  0  0  0  0  0  0  0  0  0  0  0
    0.3750    3.6495    0.0000 C   0  0  0  0  0  0  0  0  0  0  0  0
   -0.9240    1.3995    0.0000 C   0  0  0  0  0  0  0  0  0  0  0  0
    0.3750    2.1495    0.0000 C   0  0  0  0  0  0  0  0  0  0  0  0
   -0.9240    5.8995    0.0000 C   0  0  0  0  0  0  0  0  0  0  0  0
   -2.2231    6.6495    0.0000 O   0  0  0  0  0  0  0  0  0  0  0  0
    4.2721   14.8995    0.0000 N   0  3  0  0  0  0  0  0  0  0  0  0
    2.9731   15.6495    0.0000 O   0  5  0  0  0  0  0  0  0  0  0  0
    5.5712   15.6495    0.0000 O   0  0  0  0  0  0  0  0  0  0  0  0
  1  4  1  0  0  0  0
  1  9  1  0  0  0  0
  2  3  2  0  0  0  0
  2  4  1  0  0  0  0
  3  5  1  0  0  0  0
  4  6  2  0  0  0  0
  5  7  2  0  0  0  0
  5 22  1  0  0  0  0
  6  7  1  0  0  0  0
  8  9  2  0  0  0  0
  8 10  1  0  0  0  0
  9 11  1  0  0  0  0
 10 12  2  0  0  0  0
 11 13  2  0  0  0  0
 12 13  1  0  0  0  0
 12 20  1  0  0  0  0
 14 16  2  0  0  0  0
 14 15  1  0  0  0  0
 15 17  2  0  0  0  0
 15 20  1  0  0  0  0
 16 18  1  0  0  0  0
 17 19  1  0  0  0  0
 18 19  2  0  0  0  0
 20 21  2  0  0  0  0
 22 23  1  0  0  0  0
 22 24  2  0  0  0  0
M  CHG  2  22   1  23  -1
M  END
