31664
 OpenBabel03021519512D

 12 12  0  0  0  0  0  0  0  0999 V2000
    1.4466   -3.2161    0.0000 O   0  0  0  0  0  0  0  0  0  0  0  0
   -3.0700   -2.7616    0.0000 C   0  0  0  0  0  0  0  0  0  0  0  0
   -4.3489   -3.5455    0.0000 C   0  0  0  0  0  0  0  0  0  0  0  0
   -1.7517   -3.4771    0.0000 C   0  0  0  0  0  0  0  0  0  0  0  0
   -1.7122   -4.9766    0.0000 C   0  0  0  0  0  0  0  0  0  0  0  0
   -4.3094   -5.0450    0.0000 C   0  0  0  0  0  0  0  0  0  0  0  0
   -2.9911   -5.7605    0.0000 C   0  0  0  0  0  0  0  0  0  0  0  0
   -5.5883   -5.8289    0.0000 N   0  0  0  0  0  0  0  0  0  0  0  0
    0.3584   -2.1837    0.0000 As  0  0  0  0  0  0  0  0  0  0  0  0
    0.7084   -0.7251    0.0000 O   0  0  0  0  0  0  0  0  0  0  0  0
   -1.1411   -2.2232    0.0000 O   0  0  0  0  0  0  0  0  0  0  0  0
   -0.3939   -5.6922    0.0000 O   0  0  0  0  0  0  0  0  0  0  0  0
  1  9  2  0  0  0  0
  2  3  2  0  0  0  0
  2  4  1  0  0  0  0
  3  6  1  0  0  0  0
  4  5  2  0  0  0  0
  4  9  1  0  0  0  0
  5  7  1  0  0  0  0
  5 12  1  0  0  0  0
  6  7  2  0  0  0  0
  6  8  1  0  0  0  0
  9 10  1  0  0  0  0
  9 11  1  0  0  0  0
M  END
