252172
 OpenBabel03021519512D

 21 23  0  0  0  0  0  0  0  0999 V2000
   -4.2721   -8.8995    0.0000 C   0  0  0  0  0  0  0  0  0  0  0  0
   -4.2721  -10.3995    0.0000 C   0  0  0  0  0  0  0  0  0  0  0  0
   -2.9731   -8.1495    0.0000 C   0  0  0  0  0  0  0  0  0  0  0  0
   -2.9731  -11.1495    0.0000 C   0  0  0  0  0  0  0  0  0  0  0  0
   -1.6740   -8.8995    0.0000 C   0  0  0  0  0  0  0  0  0  0  0  0
   -1.6740  -10.3995    0.0000 C   0  0  0  0  0  0  0  0  0  0  0  0
   -0.3750   -6.6495    0.0000 O   0  0  0  0  0  0  0  0  0  0  0  0
   -0.3750  -11.1495    0.0000 C   0  0  0  0  0  0  0  0  0  0  0  0
   -0.3750   -8.1495    0.0000 C   0  0  0  0  0  0  0  0  0  0  0  0
    0.9241   -8.8995    0.0000 C   0  0  0  0  0  0  0  0  0  0  0  0
    0.9241  -10.3995    0.0000 C   0  0  0  0  0  0  0  0  0  0  0  0
    3.5221   -8.8995    0.0000 C   0  0  0  0  0  0  0  0  0  0  0  0
    3.5221  -10.3995    0.0000 C   0  0  0  0  0  0  0  0  0  0  0  0
    4.8212   -8.1495    0.0000 C   0  0  0  0  0  0  0  0  0  0  0  0
    4.8212  -11.1495    0.0000 C   0  0  0  0  0  0  0  0  0  0  0  0
    6.1202   -8.8995    0.0000 C   0  0  0  0  0  0  0  0  0  0  0  0
    6.1202  -10.3995    0.0000 C   0  0  0  0  0  0  0  0  0  0  0  0
    7.4193  -11.1495    0.0000 O   0  0  0  0  0  0  0  0  0  0  0  0
    2.2231   -8.1495    0.0000 C   0  0  0  0  0  0  0  0  0  0  0  0
    8.7183  -10.3995    0.0000 C   0  0  0  0  0  0  0  0  0  0  0  0
    8.7183   -8.8995    0.0000 C   0  0  0  0  0  0  0  0  0  0  0  0
  1  3  2  0  0  0  0
  1  2  1  0  0  0  0
  2  4  2  0  0  0  0
  3  5  1  0  0  0  0
  4  6  1  0  0  0  0
  5  9  1  0  0  0  0
  5  6  2  0  0  0  0
  6  8  1  0  0  0  0
  7  9  2  0  0  0  0
  8 11  1  0  0  0  0
  9 10  1  0  0  0  0
 10 11  1  0  0  0  0
 10 19  2  0  0  0  0
 12 14  2  0  0  0  0
 12 13  1  0  0  0  0
 12 19  1  0  0  0  0
 13 15  2  0  0  0  0
 14 16  1  0  0  0  0
 15 17  1  0  0  0  0
 16 17  2  0  0  0  0
 17 18  1  0  0  0  0
 18 20  1  0  0  0  0
 20 21  1  0  0  0  0
M  END
