16736
 OpenBabel03021519512D

 26 27  0  0  0  0  0  0  0  0999 V2000
   -0.9240   -4.3995    0.0000 C   0  0  0  0  0  0  0  0  0  0  0  0
    0.3750   -5.1495    0.0000 C   0  0  0  0  0  0  0  0  0  0  0  0
   -2.2231   -5.1495    0.0000 C   0  0  0  0  0  0  0  0  0  0  0  0
    0.3750   -6.6495    0.0000 C   0  0  0  0  0  0  0  0  0  0  0  0
   -2.2231   -6.6495    0.0000 C   0  0  0  0  0  0  0  0  0  0  0  0
   -0.9240   -7.3995    0.0000 C   0  0  0  0  0  0  0  0  0  0  0  0
   -7.4192   -6.6495    0.0000 C   0  0  0  0  0  0  0  0  0  0  0  0
   -6.1202   -7.3995    0.0000 C   0  0  0  0  0  0  0  0  0  0  0  0
   -8.7183   -7.3995    0.0000 C   0  0  0  0  0  0  0  0  0  0  0  0
   -6.1202   -8.8995    0.0000 C   0  0  0  0  0  0  0  0  0  0  0  0
   -8.7183   -8.8995    0.0000 C   0  0  0  0  0  0  0  0  0  0  0  0
   -7.4192   -9.6495    0.0000 C   0  0  0  0  0  0  0  0  0  0  0  0
  -10.0173   -6.6495    0.0000 O   0  0  0  0  0  0  0  0  0  0  0  0
  -11.3163   -7.3995    0.0000 C   0  0  0  0  0  0  0  0  0  0  0  0
  -10.0173   -9.6495    0.0000 O   0  0  0  0  0  0  0  0  0  0  0  0
   -7.4192  -11.1495    0.0000 O   0  0  0  0  0  0  0  0  0  0  0  0
   -8.7183  -11.8995    0.0000 C   0  0  0  0  0  0  0  0  0  0  0  0
   -4.8212   -6.6495    0.0000 C   0  0  0  0  0  0  0  0  0  0  0  0
   -4.8212   -5.1495    0.0000 O   0  0  0  0  0  0  0  0  0  0  0  0
   -3.5221   -7.3995    0.0000 C   0  0  0  0  0  0  0  0  0  0  0  0
   -3.5221   -8.8995    0.0000 O   0  0  0  0  0  0  0  0  0  0  0  0
   -0.9240   -2.8995    0.0000 O   0  0  0  0  0  0  0  0  0  0  0  0
   -2.2231   -2.1495    0.0000 C   0  0  0  0  0  0  0  0  0  0  0  0
    1.6740   -4.3995    0.0000 O   0  0  0  0  0  0  0  0  0  0  0  0
    1.6740   -7.3995    0.0000 O   0  0  0  0  0  0  0  0  0  0  0  0
    2.9731   -6.6495    0.0000 C   0  0  0  0  0  0  0  0  0  0  0  0
  1  2  2  0  0  0  0
  1  3  1  0  0  0  0
  1 22  1  0  0  0  0
  2  4  1  0  0  0  0
  2 24  1  0  0  0  0
  3  5  2  0  0  0  0
  4  6  2  0  0  0  0
  4 25  1  0  0  0  0
  5  6  1  0  0  0  0
  5 20  1  0  0  0  0
  7  9  2  0  0  0  0
  7  8  1  0  0  0  0
  8 10  2  0  0  0  0
  8 18  1  0  0  0  0
  9 11  1  0  0  0  0
  9 13  1  0  0  0  0
 10 12  1  0  0  0  0
 11 12  2  0  0  0  0
 11 15  1  0  0  0  0
 12 16  1  0  0  0  0
 13 14  1  0  0  0  0
 16 17  1  0  0  0  0
 18 19  2  0  0  0  0
 18 20  1  0  0  0  0
 20 21  2  0  0  0  0
 22 23  1  0  0  0  0
 25 26  1  0  0  0  0
M  END
