45545
 OpenBabel03021519512D

 24 26  0  0  0  0  0  0  0  0999 V2000
    3.0675   -2.3130    0.0000 H   0  0  0  0  0  0  0  0  0  0  0  0
    4.3665   -1.5630    0.0000 N   0  0  0  0  0  0  0  0  0  0  0  0
    3.0675    0.6870    0.0000 O   0  0  0  0  0  0  0  0  0  0  0  0
    5.6655    3.1620    0.0000 N   0  0  0  0  0  0  0  0  0  0  0  0
    6.9646    3.9120    0.0000 N   0  0  0  0  0  0  0  0  0  0  0  0
    5.6655   -3.8130    0.0000 C   0  0  0  0  0  0  0  0  0  0  0  0
    5.6655   -2.3130    0.0000 C   0  0  0  0  0  0  0  0  0  0  0  0
    6.9646   -4.5630    0.0000 C   0  0  0  0  0  0  0  0  0  0  0  0
    6.9646   -1.5630    0.0000 C   0  0  0  0  0  0  0  0  0  0  0  0
    8.2636   -3.8130    0.0000 C   0  0  0  0  0  0  0  0  0  0  0  0
    6.9646   -0.0630    0.0000 C   0  0  0  0  0  0  0  0  0  0  0  0
    4.3665   -0.0630    0.0000 C   0  0  0  0  0  0  0  0  0  0  0  0
    5.6655    0.6870    0.0000 C   0  0  0  0  0  0  0  0  0  0  0  0
    8.2636   -2.3130    0.0000 C   0  0  0  0  0  0  0  0  0  0  0  0
    5.6655    6.1620    0.0000 C   0  0  0  0  0  0  0  0  0  0  0  0
    6.9646    5.4120    0.0000 C   0  0  0  0  0  0  0  0  0  0  0  0
    5.6655    7.6620    0.0000 C   0  0  0  0  0  0  0  0  0  0  0  0
    6.9646    8.4120    0.0000 C   0  0  0  0  0  0  0  0  0  0  0  0
    8.2636    6.1620    0.0000 C   0  0  0  0  0  0  0  0  0  0  0  0
    8.2636    7.6620    0.0000 C   0  0  0  0  0  0  0  0  0  0  0  0
    8.2636    0.6870    0.0000 O   0  0  0  0  0  0  0  0  0  0  0  0
    6.9646    9.9120    0.0000 C   0  0  0  0  0  0  0  0  0  0  0  0
    5.6655   10.6620    0.0000 O   0  0  0  0  0  0  0  0  0  0  0  0
    8.2636   10.6620    0.0000 N   0  0  0  0  0  0  0  0  0  0  0  0
  1  2  1  0  0  0  0
  2  7  1  0  0  0  0
  2 12  1  0  0  0  0
  3 12  2  0  0  0  0
  4 13  1  0  0  0  0
  4  5  2  0  0  0  0
  5 16  1  0  0  0  0
  6  8  2  0  0  0  0
  6  7  1  0  0  0  0
  7  9  2  0  0  0  0
  8 10  1  0  0  0  0
  9 11  1  0  0  0  0
  9 14  1  0  0  0  0
 10 14  2  0  0  0  0
 11 13  2  0  0  0  0
 11 21  1  0  0  0  0
 12 13  1  0  0  0  0
 15 17  2  0  0  0  0
 15 16  1  0  0  0  0
 16 19  2  0  0  0  0
 17 18  1  0  0  0  0
 18 20  2  0  0  0  0
 18 22  1  0  0  0  0
 19 20  1  0  0  0  0
 22 23  2  0  0  0  0
 22 24  1  0  0  0  0
M  END
