60423
 OpenBabel03021519512D

 22 23  0  0  0  0  0  0  0  0999 V2000
  -12.9195   -0.3672    0.0000 Cl  0  0  0  0  0  0  0  0  0  0  0  0
   -8.5442   -2.2500    0.0000 N   0  0  0  0  0  0  0  0  0  0  0  0
   -7.2452   -3.0000    0.0000 C   0  0  0  0  0  0  0  0  0  0  0  0
   -7.2452   -4.5000    0.0000 C   0  0  0  0  0  0  0  0  0  0  0  0
   -8.5442   -5.2500    0.0000 C   0  0  0  0  0  0  0  0  0  0  0  0
   -9.8433   -4.5000    0.0000 C   0  0  0  0  0  0  0  0  0  0  0  0
   -9.8433   -3.0000    0.0000 C   0  0  0  0  0  0  0  0  0  0  0  0
  -13.7009   -4.7989    0.0000 C   0  0  0  0  0  0  0  0  0  0  0  0
  -14.8500   -3.8347    0.0000 C   0  0  0  0  0  0  0  0  0  0  0  0
  -12.2914   -4.2858    0.0000 C   0  0  0  0  0  0  0  0  0  0  0  0
  -12.0309   -2.8086    0.0000 C   0  0  0  0  0  0  0  0  0  0  0  0
  -14.5895   -2.3575    0.0000 C   0  0  0  0  0  0  0  0  0  0  0  0
  -13.1800   -1.8444    0.0000 C   0  0  0  0  0  0  0  0  0  0  0  0
  -13.9614   -6.2761    0.0000 C   0  0  0  0  0  0  0  0  0  0  0  0
  -15.3709   -6.7891    0.0000 O   0  0  0  0  0  0  0  0  0  0  0  0
  -12.8123   -7.2403    0.0000 O   0  0  0  0  0  0  0  0  0  0  0  0
  -11.1423   -5.2500    0.0000 N   0  0  0  0  0  0  0  0  0  0  0  0
   -5.9462   -2.2500    0.0000 O   0  0  0  0  0  0  0  0  0  0  0  0
   -4.6471   -3.0000    0.0000 C   0  0  0  0  0  0  0  0  0  0  0  0
   -3.3481   -2.2500    0.0000 C   0  0  0  0  0  0  0  0  0  0  0  0
   -2.0490   -3.0000    0.0000 C   0  0  0  0  0  0  0  0  0  0  0  0
   -0.7500   -2.2500    0.0000 C   0  0  0  0  0  0  0  0  0  0  0  0
  1 13  1  0  0  0  0
  2  3  2  0  0  0  0
  2  7  1  0  0  0  0
  3  4  1  0  0  0  0
  3 18  1  0  0  0  0
  4  5  2  0  0  0  0
  5  6  1  0  0  0  0
  6  7  2  0  0  0  0
  6 17  1  0  0  0  0
  8 10  2  0  0  0  0
  8  9  1  0  0  0  0
  8 14  1  0  0  0  0
  9 12  2  0  0  0  0
 10 11  1  0  0  0  0
 10 17  1  0  0  0  0
 11 13  2  0  0  0  0
 12 13  1  0  0  0  0
 14 15  2  0  0  0  0
 14 16  1  0  0  0  0
 18 19  1  0  0  0  0
 19 20  1  0  0  0  0
 20 21  1  0  0  0  0
 21 22  1  0  0  0  0
M  END
