112125
 OpenBabel03021519512D

 24 27  0  0  0  0  0  0  0  0999 V2000
  -10.2562   -1.5000    0.0000 N   0  0  0  0  0  0  0  0  0  0  0  0
   -8.9572   -5.2500    0.0000 N   0  0  0  0  0  0  0  0  0  0  0  0
   -7.6581   -3.0000    0.0000 N   0  0  0  0  0  0  0  0  0  0  0  0
   -6.3591   -5.2500    0.0000 N   0  0  0  0  0  0  0  0  0  0  0  0
   -6.3591   -8.2500    0.0000 N   0  0  0  0  0  0  0  0  0  0  0  0
   -5.0601   -1.5000    0.0000 N   0  0  0  0  0  0  0  0  0  0  0  0
   -3.7610   -0.7500    0.0000 C   0  0  0  0  0  0  0  0  0  0  0  0
   -2.4620   -1.5000    0.0000 C   0  0  0  0  0  0  0  0  0  0  0  0
   -2.4620   -3.0000    0.0000 C   0  0  0  0  0  0  0  0  0  0  0  0
   -3.7610   -3.7500    0.0000 C   0  0  0  0  0  0  0  0  0  0  0  0
   -5.0601   -3.0000    0.0000 C   0  0  0  0  0  0  0  0  0  0  0  0
   -6.3591   -3.7500    0.0000 C   0  0  0  0  0  0  0  0  0  0  0  0
   -8.9572   -3.7500    0.0000 C   0  0  0  0  0  0  0  0  0  0  0  0
  -10.2562   -3.0000    0.0000 C   0  0  0  0  0  0  0  0  0  0  0  0
  -11.5553   -3.7500    0.0000 C   0  0  0  0  0  0  0  0  0  0  0  0
  -12.8543   -3.0000    0.0000 C   0  0  0  0  0  0  0  0  0  0  0  0
  -12.8543   -1.5000    0.0000 C   0  0  0  0  0  0  0  0  0  0  0  0
  -11.5553   -0.7500    0.0000 C   0  0  0  0  0  0  0  0  0  0  0  0
   -7.6581   -6.0000    0.0000 C   0  0  0  0  0  0  0  0  0  0  0  0
   -7.6581   -7.5000    0.0000 C   0  0  0  0  0  0  0  0  0  0  0  0
   -8.9572   -8.2500    0.0000 C   0  0  0  0  0  0  0  0  0  0  0  0
   -8.9572   -9.7500    0.0000 C   0  0  0  0  0  0  0  0  0  0  0  0
   -7.6581  -10.5000    0.0000 C   0  0  0  0  0  0  0  0  0  0  0  0
   -6.3591   -9.7500    0.0000 C   0  0  0  0  0  0  0  0  0  0  0  0
  1 14  2  0  0  0  0
  1 18  1  0  0  0  0
  2 13  2  0  0  0  0
  2 19  1  0  0  0  0
  3 12  2  0  0  0  0
  3 13  1  0  0  0  0
  4 19  2  0  0  0  0
  4 12  1  0  0  0  0
  5 20  2  0  0  0  0
  5 24  1  0  0  0  0
  6 11  2  0  0  0  0
  6  7  1  0  0  0  0
  7  8  2  0  0  0  0
  8  9  1  0  0  0  0
  9 10  2  0  0  0  0
 10 11  1  0  0  0  0
 11 12  1  0  0  0  0
 13 14  1  0  0  0  0
 14 15  1  0  0  0  0
 15 16  2  0  0  0  0
 16 17  1  0  0  0  0
 17 18  2  0  0  0  0
 19 20  1  0  0  0  0
 20 21  1  0  0  0  0
 21 22  2  0  0  0  0
 22 23  1  0  0  0  0
 23 24  2  0  0  0  0
M  END
