41376
 OpenBabel03021519512D

 16 17  0  0  0  0  0  0  0  0999 V2000
   -4.1716   -3.2745    0.0000 O   0  0  0  0  0  0  0  0  0  0  0  0
   -2.1226   -2.3236    0.0000 C   0  0  0  0  0  0  0  0  0  0  0  0
   -0.8236   -1.5736    0.0000 C   0  0  0  0  0  0  0  0  0  0  0  0
   -2.1226   -3.8236    0.0000 C   0  0  0  0  0  0  0  0  0  0  0  0
    0.4755   -2.3236    0.0000 C   0  0  0  0  0  0  0  0  0  0  0  0
   -0.8235   -4.5736    0.0000 C   0  0  0  0  0  0  0  0  0  0  0  0
    0.4755   -3.8236    0.0000 C   0  0  0  0  0  0  0  0  0  0  0  0
   -6.0197   -4.5736    0.0000 C   0  0  0  0  0  0  0  0  0  0  0  0
   -7.3187   -5.3236    0.0000 C   0  0  0  0  0  0  0  0  0  0  0  0
   -4.7207   -5.3236    0.0000 C   0  0  0  0  0  0  0  0  0  0  0  0
   -4.7207   -6.8236    0.0000 C   0  0  0  0  0  0  0  0  0  0  0  0
   -7.3187   -6.8236    0.0000 C   0  0  0  0  0  0  0  0  0  0  0  0
   -6.0197   -7.5736    0.0000 C   0  0  0  0  0  0  0  0  0  0  0  0
   -8.6178   -7.5736    0.0000 O   0  0  0  0  0  0  0  0  0  0  0  0
   -3.4216   -4.5736    0.0000 As  0  0  3  0  0  0  0  0  0  0  0  0
   -2.6716   -5.8726    0.0000 O   0  0  0  0  0  0  0  0  0  0  0  0
  1 15  2  0  0  0  0
  2  3  2  0  0  0  0
  2  4  1  0  0  0  0
  3  5  1  0  0  0  0
  4  6  2  0  0  0  0
  4 15  1  0  0  0  0
  5  7  2  0  0  0  0
  6  7  1  0  0  0  0
  8  9  2  0  0  0  0
  8 10  1  0  0  0  0
  9 12  1  0  0  0  0
 10 11  2  0  0  0  0
 10 15  1  0  0  0  0
 11 13  1  0  0  0  0
 12 13  2  0  0  0  0
 12 14  1  0  0  0  0
 15 16  1  0  0  0  0
M  END
