277806
 OpenBabel03021519512D

 17 18  0  0  0  0  0  0  0  0999 V2000
   -2.9731   -6.6495    0.0000 O   0  0  0  0  0  0  0  0  0  0  0  0
   -0.3750   -8.1495    0.0000 O   0  0  0  0  0  0  0  0  0  0  0  0
   -2.9731   -8.1495    0.0000 C   0  0  0  0  0  0  0  0  0  0  0  0
   -1.6740   -8.8995    0.0000 C   0  0  0  0  0  0  0  0  0  0  0  0
   -1.6740  -10.3995    0.0000 C   0  0  0  0  0  0  0  0  0  0  0  0
   -2.9731  -11.1495    0.0000 C   0  0  0  0  0  0  0  0  0  0  0  0
   -0.3750   -3.6495    0.0000 C   0  0  0  0  0  0  0  0  0  0  0  0
    0.9240   -4.3995    0.0000 C   0  0  0  0  0  0  0  0  0  0  0  0
   -0.3750   -2.1495    0.0000 C   0  0  0  0  0  0  0  0  0  0  0  0
    2.2231   -3.6495    0.0000 C   0  0  0  0  0  0  0  0  0  0  0  0
    0.9240   -1.3995    0.0000 C   0  0  0  0  0  0  0  0  0  0  0  0
    2.2231   -2.1495    0.0000 C   0  0  0  0  0  0  0  0  0  0  0  0
   -4.2721  -10.3995    0.0000 C   0  0  0  0  0  0  0  0  0  0  0  0
   -4.2721   -8.8995    0.0000 N   0  0  0  0  0  0  0  0  0  0  0  0
   -0.3750   -6.6495    0.0000 C   0  0  0  0  0  0  0  0  0  0  0  0
   -1.6740   -5.8995    0.0000 O   0  0  0  0  0  0  0  0  0  0  0  0
    0.9240   -5.8995    0.0000 N   0  0  0  0  0  0  0  0  0  0  0  0
  1  3  2  0  0  0  0
  2  4  1  0  0  0  0
  2 15  1  0  0  0  0
  3  4  1  0  0  0  0
  3 14  1  0  0  0  0
  4  5  2  0  0  0  0
  5  6  1  0  0  0  0
  6 13  2  0  0  0  0
  7  9  2  0  0  0  0
  7  8  1  0  0  0  0
  8 10  2  0  0  0  0
  8 17  1  0  0  0  0
  9 11  1  0  0  0  0
 10 12  1  0  0  0  0
 11 12  2  0  0  0  0
 13 14  1  0  0  0  0
 15 16  2  0  0  0  0
 15 17  1  0  0  0  0
M  END
