36508
 OpenBabel03021519512D

 34 40  0  0  1  0  0  0  0  0999 V2000
   -0.9116   -7.8961    0.0000 O   0  0  0  0  0  0  0  0  0  0  0  0
    0.3874   -8.6461    0.0000 C   0  0  0  0  0  0  0  0  0  0  0  0
    0.3874  -10.1461    0.0000 C   0  0  0  0  0  0  0  0  0  0  0  0
    1.6865  -10.8961    0.0000 C   0  0  3  0  0  0  0  0  0  0  0  0
    1.9983  -12.3633    0.0000 O   0  0  0  0  0  0  0  0  0  0  0  0
    3.4901  -12.5201    0.0000 C   0  0  0  0  0  0  0  0  0  0  0  0
    1.6865   -7.8961    0.0000 O   0  0  0  0  0  0  0  0  0  0  0  0
    1.6865   -9.3961    0.0000 C   0  0  0  0  0  0  0  0  0  0  0  0
    2.9855  -10.1461    0.0000 C   0  0  3  0  0  0  0  0  0  0  0  0
    4.1002  -11.1498    0.0000 C   0  0  3  0  0  0  0  0  0  0  0  0
    3.2974   -8.6789    0.0000 C   0  0  3  0  0  0  0  0  0  0  0  0
    5.5268  -10.6863    0.0000 C   0  0  0  0  0  0  0  0  0  0  0  0
    2.1827   -7.6752    0.0000 C   0  0  0  0  0  0  0  0  0  0  0  0
    4.7240   -8.2154    0.0000 C   0  0  3  0  0  0  0  0  0  0  0  0
    5.8387   -9.2191    0.0000 C   0  0  0  0  0  0  0  0  0  0  0  0
    2.4945   -6.2080    0.0000 C   0  0  0  0  0  0  0  0  0  0  0  0
    7.2653   -8.7555    0.0000 O   0  0  0  0  0  0  0  0  0  0  0  0
    6.1505   -7.7518    0.0000 O   0  0  0  0  0  0  0  0  0  0  0  0
    3.9211   -5.7444    0.0000 C   0  0  3  0  0  0  0  0  0  0  0  0
    5.0358   -6.7481    0.0000 C   0  0  3  0  0  0  0  0  0  0  0  0
    6.4624   -6.2846    0.0000 C   0  0  3  0  0  0  0  0  0  0  0  0
    4.2330   -4.2772    0.0000 C   0  0  3  0  0  0  0  0  0  0  0  0
    1.6510   -3.5854    0.0000 C   0  0  0  0  0  0  0  0  0  0  0  0
    6.7743   -4.8174    0.0000 C   0  0  0  0  0  0  0  0  0  0  0  0
    5.6596   -3.8137    0.0000 O   0  0  0  0  0  0  0  0  0  0  0  0
    3.1183   -3.2735    0.0000 C   0  0  0  0  0  0  0  0  0  0  0  0
    0.9011   -2.2863    0.0000 C   0  0  0  0  0  0  0  0  0  0  0  0
    8.2009   -4.3539    0.0000 O   0  0  0  0  0  0  0  0  0  0  0  0
    3.2751   -1.7817    0.0000 C   0  0  0  0  0  0  0  0  0  0  0  0
    1.9047   -1.1716    0.0000 O   0  0  0  0  0  0  0  0  0  0  0  0
    3.3333  -14.0119    0.0000 C   0  0  0  0  0  0  0  0  0  0  0  0
    4.9819  -12.6769    0.0000 C   0  0  0  0  0  0  0  0  0  0  0  0
    3.6092   -7.2117    0.0000 C   0  0  0  0  0  0  0  0  0  0  0  0
    2.8064   -4.7407    0.0000 C   0  0  0  0  0  0  0  0  0  0  0  0
  1  2  2  0  0  0  0
  2  3  1  0  0  0  0
  2  7  1  0  0  0  0
  3  4  1  0  0  0  0
  4  5  1  0  0  0  0
  4  9  1  0  0  0  0
  5  6  1  0  0  0  0
  6 10  1  0  0  0  0
  6 31  1  0  0  0  0
  6 32  1  0  0  0  0
  7  8  1  0  0  0  0
  8  9  1  0  0  0  0
  9 10  1  0  0  0  0
  9 11  1  0  0  0  0
 10 12  1  0  0  0  0
 11 13  1  0  0  0  0
 11 14  1  0  0  0  0
 12 15  1  0  0  0  0
 13 16  1  0  0  0  0
 14 20  1  0  0  0  0
 14 15  1  0  0  0  0
 14 33  1  0  0  0  0
 15 17  2  0  0  0  0
 16 19  1  0  0  0  0
 18 20  1  0  0  0  0
 18 21  1  0  0  0  0
 19 20  1  0  0  0  0
 19 22  1  0  0  0  0
 19 34  1  0  0  0  0
 20 21  1  0  0  0  0
 21 24  1  0  0  0  0
 22 26  1  0  0  0  0
 22 25  1  0  0  0  0
 23 27  2  0  0  0  0
 23 26  1  0  0  0  0
 24 25  1  0  0  0  0
 24 28  2  0  0  0  0
 26 29  2  0  0  0  0
 27 30  1  0  0  0  0
 29 30  1  0  0  0  0
M  END
