16021
 OpenBabel03021519512D

 10 10  0  0  0  0  0  0  0  0999 V2000
   -5.4391    0.7742    0.0000 C   0  0  0  0  0  0  0  0  0  0  0  0
   -4.1400    0.0242    0.0000 C   0  0  0  0  0  0  0  0  0  0  0  0
   -6.7381    0.0242    0.0000 C   0  0  0  0  0  0  0  0  0  0  0  0
   -4.1400   -1.4758    0.0000 C   0  0  0  0  0  0  0  0  0  0  0  0
   -6.7381   -1.4758    0.0000 C   0  0  0  0  0  0  0  0  0  0  0  0
   -8.0371    0.7742    0.0000 Cl  0  0  0  0  0  0  0  0  0  0  0  0
   -5.4391   -2.2258    0.0000 N   0  0  0  0  0  0  0  0  0  0  0  0
   -5.4390   -3.7258    0.0000 H   0  0  0  0  0  0  0  0  0  0  0  0
   -2.8410   -2.2258    0.0000 O   0  0  0  0  0  0  0  0  0  0  0  0
   -2.8410    0.7742    0.0000 Cl  0  0  0  0  0  0  0  0  0  0  0  0
  1  2  2  0  0  0  0
  1  3  1  0  0  0  0
  2 10  1  0  0  0  0
  2  4  1  0  0  0  0
  3  6  1  0  0  0  0
  3  5  2  0  0  0  0
  4  9  2  0  0  0  0
  4  7  1  0  0  0  0
  5  7  1  0  0  0  0
  7  8  1  0  0  0  0
M  END
