204976
 OpenBabel03021519512D

 16 17  0  0  0  0  0  0  0  0999 V2000
   -9.4683   -1.3995    0.0000 N   0  0  0  0  0  0  0  0  0  0  0  0
   -2.9731   -2.1495    0.0000 C   0  0  0  0  0  0  0  0  0  0  0  0
   -2.9731   -3.6495    0.0000 C   0  0  0  0  0  0  0  0  0  0  0  0
   -4.2721   -1.3995    0.0000 C   0  0  0  0  0  0  0  0  0  0  0  0
   -4.2721   -4.3995    0.0000 C   0  0  0  0  0  0  0  0  0  0  0  0
   -5.5712   -2.1495    0.0000 C   0  0  0  0  0  0  0  0  0  0  0  0
   -5.5711   -3.6495    0.0000 C   0  0  0  0  0  0  0  0  0  0  0  0
   -8.1692    0.8505    0.0000 C   0  0  0  0  0  0  0  0  0  0  0  0
   -6.8702    0.1005    0.0000 C   0  0  0  0  0  0  0  0  0  0  0  0
   -9.4683    0.1005    0.0000 C   0  0  0  0  0  0  0  0  0  0  0  0
   -6.8702   -1.3995    0.0000 C   0  0  0  0  0  0  0  0  0  0  0  0
   -8.1692   -2.1495    0.0000 C   0  0  0  0  0  0  0  0  0  0  0  0
   -5.5712    0.8505    0.0000 C   0  0  0  0  0  0  0  0  0  0  0  0
   -5.5712    2.3505    0.0000 O   0  0  0  0  0  0  0  0  0  0  0  0
   -4.2721    0.1005    0.0000 N   0  0  0  0  0  0  0  0  0  0  0  0
   -2.9731    0.8505    0.0000 C   0  0  0  0  0  0  0  0  0  0  0  0
  1 10  2  0  0  0  0
  1 12  1  0  0  0  0
  2  3  2  0  0  0  0
  2  4  1  0  0  0  0
  3  5  1  0  0  0  0
  4  6  2  0  0  0  0
  4 15  1  0  0  0  0
  5  7  2  0  0  0  0
  6  7  1  0  0  0  0
  8  9  2  0  0  0  0
  8 10  1  0  0  0  0
  9 11  1  0  0  0  0
  9 13  1  0  0  0  0
 11 12  2  0  0  0  0
 13 14  2  0  0  0  0
 13 15  1  0  0  0  0
 15 16  1  0  0  0  0
M  END
