105432
 OpenBabel03021519512D

 19 20  0  0  0  0  0  0  0  0999 V2000
    4.7864    1.4622    0.0000 C   0  0  0  0  0  0  0  0  0  0  0  0
    4.7340    2.9613    0.0000 C   0  0  0  0  0  0  0  0  0  0  0  0
    6.1436    3.4744    0.0000 C   0  0  0  0  0  0  0  0  0  0  0  0
    6.2283    1.0488    0.0000 C   0  0  0  0  0  0  0  0  0  0  0  0
    7.0671    2.2924    0.0000 C   0  0  0  0  0  0  0  0  0  0  0  0
    7.1240   -0.0150    0.0000 C   0  0  0  0  0  0  0  0  0  0  0  0
    5.8250   -0.7650    0.0000 C   0  0  0  0  0  0  0  0  0  0  0  0
    8.4230   -0.7650    0.0000 C   0  0  0  0  0  0  0  0  0  0  0  0
    8.4230   -2.2650    0.0000 C   0  0  0  0  0  0  0  0  0  0  0  0
    5.8250   -2.2650    0.0000 C   0  0  0  0  0  0  0  0  0  0  0  0
    7.1240   -3.0150    0.0000 C   0  0  0  0  0  0  0  0  0  0  0  0
    4.5259   -0.0150    0.0000 N   0  0  0  0  0  0  0  0  0  0  0  0
    3.2900    1.5669    0.0000 C   0  0  0  0  0  0  0  0  0  0  0  0
    2.4513    0.3233    0.0000 O   0  0  0  0  0  0  0  0  0  0  0  0
    2.6325    2.9151    0.0000 O   0  0  0  0  0  0  0  0  0  0  0  0
    9.7221   -3.0149    0.0000 S   0  0  0  0  0  0  0  0  0  0  0  0
    8.9721   -4.3140    0.0000 O   0  0  0  0  0  0  0  0  0  0  0  0
   10.4721   -1.7159    0.0000 O   0  0  0  0  0  0  0  0  0  0  0  0
   11.0211   -3.7649    0.0000 N   0  0  0  0  0  0  0  0  0  0  0  0
  1  2  1  0  0  0  0
  1  4  1  0  0  0  0
  1 12  1  0  0  0  0
  1 13  1  0  0  0  0
  2  3  1  0  0  0  0
  3  5  1  0  0  0  0
  4  5  1  0  0  0  0
  6  8  2  0  0  0  0
  6  7  1  0  0  0  0
  7 10  2  0  0  0  0
  7 12  1  0  0  0  0
  8  9  1  0  0  0  0
  9 11  2  0  0  0  0
  9 16  1  0  0  0  0
 10 11  1  0  0  0  0
 13 14  2  0  0  0  0
 13 15  1  0  0  0  0
 16 17  2  0  0  0  0
 16 18  2  0  0  0  0
 16 19  1  0  0  0  0
M  END
