39938
 OpenBabel03021519512D

 20 23  0  0  0  0  0  0  0  0999 V2000
    2.6517    3.7123    0.0000 O   0  0  0  0  0  0  0  0  0  0  0  0
    1.4870    9.5590    0.0000 N   0  0  0  0  0  0  0  0  0  0  0  0
    2.9359    9.9472    0.0000 S   0  0  0  0  0  0  0  0  0  0  0  0
    3.9965    8.7314    0.0000 C   0  0  0  0  0  0  0  0  0  0  0  0
    2.9359    7.6708    0.0000 C   0  0  0  0  0  0  0  0  0  0  0  0
    5.4454    8.3432    0.0000 C   0  0  0  0  0  0  0  0  0  0  0  0
    1.4870    8.0590    0.0000 C   0  0  0  0  0  0  0  0  0  0  0  0
    0.4263    6.9983    0.0000 C   0  0  0  0  0  0  0  0  0  0  0  0
   -1.0226    7.3866    0.0000 C   0  0  0  0  0  0  0  0  0  0  0  0
   -2.0832    6.3259    0.0000 C   0  0  0  0  0  0  0  0  0  0  0  0
    5.8336    6.8943    0.0000 C   0  0  0  0  0  0  0  0  0  0  0  0
    3.3241    6.2219    0.0000 C   0  0  0  0  0  0  0  0  0  0  0  0
    0.8145    5.5494    0.0000 C   0  0  0  0  0  0  0  0  0  0  0  0
   -1.6950    4.8770    0.0000 C   0  0  0  0  0  0  0  0  0  0  0  0
    4.7730    5.8336    0.0000 C   0  0  0  0  0  0  0  0  0  0  0  0
    2.2634    5.1612    0.0000 C   0  0  0  0  0  0  0  0  0  0  0  0
   -0.2461    4.4888    0.0000 C   0  0  0  0  0  0  0  0  0  0  0  0
    0.1421    3.0399    0.0000 C   0  0  0  0  0  0  0  0  0  0  0  0
   -0.9186    1.9792    0.0000 O   0  0  0  0  0  0  0  0  0  0  0  0
    1.5910    2.6516    0.0000 O   0  0  0  0  0  0  0  0  0  0  0  0
  1 16  2  0  0  0  0
  2  3  1  0  0  0  0
  2  7  2  0  0  0  0
  3  4  1  0  0  0  0
  4  5  2  0  0  0  0
  4  6  1  0  0  0  0
  5  7  1  0  0  0  0
  5 12  1  0  0  0  0
  6 11  2  0  0  0  0
  7  8  1  0  0  0  0
  8 13  2  0  0  0  0
  8  9  1  0  0  0  0
  9 10  2  0  0  0  0
 10 14  1  0  0  0  0
 11 15  1  0  0  0  0
 12 15  2  0  0  0  0
 12 16  1  0  0  0  0
 13 16  1  0  0  0  0
 13 17  1  0  0  0  0
 14 17  2  0  0  0  0
 17 18  1  0  0  0  0
 18 19  2  0  0  0  0
 18 20  1  0  0  0  0
M  END
