359472
 OpenBabel03021519512D

 27 29  0  0  0  0  0  0  0  0999 V2000
    1.5736    7.7745    0.0000 N   0  0  0  0  0  0  0  0  0  0  0  0
    1.5736    6.2745    0.0000 C   0  0  0  0  0  0  0  0  0  0  0  0
    2.8726    8.5245    0.0000 C   0  0  0  0  0  0  0  0  0  0  0  0
    2.8726    5.5245    0.0000 N   0  0  0  0  0  0  0  0  0  0  0  0
    4.1717    6.2745    0.0000 C   0  0  0  0  0  0  0  0  0  0  0  0
    1.5736   10.7745    0.0000 C   0  0  0  0  0  0  0  0  0  0  0  0
    4.1717    7.7745    0.0000 N   0  0  0  0  0  0  0  0  0  0  0  0
    1.5736   12.2745    0.0000 O   0  0  0  0  0  0  0  0  0  0  0  0
    6.7697    6.2745    0.0000 C   0  0  0  0  0  0  0  0  0  0  0  0
    8.0688    5.5245    0.0000 O   0  0  0  0  0  0  0  0  0  0  0  0
    0.2745    5.5245    0.0000 C   0  0  0  0  0  0  0  0  0  0  0  0
   -1.0245    6.2745    0.0000 C   0  0  0  0  0  0  0  0  0  0  0  0
   -2.3235    5.5245    0.0000 C   0  0  0  0  0  0  0  0  0  0  0  0
    2.8726   10.0245    0.0000 N   0  0  0  0  0  0  0  0  0  0  0  0
    5.4707    5.5245    0.0000 N   0  0  0  0  0  0  0  0  0  0  0  0
    0.2745   10.0245    0.0000 C   0  0  0  0  0  0  0  0  0  0  0  0
   -1.0245   10.7745    0.0000 C   0  0  0  0  0  0  0  0  0  0  0  0
   -2.3235   10.0245    0.0000 C   0  0  0  0  0  0  0  0  0  0  0  0
   -2.3235    8.5245    0.0000 C   0  0  0  0  0  0  0  0  0  0  0  0
   -1.0245    7.7745    0.0000 C   0  0  0  0  0  0  0  0  0  0  0  0
    0.2745    8.5245    0.0000 C   0  0  0  0  0  0  0  0  0  0  0  0
    6.7697    7.7745    0.0000 C   0  0  0  0  0  0  0  0  0  0  0  0
    5.4707    8.5245    0.0000 C   0  0  0  0  0  0  0  0  0  0  0  0
    5.4707   10.0245    0.0000 C   0  0  0  0  0  0  0  0  0  0  0  0
    6.7697   10.7745    0.0000 C   0  0  0  0  0  0  0  0  0  0  0  0
    8.0688   10.0245    0.0000 C   0  0  0  0  0  0  0  0  0  0  0  0
    8.0688    8.5245    0.0000 C   0  0  0  0  0  0  0  0  0  0  0  0
  1  3  2  0  0  0  0
  1  2  1  0  0  0  0
  2  4  2  0  0  0  0
  2 11  1  0  0  0  0
  3  7  1  0  0  0  0
  3 14  1  0  0  0  0
  4  5  1  0  0  0  0
  5  7  2  0  0  0  0
  5 15  1  0  0  0  0
  6  8  2  0  0  0  0
  6 14  1  0  0  0  0
  6 16  1  0  0  0  0
  9 10  2  0  0  0  0
  9 15  1  0  0  0  0
  9 22  1  0  0  0  0
 11 12  1  0  0  0  0
 12 13  1  0  0  0  0
 16 17  2  0  0  0  0
 16 21  1  0  0  0  0
 17 18  1  0  0  0  0
 18 19  2  0  0  0  0
 19 20  1  0  0  0  0
 20 21  2  0  0  0  0
 22 23  2  0  0  0  0
 22 27  1  0  0  0  0
 23 24  1  0  0  0  0
 24 25  2  0  0  0  0
 25 26  1  0  0  0  0
 26 27  2  0  0  0  0
M  END
