112541
 OpenBabel03021519512D

 23 25  0  0  0  0  0  0  0  0999 V2000
   -2.9731   -6.6495    0.0000 O   0  0  0  0  0  0  0  0  0  0  0  0
   -1.6740   -8.8995    0.0000 N   0  0  0  0  0  0  0  0  0  0  0  0
    0.9241   -8.8995    0.0000 N   0  0  0  0  0  0  0  0  0  0  0  0
    3.5221   -8.8995    0.0000 H   0  0  0  0  0  0  0  0  0  0  0  0
   -4.6036   -3.6104    0.0000 C   0  0  0  0  0  0  0  0  0  0  0  0
   -3.4546   -2.6463    0.0000 C   0  0  0  0  0  0  0  0  0  0  0  0
   -4.3431   -5.0877    0.0000 C   0  0  0  0  0  0  0  0  0  0  0  0
   -2.0450   -3.1593    0.0000 C   0  0  0  0  0  0  0  0  0  0  0  0
   -2.9336   -5.6007    0.0000 C   0  0  0  0  0  0  0  0  0  0  0  0
   -1.7845   -4.6365    0.0000 C   0  0  0  0  0  0  0  0  0  0  0  0
   -0.3750   -6.6495    0.0000 C   0  0  0  0  0  0  0  0  0  0  0  0
    0.9241   -7.3995    0.0000 C   0  0  0  0  0  0  0  0  0  0  0  0
   -1.6740   -7.3995    0.0000 C   0  0  0  0  0  0  0  0  0  0  0  0
    2.2231   -6.6495    0.0000 C   0  0  0  0  0  0  0  0  0  0  0  0
    2.2231   -5.1495    0.0000 C   0  0  0  0  0  0  0  0  0  0  0  0
    3.5221   -4.3995    0.0000 C   0  0  0  0  0  0  0  0  0  0  0  0
    4.8212   -5.1495    0.0000 C   0  0  0  0  0  0  0  0  0  0  0  0
    3.5221   -7.3995    0.0000 C   0  0  0  0  0  0  0  0  0  0  0  0
    4.8212   -6.6495    0.0000 C   0  0  0  0  0  0  0  0  0  0  0  0
   -0.3750   -9.6495    0.0000 C   0  0  0  0  0  0  0  0  0  0  0  0
   -0.3750   -5.1495    0.0000 C   0  0  0  0  0  0  0  0  0  0  0  0
   -0.3750  -11.1495    0.0000 C   0  0  0  0  0  0  0  0  0  0  0  0
   -0.8959   -2.1951    0.0000 O   0  0  0  0  0  0  0  0  0  0  0  0
  1 13  2  0  0  0  0
  2 20  2  0  0  0  0
  2 13  1  0  0  0  0
  3 12  1  0  0  0  0
  3 20  1  0  0  0  0
  4 18  1  0  0  0  0
  5  6  2  0  0  0  0
  5  7  1  0  0  0  0
  6  8  1  0  0  0  0
  7  9  2  0  0  0  0
  8 10  2  0  0  0  0
  8 23  1  0  0  0  0
  9 10  1  0  0  0  0
 10 21  1  0  0  0  0
 11 12  2  0  0  0  0
 11 13  1  0  0  0  0
 11 21  1  0  0  0  0
 12 14  1  0  0  0  0
 14 18  2  0  0  0  0
 14 15  1  0  0  0  0
 15 16  2  0  0  0  0
 16 17  1  0  0  0  0
 17 19  2  0  0  0  0
 18 19  1  0  0  0  0
 20 22  1  0  0  0  0
M  END
