234348
 OpenBabel03021519512D

 29 31  0  0  0  0  0  0  0  0999 V2000
  -17.2066    1.3571    0.0000 O   0  0  0  0  0  0  0  0  0  0  0  0
  -14.6653    0.8170    0.0000 N   0  0  0  0  0  0  0  0  0  0  0  0
  -16.0919    0.3534    0.0000 C   0  0  0  0  0  0  0  0  0  0  0  0
  -12.1240    0.2768    0.0000 O   0  0  0  0  0  0  0  0  0  0  0  0
  -13.5506   -0.1867    0.0000 C   0  0  0  0  0  0  0  0  0  0  0  0
  -16.4037   -1.1138    0.0000 N   0  0  0  0  0  0  0  0  0  0  0  0
  -13.8624   -1.6540    0.0000 C   0  0  0  0  0  0  0  0  0  0  0  0
  -15.2890   -2.1175    0.0000 C   0  0  0  0  0  0  0  0  0  0  0  0
  -12.9808   -2.8675    0.0000 N   0  0  0  0  0  0  0  0  0  0  0  0
  -13.8624   -4.0810    0.0000 C   0  0  0  0  0  0  0  0  0  0  0  0
  -15.2890   -3.6175    0.0000 N   0  0  0  0  0  0  0  0  0  0  0  0
   -9.2308   -4.1665    0.0000 O   0  0  0  0  0  0  0  0  0  0  0  0
   -8.4808   -2.8675    0.0000 C   0  0  0  0  0  0  0  0  0  0  0  0
   -9.2308   -1.5684    0.0000 O   0  0  0  0  0  0  0  0  0  0  0  0
   -6.9808   -2.8675    0.0000 C   0  0  0  0  0  0  0  0  0  0  0  0
   -5.4808   -2.8675    0.0000 O   0  0  0  0  0  0  0  0  0  0  0  0
   -4.7308   -4.1665    0.0000 C   0  0  0  0  0  0  0  0  0  0  0  0
   -3.2308   -4.1665    0.0000 C   0  0  0  0  0  0  0  0  0  0  0  0
   -5.4808   -5.4656    0.0000 C   0  0  0  0  0  0  0  0  0  0  0  0
   -2.4808   -5.4655    0.0000 C   0  0  0  0  0  0  0  0  0  0  0  0
   -4.7308   -6.7646    0.0000 C   0  0  0  0  0  0  0  0  0  0  0  0
   -3.2308   -6.7646    0.0000 C   0  0  0  0  0  0  0  0  0  0  0  0
   -2.4807   -8.0636    0.0000 Cl  0  0  0  0  0  0  0  0  0  0  0  0
  -14.3534    2.2842    0.0000 C   0  0  0  0  0  0  0  0  0  0  0  0
  -17.8303   -1.5773    0.0000 C   0  0  0  0  0  0  0  0  0  0  0  0
  -11.4808   -2.8675    0.0000 C   0  0  0  0  0  0  0  0  0  0  0  0
  -10.7308   -4.1665    0.0000 C   0  0  0  0  0  0  0  0  0  0  0  0
   -6.9808   -1.3675    0.0000 C   0  0  0  0  0  0  0  0  0  0  0  0
   -6.9808   -4.3675    0.0000 C   0  0  0  0  0  0  0  0  0  0  0  0
  1  3  2  0  0  0  0
  2  5  1  0  0  0  0
  2  3  1  0  0  0  0
  2 24  1  0  0  0  0
  3  6  1  0  0  0  0
  4  5  2  0  0  0  0
  5  7  1  0  0  0  0
  6  8  1  0  0  0  0
  6 25  1  0  0  0  0
  7  9  1  0  0  0  0
  7  8  2  0  0  0  0
  8 11  1  0  0  0  0
  9 10  1  0  0  0  0
  9 26  1  0  0  0  0
 10 11  2  0  0  0  0
 12 13  1  0  0  0  0
 12 27  1  0  0  0  0
 13 14  2  0  0  0  0
 13 15  1  0  0  0  0
 15 16  1  0  0  0  0
 15 28  1  0  0  0  0
 15 29  1  0  0  0  0
 16 17  1  0  0  0  0
 17 18  1  0  0  0  0
 17 19  2  0  0  0  0
 18 20  2  0  0  0  0
 19 21  1  0  0  0  0
 20 22  1  0  0  0  0
 21 22  2  0  0  0  0
 22 23  1  0  0  0  0
 26 27  1  0  0  0  0
M  END
