660300
 OpenBabel03021519512D

 18 19  0  0  0  0  0  0  0  0999 V2000
   -3.3481   10.5000    0.0000 C   0  0  0  0  0  0  0  0  0  0  0  0
   -4.6471    9.7500    0.0000 C   0  0  0  0  0  0  0  0  0  0  0  0
   -4.6471    8.2500    0.0000 C   0  0  0  0  0  0  0  0  0  0  0  0
   -3.3481    7.5000    0.0000 N   0  0  0  0  0  0  0  0  0  0  0  0
   -2.0490    8.2500    0.0000 C   0  0  0  0  0  0  0  0  0  0  0  0
   -2.0490    9.7500    0.0000 C   0  0  0  0  0  0  0  0  0  0  0  0
   -5.9462    7.5000    0.0000 O   0  0  0  0  0  0  0  0  0  0  0  0
   -0.7500    7.5000    0.0000 O   0  0  0  0  0  0  0  0  0  0  0  0
   -3.3481    6.0000    0.0000 C   0  0  0  0  0  0  0  0  0  0  0  0
   -2.0491    5.2500    0.0000 C   0  0  0  0  0  0  0  0  0  0  0  0
   -0.7500    6.0000    0.0000 N   0  0  0  0  0  0  0  0  0  0  0  0
   -2.0491    3.7500    0.0000 C   0  0  0  0  0  0  0  0  0  0  0  0
   -3.3481    3.0000    0.0000 C   0  0  0  0  0  0  0  0  0  0  0  0
   -4.6471    3.7500    0.0000 C   0  0  0  0  0  0  0  0  0  0  0  0
   -4.6471    5.2500    0.0000 C   0  0  0  0  0  0  0  0  0  0  0  0
   -3.3481    1.5000    0.0000 N   0  3  0  0  0  0  0  0  0  0  0  0
   -4.6471    0.7500    0.0000 O   0  5  0  0  0  0  0  0  0  0  0  0
   -2.0491    0.7500    0.0000 O   0  0  0  0  0  0  0  0  0  0  0  0
  1  2  1  0  0  0  0
  1  6  1  0  0  0  0
  2  3  1  0  0  0  0
  3  4  1  0  0  0  0
  3  7  2  0  0  0  0
  4  5  1  0  0  0  0
  4  9  1  0  0  0  0
  5  6  1  0  0  0  0
  5  8  2  0  0  0  0
  9 10  2  0  0  0  0
  9 15  1  0  0  0  0
 10 11  1  0  0  0  0
 10 12  1  0  0  0  0
 12 13  2  0  0  0  0
 13 14  1  0  0  0  0
 13 16  1  0  0  0  0
 14 15  2  0  0  0  0
 16 17  1  0  0  0  0
 16 18  2  0  0  0  0
M  CHG  2  16   1  17  -1
M  END
