275971
 OpenBabel03021519512D

 23 25  0  0  0  0  0  0  0  0999 V2000
   -1.0023    4.7360    0.0000 O   0  0  0  0  0  0  0  0  0  0  0  0
    0.2967    6.9861    0.0000 O   0  0  0  0  0  0  0  0  0  0  0  0
    0.2967    5.4861    0.0000 C   0  0  0  0  0  0  0  0  0  0  0  0
    2.8948    5.4861    0.0000 C   0  0  0  0  0  0  0  0  0  0  0  0
    2.8948    6.9861    0.0000 C   0  0  0  0  0  0  0  0  0  0  0  0
    4.1939    4.7361    0.0000 C   0  0  0  0  0  0  0  0  0  0  0  0
    4.1938    7.7361    0.0000 C   0  0  0  0  0  0  0  0  0  0  0  0
    5.4929    5.4861    0.0000 C   0  0  0  0  0  0  0  0  0  0  0  0
    5.4929    6.9861    0.0000 C   0  0  0  0  0  0  0  0  0  0  0  0
    6.9195    7.4496    0.0000 N   0  0  0  0  0  0  0  0  0  0  0  0
    6.9195    5.0225    0.0000 S   0  0  0  0  0  0  0  0  0  0  0  0
    7.8012    6.2361    0.0000 C   0  0  0  0  0  0  0  0  0  0  0  0
    9.3012    6.2361    0.0000 S   0  0  0  0  0  0  0  0  0  0  0  0
   10.0512    7.5351    0.0000 C   0  0  0  0  0  0  0  0  0  0  0  0
    9.3012    8.8341    0.0000 C   0  0  0  0  0  0  0  0  0  0  0  0
   11.5512    7.5351    0.0000 C   0  0  0  0  0  0  0  0  0  0  0  0
   12.3012    8.8341    0.0000 C   0  0  0  0  0  0  0  0  0  0  0  0
   10.0512   10.1332    0.0000 C   0  0  0  0  0  0  0  0  0  0  0  0
   11.5512   10.1332    0.0000 C   0  0  0  0  0  0  0  0  0  0  0  0
   12.3012   11.4322    0.0000 Cl  0  0  0  0  0  0  0  0  0  0  0  0
   -2.3013    5.4860    0.0000 C   0  0  0  0  0  0  0  0  0  0  0  0
   -2.3014    6.9860    0.0000 C   0  0  0  0  0  0  0  0  0  0  0  0
    1.5958    4.7361    0.0000 N   0  0  0  0  0  0  0  0  0  0  0  0
  1  3  1  0  0  0  0
  1 21  1  0  0  0  0
  2  3  2  0  0  0  0
  3 23  1  0  0  0  0
  4  5  1  0  0  0  0
  4  6  2  0  0  0  0
  4 23  1  0  0  0  0
  5  7  2  0  0  0  0
  6  8  1  0  0  0  0
  7  9  1  0  0  0  0
  8  9  2  0  0  0  0
  8 11  1  0  0  0  0
  9 10  1  0  0  0  0
 10 12  2  0  0  0  0
 11 12  1  0  0  0  0
 12 13  1  0  0  0  0
 13 14  1  0  0  0  0
 14 15  1  0  0  0  0
 14 16  2  0  0  0  0
 15 18  2  0  0  0  0
 16 17  1  0  0  0  0
 17 19  2  0  0  0  0
 18 19  1  0  0  0  0
 19 20  1  0  0  0  0
 21 22  1  0  0  0  0
M  END
