125043
 OpenBabel03021519512D

 16 18  0  0  0  0  0  0  0  0999 V2000
  -11.9275   -5.8129    0.0000 N   0  0  0  0  0  0  0  0  0  0  0  0
  -11.1775   -7.1119    0.0000 N   0  0  0  0  0  0  0  0  0  0  0  0
   -9.5534   -5.3083    0.0000 N   0  0  0  0  0  0  0  0  0  0  0  0
   -8.2544   -4.5583    0.0000 N   0  0  0  0  0  0  0  0  0  0  0  0
   -1.6317   -2.5947    0.0000 C   0  0  0  0  0  0  0  0  0  0  0  0
   -0.7500   -3.8083    0.0000 C   0  0  0  0  0  0  0  0  0  0  0  0
   -3.0583   -3.0583    0.0000 C   0  0  0  0  0  0  0  0  0  0  0  0
   -4.3573   -2.3083    0.0000 C   0  0  0  0  0  0  0  0  0  0  0  0
   -5.6563   -3.0583    0.0000 C   0  0  0  0  0  0  0  0  0  0  0  0
   -1.6317   -5.0218    0.0000 C   0  0  0  0  0  0  0  0  0  0  0  0
   -3.0583   -4.5583    0.0000 C   0  0  0  0  0  0  0  0  0  0  0  0
   -5.6563   -4.5583    0.0000 C   0  0  0  0  0  0  0  0  0  0  0  0
   -4.3573   -5.3083    0.0000 C   0  0  0  0  0  0  0  0  0  0  0  0
  -10.9238   -4.6982    0.0000 C   0  0  0  0  0  0  0  0  0  0  0  0
   -9.7102   -6.8001    0.0000 C   0  0  0  0  0  0  0  0  0  0  0  0
   -6.9554   -5.3083    0.0000 C   0  0  0  0  0  0  0  0  0  0  0  0
  1 14  2  0  0  0  0
  1  2  1  0  0  0  0
  2 15  2  0  0  0  0
  3  4  1  0  0  0  0
  3 14  1  0  0  0  0
  3 15  1  0  0  0  0
  4 16  2  0  0  0  0
  5  6  1  0  0  0  0
  5  7  1  0  0  0  0
  6 10  1  0  0  0  0
  7 11  2  0  0  0  0
  7  8  1  0  0  0  0
  8  9  2  0  0  0  0
  9 12  1  0  0  0  0
 10 11  1  0  0  0  0
 11 13  1  0  0  0  0
 12 13  2  0  0  0  0
 12 16  1  0  0  0  0
M  END
