101679
 OpenBabel03021519512D

 20 21  0  0  0  0  0  0  0  0999 V2000
   -2.0491    7.5000    0.0000 N   0  0  0  0  0  0  0  0  0  0  0  0
   -4.6471    7.5000    0.0000 C   0  0  0  0  0  0  0  0  0  0  0  0
   -3.3481    6.7500    0.0000 C   0  0  0  0  0  0  0  0  0  0  0  0
   -5.9462    6.7500    0.0000 C   0  0  0  0  0  0  0  0  0  0  0  0
   -3.3481    5.2500    0.0000 C   0  0  0  0  0  0  0  0  0  0  0  0
   -5.9462    5.2500    0.0000 C   0  0  0  0  0  0  0  0  0  0  0  0
   -4.6471    4.5000    0.0000 C   0  0  0  0  0  0  0  0  0  0  0  0
   -2.0490    4.5000    0.0000 C   0  0  0  0  0  0  0  0  0  0  0  0
   -0.7500    6.7500    0.0000 C   0  0  0  0  0  0  0  0  0  0  0  0
   -0.7500    5.2500    0.0000 C   0  0  0  0  0  0  0  0  0  0  0  0
   -7.2452    4.5000    0.0000 O   0  0  0  0  0  0  0  0  0  0  0  0
   -8.5442    5.2500    0.0000 C   0  0  0  0  0  0  0  0  0  0  0  0
   -5.9462    9.7500    0.0000 C   0  0  0  0  0  0  0  0  0  0  0  0
   -5.9462   11.2500    0.0000 O   0  0  0  0  0  0  0  0  0  0  0  0
   -7.2452    9.0000    0.0000 C   0  0  0  0  0  0  0  0  0  0  0  0
   -4.6471    9.0000    0.0000 N   0  0  0  0  0  0  0  0  0  0  0  0
   -5.9462    2.2500    0.0000 C   0  0  0  0  0  0  0  0  0  0  0  0
   -7.2452    3.0000    0.0000 O   0  0  0  0  0  0  0  0  0  0  0  0
   -5.9462    0.7500    0.0000 C   0  0  0  0  0  0  0  0  0  0  0  0
   -4.6471    3.0000    0.0000 N   0  0  0  0  0  0  0  0  0  0  0  0
  1  9  2  0  0  0  0
  1  3  1  0  0  0  0
  2  4  2  0  0  0  0
  2  3  1  0  0  0  0
  2 16  1  0  0  0  0
  3  5  2  0  0  0  0
  4  6  1  0  0  0  0
  5  7  1  0  0  0  0
  5  8  1  0  0  0  0
  6  7  2  0  0  0  0
  6 11  1  0  0  0  0
  7 20  1  0  0  0  0
  8 10  2  0  0  0  0
  9 10  1  0  0  0  0
 11 12  1  0  0  0  0
 13 14  2  0  0  0  0
 13 15  1  0  0  0  0
 13 16  1  0  0  0  0
 17 18  2  0  0  0  0
 17 19  1  0  0  0  0
 17 20  1  0  0  0  0
M  END
