311165
 OpenBabel03021519512D

 21 24  0  0  1  0  0  0  0  0999 V2000
   -0.7024   -5.3146    0.0000 C   0  0  0  0  0  0  0  0  0  0  0  0
   -1.4524   -7.6229    0.0000 C   0  0  3  0  0  0  0  0  0  0  0  0
   -0.1533   -8.3729    0.0000 C   0  0  0  0  0  0  0  0  0  0  0  0
   -2.7514   -8.3729    0.0000 C   0  0  3  0  0  0  0  0  0  0  0  0
   -0.1533   -9.8729    0.0000 C   0  0  0  0  0  0  0  0  0  0  0  0
   -2.7514   -9.8729    0.0000 C   0  0  3  0  0  0  0  0  0  0  0  0
   -1.4524  -10.6229    0.0000 C   0  0  0  0  0  0  0  0  0  0  0  0
   -4.0504   -9.1229    0.0000 O   0  0  0  0  0  0  0  0  0  0  0  0
   -2.2024   -5.3146    0.0000 N   0  0  0  0  0  0  0  0  0  0  0  0
   -2.6659   -6.7412    0.0000 N   0  0  0  0  0  0  0  0  0  0  0  0
   -0.2388   -6.7412    0.0000 O   0  0  0  0  0  0  0  0  0  0  0  0
    0.1793   -4.1011    0.0000 N   0  0  0  0  0  0  0  0  0  0  0  0
   -3.5014  -11.1719    0.0000 C   0  0  0  0  0  0  0  0  0  0  0  0
    1.3239   -9.6124    0.0000 C   0  0  0  0  0  0  0  0  0  0  0  0
    0.3597  -11.2824    0.0000 C   0  0  0  0  0  0  0  0  0  0  0  0
    1.6711   -4.2579    0.0000 C   0  0  0  0  0  0  0  0  0  0  0  0
    2.5528   -3.0444    0.0000 C   0  0  0  0  0  0  0  0  0  0  0  0
    4.0445   -3.2011    0.0000 C   0  0  0  0  0  0  0  0  0  0  0  0
    4.6547   -4.5715    0.0000 C   0  0  0  0  0  0  0  0  0  0  0  0
    3.7730   -5.7850    0.0000 C   0  0  0  0  0  0  0  0  0  0  0  0
    2.2812   -5.6282    0.0000 C   0  0  0  0  0  0  0  0  0  0  0  0
  1 12  2  0  0  0  0
  1  9  1  0  0  0  0
  1 11  1  0  0  0  0
  2 11  1  0  0  0  0
  2 10  1  0  0  0  0
  2  3  1  0  0  0  0
  2  4  1  0  0  0  0
  3  5  1  0  0  0  0
  4  8  1  0  0  0  0
  4  6  1  0  0  0  0
  5  7  1  0  0  0  0
  5 14  1  0  0  0  0
  5 15  1  0  0  0  0
  6  8  1  0  0  0  0
  6  7  1  0  0  0  0
  6 13  1  0  0  0  0
  9 10  2  0  0  0  0
 12 16  1  0  0  0  0
 16 17  2  0  0  0  0
 16 21  1  0  0  0  0
 17 18  1  0  0  0  0
 18 19  2  0  0  0  0
 19 20  1  0  0  0  0
 20 21  2  0  0  0  0
M  END
