370367
 OpenBabel03021519512D

 13 14  0  0  0  0  0  0  0  0999 V2000
    0.7500    2.7990    0.0000 N   0  0  0  0  0  0  0  0  0  0  0  0
    0.7500    1.2990    0.0000 C   0  0  0  0  0  0  0  0  0  0  0  0
    2.6401    4.6891    0.0000 S   0  0  0  0  0  0  0  0  0  0  0  0
    2.1766    3.2626    0.0000 C   0  0  0  0  0  0  0  0  0  0  0  0
    2.1766    0.8355    0.0000 C   0  0  0  0  0  0  0  0  0  0  0  0
    3.0583    2.0490    0.0000 N   0  0  0  0  0  0  0  0  0  0  0  0
    4.5583    2.0490    0.0000 C   0  0  0  0  0  0  0  0  0  0  0  0
    4.5583    4.6471    0.0000 Cl  0  0  0  0  0  0  0  0  0  0  0  0
    5.3083    0.7500    0.0000 C   0  0  0  0  0  0  0  0  0  0  0  0
    5.3083    3.3481    0.0000 C   0  0  0  0  0  0  0  0  0  0  0  0
    6.8083    0.7500    0.0000 C   0  0  0  0  0  0  0  0  0  0  0  0
    6.8083    3.3481    0.0000 C   0  0  0  0  0  0  0  0  0  0  0  0
    7.5583    2.0490    0.0000 C   0  0  0  0  0  0  0  0  0  0  0  0
  1  4  1  0  0  0  0
  1  2  1  0  0  0  0
  2  5  2  0  0  0  0
  3  4  2  0  0  0  0
  4  6  1  0  0  0  0
  5  6  1  0  0  0  0
  6  7  1  0  0  0  0
  7 10  1  0  0  0  0
  7  9  2  0  0  0  0
  8 10  1  0  0  0  0
  9 11  1  0  0  0  0
 10 12  2  0  0  0  0
 11 13  2  0  0  0  0
 12 13  1  0  0  0  0
M  END
