194243
 OpenBabel03021519512D

 14 15  0  0  0  0  0  0  0  0999 V2000
   -8.7009    1.1761    0.0000 N   0  0  0  0  0  0  0  0  0  0  0  0
   -8.7009   -1.8239    0.0000 N   0  0  0  0  0  0  0  0  0  0  0  0
   -5.5118    2.3162    0.0000 H   0  0  0  0  0  0  0  0  0  0  0  0
   -5.9753    0.8896    0.0000 N   0  0  0  0  0  0  0  0  0  0  0  0
   -9.9999    0.4261    0.0000 C   0  0  0  0  0  0  0  0  0  0  0  0
   -9.9999   -1.0739    0.0000 C   0  0  0  0  0  0  0  0  0  0  0  0
   -7.4019    0.4261    0.0000 C   0  0  0  0  0  0  0  0  0  0  0  0
   -7.4019   -1.0739    0.0000 C   0  0  0  0  0  0  0  0  0  0  0  0
   -5.9753   -1.5375    0.0000 C   0  0  0  0  0  0  0  0  0  0  0  0
   -5.0936   -0.3239    0.0000 C   0  0  0  0  0  0  0  0  0  0  0  0
   -5.5117   -2.9640    0.0000 C   0  0  0  0  0  0  0  0  0  0  0  0
   -4.0445   -3.2759    0.0000 N   0  0  0  0  0  0  0  0  0  0  0  0
   -3.0408   -2.1612    0.0000 C   0  0  0  0  0  0  0  0  0  0  0  0
   -3.5810   -4.7025    0.0000 C   0  0  0  0  0  0  0  0  0  0  0  0
  1  5  2  0  0  0  0
  1  7  1  0  0  0  0
  2  6  2  0  0  0  0
  2  8  1  0  0  0  0
  3  4  1  0  0  0  0
  4  7  1  0  0  0  0
  4 10  1  0  0  0  0
  5  6  1  0  0  0  0
  7  8  2  0  0  0  0
  8  9  1  0  0  0  0
  9 10  2  0  0  0  0
  9 11  1  0  0  0  0
 11 12  1  0  0  0  0
 12 13  1  0  0  0  0
 12 14  1  0  0  0  0
M  END
