6137
 OpenBabel03021519512D

 14 16  0  0  1  0  0  0  0  0999 V2000
   -0.2227    1.4554    0.0000 C   0  0  3  0  0  0  0  0  0  0  0  0
   -1.6810    1.1042    0.0000 C   0  0  3  0  0  0  0  0  0  0  0  0
    0.8106    0.3680    0.0000 C   0  0  3  0  0  0  0  0  0  0  0  0
   -1.3793   -0.6783    0.0000 C   0  0  3  0  0  0  0  0  0  0  0  0
   -2.1061   -0.3343    0.0000 C   0  0  3  0  0  0  0  0  0  0  0  0
    0.0957   -0.9507    0.0000 C   0  0  3  0  0  0  0  0  0  0  0  0
   -2.7143    2.1916    0.0000 Br  0  0  0  0  0  0  0  0  0  0  0  0
   -1.2464   -1.5635    0.0000 O   0  0  0  0  0  0  0  0  0  0  0  0
   -1.5761    0.8087    0.0000 O   0  0  0  0  0  0  0  0  0  0  0  0
    0.2506   -1.6578    0.0000 C   0  0  0  0  0  0  0  0  0  0  0  0
    2.2976    0.5648    0.0000 C   0  0  0  0  0  0  0  0  0  0  0  0
    1.3891   -2.6345    0.0000 O   0  0  0  0  0  0  0  0  0  0  0  0
    2.8707    1.9510    0.0000 O   0  0  0  0  0  0  0  0  0  0  0  0
    3.2116   -0.6246    0.0000 O   0  0  0  0  0  0  0  0  0  0  0  0
  1  9  1  0  0  0  0
  1  3  1  0  0  0  0
  1  2  1  0  0  0  0
  2  7  1  0  0  0  0
  2  5  1  0  0  0  0
  3 11  1  0  0  0  0
  3  6  1  0  0  0  0
  4  5  1  0  0  0  0
  4  6  1  0  0  0  0
  4  9  1  0  0  0  0
  5  8  1  0  0  0  0
  6 10  1  0  0  0  0
  8 10  1  0  0  0  0
 10 12  2  0  0  0  0
 11 13  2  0  0  0  0
 11 14  1  0  0  0  0
M  END
