293962
 OpenBabel03021519512D

 25 27  0  0  0  0  0  0  0  0999 V2000
   -6.8218   -4.8046    0.0000 N   0  0  0  0  0  0  0  0  0  0  0  0
   -5.5228   -4.0546    0.0000 C   0  0  0  0  0  0  0  0  0  0  0  0
   -6.8218   -6.3046    0.0000 C   0  0  0  0  0  0  0  0  0  0  0  0
   -7.0228   -8.5546    0.0000 O   0  0  0  0  0  0  0  0  0  0  0  0
   -6.8218  -10.8046    0.0000 C   0  0  0  0  0  0  0  0  0  0  0  0
   -6.8218  -12.3046    0.0000 C   0  0  0  0  0  0  0  0  0  0  0  0
   -5.5228   -7.0546    0.0000 C   0  0  0  0  0  0  0  0  0  0  0  0
   -4.2237   -4.8046    0.0000 C   0  0  0  0  0  0  0  0  0  0  0  0
   -5.5228   -8.5546    0.0000 S   0  0  0  0  0  0  0  0  0  0  0  0
   -5.5228  -10.0546    0.0000 N   0  0  0  0  0  0  0  0  0  0  0  0
   -5.5228  -13.0546    0.0000 N   0  0  0  0  0  0  0  0  0  0  0  0
   -4.2237   -6.3046    0.0000 C   0  0  0  0  0  0  0  0  0  0  0  0
   -4.0228   -8.5546    0.0000 O   0  0  0  0  0  0  0  0  0  0  0  0
   -4.2237  -10.8046    0.0000 C   0  0  0  0  0  0  0  0  0  0  0  0
   -4.2237  -12.3046    0.0000 C   0  0  0  0  0  0  0  0  0  0  0  0
   -2.9247   -7.0546    0.0000 N   0  0  0  0  0  0  0  0  0  0  0  0
   -2.9247   -8.5546    0.0000 C   0  0  0  0  0  0  0  0  0  0  0  0
   -1.6257   -6.3046    0.0000 C   0  0  0  0  0  0  0  0  0  0  0  0
   -0.3266   -7.0546    0.0000 C   0  0  0  0  0  0  0  0  0  0  0  0
   -1.6257   -9.3046    0.0000 C   0  0  0  0  0  0  0  0  0  0  0  0
   -0.3266   -8.5546    0.0000 N   0  0  0  0  0  0  0  0  0  0  0  0
   -5.5228  -14.5546    0.0000 C   0  0  0  0  0  0  0  0  0  0  0  0
    0.9724   -9.3046    0.0000 C   0  0  0  0  0  0  0  0  0  0  0  0
    2.2715   -8.5546    0.0000 C   0  0  0  0  0  0  0  0  0  0  0  0
    2.2715   -7.0546    0.0000 C   0  0  0  0  0  0  0  0  0  0  0  0
  1  2  2  0  0  0  0
  1  3  1  0  0  0  0
  2  8  1  0  0  0  0
  3  7  2  0  0  0  0
  4  9  2  0  0  0  0
  5 10  1  0  0  0  0
  5  6  1  0  0  0  0
  6 11  1  0  0  0  0
  7 12  1  0  0  0  0
  7  9  1  0  0  0  0
  8 12  2  0  0  0  0
  9 13  2  0  0  0  0
  9 10  1  0  0  0  0
 10 14  1  0  0  0  0
 11 15  1  0  0  0  0
 11 22  1  0  0  0  0
 12 16  1  0  0  0  0
 14 15  1  0  0  0  0
 16 18  1  0  0  0  0
 16 17  1  0  0  0  0
 17 20  1  0  0  0  0
 18 19  1  0  0  0  0
 19 21  1  0  0  0  0
 20 21  1  0  0  0  0
 21 23  1  0  0  0  0
 23 24  1  0  0  0  0
 24 25  2  0  0  0  0
M  END
