43344
 OpenBabel03021519512D

 21 23  0  0  0  0  0  0  0  0999 V2000
    1.1899   -7.8797    0.0000 O   0  0  0  0  0  0  0  0  0  0  0  0
   -0.7736   -6.4531    0.0000 C   0  0  0  0  0  0  0  0  0  0  0  0
    0.7264   -6.4531    0.0000 C   0  0  0  0  0  0  0  0  0  0  0  0
   -1.2372   -7.8797    0.0000 C   0  0  0  0  0  0  0  0  0  0  0  0
    1.6080   -5.2395    0.0000 C   0  0  0  0  0  0  0  0  0  0  0  0
    0.9979   -3.8692    0.0000 C   0  0  0  0  0  0  0  0  0  0  0  0
    1.8796   -2.6557    0.0000 C   0  0  0  0  0  0  0  0  0  0  0  0
    3.3714   -2.8125    0.0000 C   0  0  0  0  0  0  0  0  0  0  0  0
    3.0998   -5.3963    0.0000 C   0  0  0  0  0  0  0  0  0  0  0  0
   -0.0236   -8.7613    0.0000 C   0  0  0  0  0  0  0  0  0  0  0  0
   -0.0236  -10.2613    0.0000 C   0  0  0  0  0  0  0  0  0  0  0  0
    3.9815   -4.1828    0.0000 C   0  0  0  0  0  0  0  0  0  0  0  0
   -1.3227  -11.0113    0.0000 C   0  0  0  0  0  0  0  0  0  0  0  0
    1.2754  -11.0113    0.0000 C   0  0  0  0  0  0  0  0  0  0  0  0
    1.2754  -12.5113    0.0000 C   0  0  0  0  0  0  0  0  0  0  0  0
   -1.3227  -12.5113    0.0000 C   0  0  0  0  0  0  0  0  0  0  0  0
   -0.0236  -13.2613    0.0000 C   0  0  0  0  0  0  0  0  0  0  0  0
   -2.6637   -8.3432    0.0000 P   0  0  0  0  0  0  0  0  0  0  0  0
   -3.1273   -6.9166    0.0000 O   0  0  0  0  0  0  0  0  0  0  0  0
   -4.0903   -8.8067    0.0000 O   0  0  0  0  0  0  0  0  0  0  0  0
   -2.2002   -9.7698    0.0000 O   0  0  0  0  0  0  0  0  0  0  0  0
  1  3  1  0  0  0  0
  1 10  1  0  0  0  0
  2  3  2  0  0  0  0
  2  4  1  0  0  0  0
  3  5  1  0  0  0  0
  4 10  2  0  0  0  0
  4 18  1  0  0  0  0
  5  9  2  0  0  0  0
  5  6  1  0  0  0  0
  6  7  2  0  0  0  0
  7  8  1  0  0  0  0
  8 12  2  0  0  0  0
  9 12  1  0  0  0  0
 10 11  1  0  0  0  0
 11 14  2  0  0  0  0
 11 13  1  0  0  0  0
 13 16  2  0  0  0  0
 14 15  1  0  0  0  0
 15 17  2  0  0  0  0
 16 17  1  0  0  0  0
 18 21  2  0  0  0  0
 18 20  1  0  0  0  0
 18 19  1  0  0  0  0
M  END
