45815
 OpenBabel03021519512D

 19 21  0  0  0  0  0  0  0  0999 V2000
   -5.4707    4.0245    0.0000 O   0  0  0  0  0  0  0  0  0  0  0  0
   -2.8726    5.5245    0.0000 N   0  0  0  0  0  0  0  0  0  0  0  0
   -1.5736    7.7745    0.0000 N   0  0  0  0  0  0  0  0  0  0  0  0
    1.0245    7.7745    0.0000 N   0  0  0  0  0  0  0  0  0  0  0  0
   -0.2745   10.0245    0.0000 N   0  0  0  0  0  0  0  0  0  0  0  0
   -0.2745   13.0245    0.0000 O   0  0  0  0  0  0  0  0  0  0  0  0
   -1.5736   10.7745    0.0000 C   0  0  0  0  0  0  0  0  0  0  0  0
   -1.5736   12.2745    0.0000 C   0  0  0  0  0  0  0  0  0  0  0  0
   -4.1716    6.2745    0.0000 C   0  0  0  0  0  0  0  0  0  0  0  0
   -5.4707    5.5245    0.0000 C   0  0  0  0  0  0  0  0  0  0  0  0
   -0.2745    8.5245    0.0000 C   0  0  0  0  0  0  0  0  0  0  0  0
   -1.5736    6.2745    0.0000 C   0  0  0  0  0  0  0  0  0  0  0  0
   -0.2745    5.5245    0.0000 C   0  0  0  0  0  0  0  0  0  0  0  0
    1.0245    6.2745    0.0000 C   0  0  0  0  0  0  0  0  0  0  0  0
    1.0245   10.7745    0.0000 C   0  0  0  0  0  0  0  0  0  0  0  0
    1.0245   12.2745    0.0000 C   0  0  0  0  0  0  0  0  0  0  0  0
   -2.8726    4.0245    0.0000 C   0  0  0  0  0  0  0  0  0  0  0  0
   -4.1716    3.2745    0.0000 C   0  0  0  0  0  0  0  0  0  0  0  0
    2.3236    5.5245    0.0000 C   0  0  0  0  0  0  0  0  0  0  0  0
  1 10  1  0  0  0  0
  1 18  1  0  0  0  0
  2  9  1  0  0  0  0
  2 12  1  0  0  0  0
  2 17  1  0  0  0  0
  3 11  2  0  0  0  0
  3 12  1  0  0  0  0
  4 14  2  0  0  0  0
  4 11  1  0  0  0  0
  5  7  1  0  0  0  0
  5 11  1  0  0  0  0
  5 15  1  0  0  0  0
  6  8  1  0  0  0  0
  6 16  1  0  0  0  0
  7  8  1  0  0  0  0
  9 10  1  0  0  0  0
 12 13  2  0  0  0  0
 13 14  1  0  0  0  0
 14 19  1  0  0  0  0
 15 16  1  0  0  0  0
 17 18  1  0  0  0  0
M  END
