325014
 OpenBabel03021519512D

 26 27  0  0  1  0  0  0  0  0999 V2000
   -9.2942   -1.5000    0.0000 C   0  0  1  0  0  0  0  0  0  0  0  0
   -7.9952   -2.2500    0.0000 H   0  0  0  0  0  0  0  0  0  0  0  0
   -6.6962    3.0000    0.0000 O   0  0  0  0  0  0  0  0  0  0  0  0
   -5.3971    0.7500    0.0000 O   0  0  0  0  0  0  0  0  0  0  0  0
   -8.5568   -6.0717    0.0000 H   0  0  0  0  0  0  0  0  0  0  0  0
   -7.1473   -5.5586    0.0000 C   0  0  1  0  0  0  0  0  0  0  0  0
   -9.2942    1.5000    0.0000 C   0  0  0  0  0  0  0  0  0  0  0  0
  -10.5933    0.7500    0.0000 C   0  0  0  0  0  0  0  0  0  0  0  0
   -7.9952    0.7500    0.0000 C   0  0  0  0  0  0  0  0  0  0  0  0
   -6.6962    1.5000    0.0000 C   0  0  0  0  0  0  0  0  0  0  0  0
  -10.5933   -0.7500    0.0000 C   0  0  1  0  0  0  0  0  0  0  0  0
   -7.9952   -0.7500    0.0000 C   0  0  2  0  0  0  0  0  0  0  0  0
   -6.6961   -1.5000    0.0000 C   0  0  2  0  0  0  0  0  0  0  0  0
   -5.3971   -0.7500    0.0000 C   0  0  1  0  0  0  0  0  0  0  0  0
  -11.8923   -1.5000    0.0000 O   0  0  0  0  0  0  0  0  0  0  0  0
   -9.2942    3.0000    0.0000 O   0  0  0  0  0  0  0  0  0  0  0  0
   -9.2942   -3.0000    0.0000 O   0  0  0  0  0  0  0  0  0  0  0  0
   -6.6961   -3.0000    0.0000 N   0  0  0  0  0  0  0  0  0  0  0  0
   -7.6603   -4.1491    0.0000 C   0  0  0  0  0  0  0  0  0  0  0  0
   -9.1375   -3.8886    0.0000 O   0  0  0  0  0  0  0  0  0  0  0  0
   -4.8841   -2.1596    0.0000 C   0  0  0  0  0  0  0  0  0  0  0  0
   -3.4069   -2.4200    0.0000 Cl  0  0  0  0  0  0  0  0  0  0  0  0
   -5.8483   -3.3086    0.0000 Cl  0  0  0  0  0  0  0  0  0  0  0  0
   -3.9199   -0.4896    0.0000 C   0  0  0  0  0  0  0  0  0  0  0  0
   -7.4077   -7.0359    0.0000 N   0  0  0  0  0  0  0  0  0  0  0  0
   -5.6701   -5.8191    0.0000 C   0  0  0  0  0  0  0  0  0  0  0  0
  1 11  1  0  0  0  0
  1 12  1  0  0  0  0
  1 17  1  1  0  0  0
  3 10  2  0  0  0  0
  4 10  1  0  0  0  0
  4 14  1  0  0  0  0
  6  5  1  1  0  0  0
  6 19  1  0  0  0  0
  6 25  1  0  0  0  0
  6 26  1  0  0  0  0
  7  9  2  0  0  0  0
  7  8  1  0  0  0  0
  7 16  1  0  0  0  0
  8 11  1  0  0  0  0
  9 10  1  0  0  0  0
  9 12  1  0  0  0  0
 11 15  1  6  0  0  0
 12  2  1  1  0  0  0
 12 13  1  0  0  0  0
 13 14  1  0  0  0  0
 13 18  1  6  0  0  0
 14 21  1  6  0  0  0
 14 24  1  0  0  0  0
 18 19  1  0  0  0  0
 19 20  2  0  0  0  0
 21 22  1  0  0  0  0
 21 23  1  0  0  0  0
M  END
