176765
 OpenBabel03021519512D

 13 13  0  0  0  0  0  0  0  0999 V2000
   -9.8433   -2.2500    0.0000 Cl  0  0  0  0  0  0  0  0  0  0  0  0
   -9.8433   -5.2500    0.0000 Cl  0  0  0  0  0  0  0  0  0  0  0  0
   -4.6471   -2.2500    0.0000 N   0  0  0  0  0  0  0  0  0  0  0  0
   -7.2452   -2.2500    0.0000 C   0  0  0  0  0  0  0  0  0  0  0  0
   -8.5442   -3.0000    0.0000 C   0  0  0  0  0  0  0  0  0  0  0  0
   -5.9461   -3.0000    0.0000 C   0  0  0  0  0  0  0  0  0  0  0  0
   -8.5442   -4.5000    0.0000 C   0  0  0  0  0  0  0  0  0  0  0  0
   -5.9461   -4.5000    0.0000 C   0  0  0  0  0  0  0  0  0  0  0  0
   -7.2452   -5.2500    0.0000 C   0  0  0  0  0  0  0  0  0  0  0  0
   -3.3481   -3.0000    0.0000 C   0  0  0  0  0  0  0  0  0  0  0  0
   -2.0490   -2.2500    0.0000 N   0  0  0  0  0  0  0  0  0  0  0  0
   -2.0490   -0.7500    0.0000 C   0  0  0  0  0  0  0  0  0  0  0  0
   -0.7500   -3.0000    0.0000 C   0  0  0  0  0  0  0  0  0  0  0  0
  1  5  1  0  0  0  0
  2  7  1  0  0  0  0
  3  6  1  0  0  0  0
  3 10  2  0  0  0  0
  4  6  2  0  0  0  0
  4  5  1  0  0  0  0
  5  7  2  0  0  0  0
  6  8  1  0  0  0  0
  7  9  1  0  0  0  0
  8  9  2  0  0  0  0
 10 11  1  0  0  0  0
 11 12  1  0  0  0  0
 11 13  1  0  0  0  0
M  END
