57608
 OpenBabel03021519512D

 28 27  0  0  0  0  0  0  0  0999 V2000
  -16.9952   -2.5981    0.0000 C   0  0  0  0  0  0  0  0  0  0  0  0
  -18.2942   -3.3481    0.0000 C   0  0  0  0  0  0  0  0  0  0  0  0
  -15.6962   -3.3481    0.0000 O   0  0  0  0  0  0  0  0  0  0  0  0
  -14.3971   -2.5981    0.0000 C   0  0  0  0  0  0  0  0  0  0  0  0
  -14.3971   -1.0981    0.0000 O   0  0  0  0  0  0  0  0  0  0  0  0
  -13.0981   -3.3481    0.0000 C   0  0  0  0  0  0  0  0  0  0  0  0
  -11.7990   -2.5981    0.0000 C   0  0  0  0  0  0  0  0  0  0  0  0
  -11.7990   -1.0981    0.0000 O   0  0  0  0  0  0  0  0  0  0  0  0
  -10.5000   -3.3481    0.0000 N   0  0  0  0  0  0  0  0  0  0  0  0
  -10.5000   -4.8481    0.0000 C   0  0  0  0  0  0  0  0  0  0  0  0
  -12.0000   -4.8481    0.0000 C   0  0  0  0  0  0  0  0  0  0  0  0
  -10.5000   -6.3481    0.0000 C   0  0  0  0  0  0  0  0  0  0  0  0
   -9.0000   -4.8481    0.0000 C   0  0  0  0  0  0  0  0  0  0  0  0
   -8.2500   -3.5490    0.0000 C   0  0  0  0  0  0  0  0  0  0  0  0
   -6.7500   -3.5490    0.0000 C   0  0  0  0  0  0  0  0  0  0  0  0
   -6.0000   -2.2500    0.0000 C   0  0  0  0  0  0  0  0  0  0  0  0
   -4.5000   -2.2500    0.0000 C   0  0  0  0  0  0  0  0  0  0  0  0
   -4.5000   -3.7500    0.0000 C   0  0  0  0  0  0  0  0  0  0  0  0
   -4.5000   -0.7500    0.0000 C   0  0  0  0  0  0  0  0  0  0  0  0
   -3.0000   -2.2500    0.0000 N   0  0  0  0  0  0  0  0  0  0  0  0
   -2.4870   -3.6595    0.0000 C   0  0  0  0  0  0  0  0  0  0  0  0
   -3.4511   -4.8086    0.0000 O   0  0  0  0  0  0  0  0  0  0  0  0
   -1.0097   -3.9200    0.0000 C   0  0  0  0  0  0  0  0  0  0  0  0
   -0.0456   -2.7709    0.0000 C   0  0  0  0  0  0  0  0  0  0  0  0
   -0.5586   -1.3614    0.0000 O   0  0  0  0  0  0  0  0  0  0  0  0
    1.4316   -3.0314    0.0000 O   0  0  0  0  0  0  0  0  0  0  0  0
    2.3958   -1.8824    0.0000 C   0  0  0  0  0  0  0  0  0  0  0  0
    1.8828   -0.4728    0.0000 C   0  0  0  0  0  0  0  0  0  0  0  0
  1  2  1  0  0  0  0
  1  3  1  0  0  0  0
  3  4  1  0  0  0  0
  4  5  2  0  0  0  0
  4  6  1  0  0  0  0
  6  7  1  0  0  0  0
  7  8  2  0  0  0  0
  7  9  1  0  0  0  0
  9 10  1  0  0  0  0
 10 11  1  0  0  0  0
 10 12  1  0  0  0  0
 10 13  1  0  0  0  0
 13 14  1  0  0  0  0
 14 15  1  0  0  0  0
 15 16  1  0  0  0  0
 16 17  1  0  0  0  0
 17 18  1  0  0  0  0
 17 19  1  0  0  0  0
 17 20  1  0  0  0  0
 20 21  1  0  0  0  0
 21 22  2  0  0  0  0
 21 23  1  0  0  0  0
 23 24  1  0  0  0  0
 24 25  2  0  0  0  0
 24 26  1  0  0  0  0
 26 27  1  0  0  0  0
 27 28  1  0  0  0  0
M  END
