55573
 OpenBabel03021519512D

 14 13  0  0  0  0  0  0  0  0999 V2000
   -0.4755    2.3236    0.0000 H   0  0  0  0  0  0  0  0  0  0  0  0
    0.2745    3.6226    0.0000 C   0  0  0  0  0  0  0  0  0  0  0  0
    1.7745    3.6226    0.0000 C   0  0  0  0  0  0  0  0  0  0  0  0
    2.5245    2.3236    0.0000 H   0  0  0  0  0  0  0  0  0  0  0  0
   -0.4755    4.9216    0.0000 C   0  0  0  0  0  0  0  0  0  0  0  0
   -1.9755    4.9216    0.0000 O   0  0  0  0  0  0  0  0  0  0  0  0
    0.2745    6.2207    0.0000 O   0  0  0  0  0  0  0  0  0  0  0  0
    2.5245    4.9216    0.0000 C   0  0  0  0  0  0  0  0  0  0  0  0
    1.7745    6.2207    0.0000 O   0  0  0  0  0  0  0  0  0  0  0  0
    4.0245    4.9216    0.0000 N   0  0  0  0  0  0  0  0  0  0  0  0
    4.7745    6.2207    0.0000 C   0  0  0  0  0  0  0  0  0  0  0  0
    4.0245    7.5197    0.0000 C   0  0  0  0  0  0  0  0  0  0  0  0
    4.7745    8.8188    0.0000 C   0  0  0  0  0  0  0  0  0  0  0  0
    2.5245    7.5197    0.0000 C   0  0  0  0  0  0  0  0  0  0  0  0
  1  2  1  0  0  0  0
  2  3  2  0  0  0  0
  2  5  1  0  0  0  0
  3  4  1  0  0  0  0
  3  8  1  0  0  0  0
  5  6  2  0  0  0  0
  5  7  1  0  0  0  0
  8  9  2  0  0  0  0
  8 10  1  0  0  0  0
 10 11  1  0  0  0  0
 11 12  1  0  0  0  0
 12 13  1  0  0  0  0
 12 14  1  0  0  0  0
M  END
