125605
 OpenBabel03021519512D

 19 20  0  0  0  0  0  0  0  0999 V2000
   -2.9731    2.1495    0.0000 N   0  0  0  0  0  0  0  0  0  0  0  0
   -2.9731    3.6495    0.0000 N   0  0  0  0  0  0  0  0  0  0  0  0
   -2.9731    6.6495    0.0000 C   0  0  0  0  0  0  0  0  0  0  0  0
   -4.2721    5.8995    0.0000 C   0  0  0  0  0  0  0  0  0  0  0  0
   -2.9731    8.1495    0.0000 C   0  0  0  0  0  0  0  0  0  0  0  0
   -4.2721    8.8995    0.0000 C   0  0  0  0  0  0  0  0  0  0  0  0
   -5.5712    6.6495    0.0000 C   0  0  0  0  0  0  0  0  0  0  0  0
   -5.5712    8.1495    0.0000 C   0  0  0  0  0  0  0  0  0  0  0  0
   -1.6740   -0.1005    0.0000 C   0  0  0  0  0  0  0  0  0  0  0  0
   -1.6740    1.3995    0.0000 C   0  0  0  0  0  0  0  0  0  0  0  0
   -0.3750   -0.8505    0.0000 C   0  0  0  0  0  0  0  0  0  0  0  0
   -0.3750    2.1495    0.0000 C   0  0  0  0  0  0  0  0  0  0  0  0
    0.9240   -0.1005    0.0000 C   0  0  0  0  0  0  0  0  0  0  0  0
    0.9240    1.3995    0.0000 C   0  0  0  0  0  0  0  0  0  0  0  0
   -0.3750    3.6495    0.0000 O   0  0  0  0  0  0  0  0  0  0  0  0
   -1.6740    4.3995    0.0000 C   0  0  0  0  0  0  0  0  0  0  0  0
   -4.2721    4.3995    0.0000 N   0  0  0  0  0  0  0  0  0  0  0  0
   -6.8702    5.8995    0.0000 O   0  0  0  0  0  0  0  0  0  0  0  0
   -8.1692    6.6495    0.0000 C   0  0  0  0  0  0  0  0  0  0  0  0
  1  2  2  0  0  0  0
  1 10  1  0  0  0  0
  2 17  1  0  0  0  0
  3  5  2  0  0  0  0
  3  4  1  0  0  0  0
  4  7  2  0  0  0  0
  4 17  1  0  0  0  0
  5  6  1  0  0  0  0
  6  8  2  0  0  0  0
  7  8  1  0  0  0  0
  7 18  1  0  0  0  0
  9 11  2  0  0  0  0
  9 10  1  0  0  0  0
 10 12  2  0  0  0  0
 11 13  1  0  0  0  0
 12 14  1  0  0  0  0
 12 15  1  0  0  0  0
 13 14  2  0  0  0  0
 15 16  1  0  0  0  0
 18 19  1  0  0  0  0
M  END
