622689
 OpenBabel03021519512D

 17 17  0  0  0  0  0  0  0  0999 V2000
    3.8735    3.5762    0.0000 S   0  0  0  0  0  0  0  0  0  0  0  0
    5.3407    3.2643    0.0000 S   0  0  0  0  0  0  0  0  0  0  0  0
    5.4975    1.7725    0.0000 C   0  0  0  0  0  0  0  0  0  0  0  0
    4.1272    1.1624    0.0000 N   0  0  0  0  0  0  0  0  0  0  0  0
    3.1235    2.2771    0.0000 C   0  0  0  0  0  0  0  0  0  0  0  0
    1.6317    2.1203    0.0000 N   0  0  0  0  0  0  0  0  0  0  0  0
    0.7500    3.3338    0.0000 C   0  0  0  0  0  0  0  0  0  0  0  0
    1.0216    0.7500    0.0000 C   0  0  0  0  0  0  0  0  0  0  0  0
    6.7965    1.0225    0.0000 N   0  0  0  0  0  0  0  0  0  0  0  0
    8.0956    1.7725    0.0000 C   0  0  0  0  0  0  0  0  0  0  0  0
    8.0956    3.2725    0.0000 C   0  0  0  0  0  0  0  0  0  0  0  0
    9.3946    4.0225    0.0000 C   0  0  0  0  0  0  0  0  0  0  0  0
   10.6936    3.2725    0.0000 C   0  0  0  0  0  0  0  0  0  0  0  0
   10.6936    1.7725    0.0000 C   0  0  0  0  0  0  0  0  0  0  0  0
    9.3946    1.0225    0.0000 C   0  0  0  0  0  0  0  0  0  0  0  0
   11.9927    1.0225    0.0000 Cl  0  0  0  0  0  0  0  0  0  0  0  0
    6.3713    5.5225    0.0000 Br  0  0  0  0  0  0  0  0  0  0  0  0
  1  2  1  0  0  0  0
  1  5  1  0  0  0  0
  2  3  1  0  0  0  0
  3  4  1  0  0  0  0
  3  9  2  0  0  0  0
  4  5  2  0  0  0  0
  5  6  1  0  0  0  0
  6  7  1  0  0  0  0
  6  8  1  0  0  0  0
  9 10  1  0  0  0  0
 10 11  2  0  0  0  0
 10 15  1  0  0  0  0
 11 12  1  0  0  0  0
 12 13  2  0  0  0  0
 13 14  1  0  0  0  0
 14 15  2  0  0  0  0
 14 16  1  0  0  0  0
M  END
