46273
 OpenBabel03021519512D

 14 15  0  0  1  0  0  0  0  0999 V2000
   -4.0501   -2.0911    0.0000 O   0  0  0  0  0  0  0  0  0  0  0  0
   -4.0500   -4.6892    0.0000 O   0  0  0  0  0  0  0  0  0  0  0  0
   -2.4184   -2.1766    0.0000 C   0  0  3  0  0  0  0  0  0  0  0  0
   -3.3001   -3.3901    0.0000 C   0  0  0  0  0  0  0  0  0  0  0  0
   -0.9918   -2.6401    0.0000 C   0  0  0  0  0  0  0  0  0  0  0  0
   -0.9918   -4.1401    0.0000 C   0  0  0  0  0  0  0  0  0  0  0  0
   -2.4184   -4.6036    0.0000 C   0  0  0  0  0  0  0  0  0  0  0  0
   -5.5501   -2.0911    0.0000 C   0  0  0  0  0  0  0  0  0  0  0  0
   -6.3001   -3.3901    0.0000 C   0  0  0  0  0  0  0  0  0  0  0  0
   -5.5500   -4.6892    0.0000 C   0  0  0  0  0  0  0  0  0  0  0  0
   -7.4491   -2.4259    0.0000 C   0  0  0  0  0  0  0  0  0  0  0  0
   -7.4491   -4.3543    0.0000 C   0  0  0  0  0  0  0  0  0  0  0  0
   -2.8819   -0.7500    0.0000 C   0  0  0  0  0  0  0  0  0  0  0  0
   -2.8819   -6.0302    0.0000 O   0  0  0  0  0  0  0  0  0  0  0  0
  1  4  1  0  0  0  0
  1  8  1  0  0  0  0
  2  4  1  0  0  0  0
  2 10  1  0  0  0  0
  3  4  1  0  0  0  0
  3  5  1  0  0  0  0
  3 13  1  0  0  0  0
  4  7  1  0  0  0  0
  5  6  1  0  0  0  0
  6  7  2  0  0  0  0
  7 14  1  0  0  0  0
  8  9  1  0  0  0  0
  9 10  1  0  0  0  0
  9 11  1  0  0  0  0
  9 12  1  0  0  0  0
M  END
