46615
 OpenBabel03021519512D

 17 19  0  0  1  0  0  0  0  0999 V2000
    2.4184   -8.6591    0.0000 N   0  0  0  0  0  0  0  0  0  0  0  0
    2.1468   -6.0753    0.0000 N   0  0  0  0  0  0  0  0  0  0  0  0
    4.5203   -4.7049    0.0000 N   0  0  0  0  0  0  0  0  0  0  0  0
    5.9468   -5.1685    0.0000 N   0  0  0  0  0  0  0  0  0  0  0  0
    5.0604   -2.1636    0.0000 O   0  0  0  0  0  0  0  0  0  0  0  0
    3.1297   -0.4252    0.0000 C   0  0  0  0  0  0  0  0  0  0  0  0
    2.1260   -1.5399    0.0000 C   0  0  0  0  0  0  0  0  0  0  0  0
    4.5969   -0.7370    0.0000 C   0  0  0  0  0  0  0  0  0  0  0  0
    2.5895   -2.9665    0.0000 C   0  0  0  0  0  0  0  0  0  0  0  0
    4.0567   -3.2784    0.0000 C   0  0  3  0  0  0  0  0  0  0  0  0
    3.6386   -5.9185    0.0000 C   0  0  0  0  0  0  0  0  0  0  0  0
    4.5203   -7.1320    0.0000 C   0  0  0  0  0  0  0  0  0  0  0  0
    3.9102   -8.5023    0.0000 C   0  0  0  0  0  0  0  0  0  0  0  0
    5.9469   -6.6685    0.0000 C   0  0  0  0  0  0  0  0  0  0  0  0
    1.5367   -7.4456    0.0000 C   0  0  0  0  0  0  0  0  0  0  0  0
    4.7918   -9.7158    0.0000 N   0  0  0  0  0  0  0  0  0  0  0  0
    4.1817  -11.0862    0.0000 C   0  0  0  0  0  0  0  0  0  0  0  0
  1 13  2  0  0  0  0
  1 15  1  0  0  0  0
  2 15  2  0  0  0  0
  2 11  1  0  0  0  0
  3  4  1  0  0  0  0
  3 10  1  0  0  0  0
  3 11  1  0  0  0  0
  4 14  2  0  0  0  0
  5  8  1  0  0  0  0
  5 10  1  0  0  0  0
  6  7  1  0  0  0  0
  6  8  1  0  0  0  0
  7  9  1  0  0  0  0
  9 10  1  0  0  0  0
 11 12  2  0  0  0  0
 12 13  1  0  0  0  0
 12 14  1  0  0  0  0
 13 16  1  0  0  0  0
 16 17  1  0  0  0  0
M  END
