154316
 OpenBabel03021519512D

 11 12  0  0  0  0  0  0  0  0999 V2000
    2.0490    3.0000    0.0000 N   0  0  0  0  0  0  0  0  0  0  0  0
    2.0490    1.5000    0.0000 C   0  0  0  0  0  0  0  0  0  0  0  0
    3.3481    3.7500    0.0000 C   0  0  0  0  0  0  0  0  0  0  0  0
    3.3481    0.7500    0.0000 N   0  0  0  0  0  0  0  0  0  0  0  0
    4.6471    1.5000    0.0000 C   0  0  0  0  0  0  0  0  0  0  0  0
    4.6471    3.0000    0.0000 N   0  0  0  0  0  0  0  0  0  0  0  0
    6.0737    3.4635    0.0000 N   0  0  0  0  0  0  0  0  0  0  0  0
    6.0737    1.0365    0.0000 N   0  0  0  0  0  0  0  0  0  0  0  0
    6.9554    2.2500    0.0000 C   0  0  0  0  0  0  0  0  0  0  0  0
    0.7500    0.7500    0.0000 O   0  0  0  0  0  0  0  0  0  0  0  0
    3.3481    5.2500    0.0000 O   0  0  0  0  0  0  0  0  0  0  0  0
  1  3  2  0  0  0  0
  1  2  1  0  0  0  0
  2  4  2  0  0  0  0
  2 10  1  0  0  0  0
  3  6  1  0  0  0  0
  3 11  1  0  0  0  0
  4  5  1  0  0  0  0
  5  6  1  0  0  0  0
  5  8  2  0  0  0  0
  6  7  1  0  0  0  0
  7  9  2  0  0  0  0
  8  9  1  0  0  0  0
M  END
