194242
 OpenBabel03021519512D

 12 13  0  0  0  0  0  0  0  0999 V2000
   -7.7355    0.6187    0.0000 N   0  0  0  0  0  0  0  0  0  0  0  0
   -7.7355   -2.3813    0.0000 N   0  0  0  0  0  0  0  0  0  0  0  0
   -5.0099    0.3322    0.0000 N   0  0  0  0  0  0  0  0  0  0  0  0
   -3.0792   -3.8333    0.0000 O   0  0  0  0  0  0  0  0  0  0  0  0
   -9.0346   -0.1313    0.0000 C   0  0  0  0  0  0  0  0  0  0  0  0
   -9.0346   -1.6313    0.0000 C   0  0  0  0  0  0  0  0  0  0  0  0
   -6.4365   -0.1313    0.0000 C   0  0  0  0  0  0  0  0  0  0  0  0
   -6.4365   -1.6313    0.0000 C   0  0  0  0  0  0  0  0  0  0  0  0
   -5.0099   -2.0948    0.0000 C   0  0  0  0  0  0  0  0  0  0  0  0
   -4.1282   -0.8813    0.0000 C   0  0  0  0  0  0  0  0  0  0  0  0
   -4.5464    1.7588    0.0000 C   0  0  0  0  0  0  0  0  0  0  0  0
   -4.5464   -3.5214    0.0000 C   0  0  0  0  0  0  0  0  0  0  0  0
  1  5  2  0  0  0  0
  1  7  1  0  0  0  0
  2  6  2  0  0  0  0
  2  8  1  0  0  0  0
  3  7  1  0  0  0  0
  3 10  1  0  0  0  0
  3 11  1  0  0  0  0
  4 12  2  0  0  0  0
  5  6  1  0  0  0  0
  7  8  2  0  0  0  0
  8  9  1  0  0  0  0
  9 10  2  0  0  0  0
  9 12  1  0  0  0  0
M  END
