87838
 OpenBabel03021519512D

 28 31  0  0  0  0  0  0  0  0999 V2000
    6.8702    1.3996    0.0000 N   0  0  0  0  0  0  0  0  0  0  0  0
    9.4683   -0.1004    0.0000 H   0  0  0  0  0  0  0  0  0  0  0  0
    9.4683    1.3996    0.0000 C   0  0  0  0  0  0  0  0  0  0  0  0
   10.7673    2.1496    0.0000 C   0  0  0  0  0  0  0  0  0  0  0  0
   10.7673    3.6496    0.0000 H   0  0  0  0  0  0  0  0  0  0  0  0
   12.0663   -0.1004    0.0000 N   0  0  0  0  0  0  0  0  0  0  0  0
    5.5711    2.1495    0.0000 C   0  0  0  0  0  0  0  0  0  0  0  0
    4.2721    1.3995    0.0000 C   0  0  0  0  0  0  0  0  0  0  0  0
    2.9731    2.1495    0.0000 C   0  0  0  0  0  0  0  0  0  0  0  0
    1.6740    1.3995    0.0000 C   0  0  0  0  0  0  0  0  0  0  0  0
    4.2721   -0.1005    0.0000 C   0  0  0  0  0  0  0  0  0  0  0  0
    1.6740   -0.1005    0.0000 C   0  0  0  0  0  0  0  0  0  0  0  0
    2.9731   -0.8505    0.0000 C   0  0  0  0  0  0  0  0  0  0  0  0
    5.5712   -0.8505    0.0000 C   0  0  0  0  0  0  0  0  0  0  0  0
    6.8702   -0.1004    0.0000 C   0  0  0  0  0  0  0  0  0  0  0  0
   14.6644   -3.1004    0.0000 C   0  0  0  0  0  0  0  0  0  0  0  0
   13.3654   -2.3504    0.0000 C   0  0  0  0  0  0  0  0  0  0  0  0
   14.6644   -4.6004    0.0000 C   0  0  0  0  0  0  0  0  0  0  0  0
   13.3654   -0.8504    0.0000 C   0  0  0  0  0  0  0  0  0  0  0  0
   13.3654   -5.3504    0.0000 C   0  0  0  0  0  0  0  0  0  0  0  0
   12.0664   -3.1004    0.0000 C   0  0  0  0  0  0  0  0  0  0  0  0
   12.0664   -4.6004    0.0000 C   0  0  0  0  0  0  0  0  0  0  0  0
   10.7673   -2.3504    0.0000 C   0  0  0  0  0  0  0  0  0  0  0  0
   10.7673   -0.8504    0.0000 C   0  0  0  0  0  0  0  0  0  0  0  0
    8.1692    2.1496    0.0000 C   0  0  0  0  0  0  0  0  0  0  0  0
    8.1692    3.6496    0.0000 O   0  0  0  0  0  0  0  0  0  0  0  0
   12.0663    1.3996    0.0000 C   0  0  0  0  0  0  0  0  0  0  0  0
   13.3654    2.1496    0.0000 O   0  0  0  0  0  0  0  0  0  0  0  0
  1  7  1  0  0  0  0
  1 15  1  0  0  0  0
  1 25  1  0  0  0  0
  2  3  1  0  0  0  0
  3  4  2  0  0  0  0
  3 25  1  0  0  0  0
  4  5  1  0  0  0  0
  4 27  1  0  0  0  0
  6 19  1  0  0  0  0
  6 24  1  0  0  0  0
  6 27  1  0  0  0  0
  7  8  1  0  0  0  0
  8 11  2  0  0  0  0
  8  9  1  0  0  0  0
  9 10  2  0  0  0  0
 10 12  1  0  0  0  0
 11 13  1  0  0  0  0
 11 14  1  0  0  0  0
 12 13  2  0  0  0  0
 14 15  1  0  0  0  0
 16 18  2  0  0  0  0
 16 17  1  0  0  0  0
 17 21  2  0  0  0  0
 17 19  1  0  0  0  0
 18 20  1  0  0  0  0
 20 22  2  0  0  0  0
 21 22  1  0  0  0  0
 21 23  1  0  0  0  0
 23 24  1  0  0  0  0
 25 26  2  0  0  0  0
 27 28  2  0  0  0  0
M  END
