190501
 OpenBabel03021519512D

 18 19  0  0  0  0  0  0  0  0999 V2000
   -2.0490    0.7500    0.0000 Cl  0  0  0  0  0  0  0  0  0  0  0  0
   -3.3481   12.0000    0.0000 Br  0  0  0  0  0  0  0  0  0  0  0  0
   -4.6471    8.2500    0.0000 C   0  0  0  0  0  0  0  0  0  0  0  0
   -3.3481    7.5000    0.0000 C   0  0  0  0  0  0  0  0  0  0  0  0
   -4.6471    9.7500    0.0000 C   0  0  0  0  0  0  0  0  0  0  0  0
   -3.3481   10.5000    0.0000 C   0  0  0  0  0  0  0  0  0  0  0  0
   -2.0490    8.2500    0.0000 C   0  0  0  0  0  0  0  0  0  0  0  0
   -2.0490    9.7500    0.0000 C   0  0  0  0  0  0  0  0  0  0  0  0
   -4.6471    3.7500    0.0000 C   0  0  0  0  0  0  0  0  0  0  0  0
   -3.3481    3.0000    0.0000 C   0  0  0  0  0  0  0  0  0  0  0  0
   -5.9462    3.0000    0.0000 C   0  0  0  0  0  0  0  0  0  0  0  0
   -3.3481    1.5000    0.0000 C   0  0  0  0  0  0  0  0  0  0  0  0
   -5.9461    1.5000    0.0000 C   0  0  0  0  0  0  0  0  0  0  0  0
   -4.6471    0.7500    0.0000 C   0  0  0  0  0  0  0  0  0  0  0  0
   -2.0490    3.7500    0.0000 N   0  0  0  0  0  0  0  0  0  0  0  0
   -2.0490    5.2500    0.0000 C   0  0  0  0  0  0  0  0  0  0  0  0
   -0.7500    6.0000    0.0000 O   0  0  0  0  0  0  0  0  0  0  0  0
   -3.3481    6.0000    0.0000 N   0  0  0  0  0  0  0  0  0  0  0  0
  1 12  1  0  0  0  0
  2  6  1  0  0  0  0
  3  5  2  0  0  0  0
  3  4  1  0  0  0  0
  4  7  2  0  0  0  0
  4 18  1  0  0  0  0
  5  6  1  0  0  0  0
  6  8  2  0  0  0  0
  7  8  1  0  0  0  0
  9 11  2  0  0  0  0
  9 10  1  0  0  0  0
 10 12  2  0  0  0  0
 10 15  1  0  0  0  0
 11 13  1  0  0  0  0
 12 14  1  0  0  0  0
 13 14  2  0  0  0  0
 15 16  1  0  0  0  0
 16 17  2  0  0  0  0
 16 18  1  0  0  0  0
M  END
