109747
 OpenBabel03021519512D

 20 22  0  0  0  0  0  0  0  0999 V2000
    6.1202    8.8995    0.0000 N   0  0  0  0  0  0  0  0  0  0  0  0
    3.5221    8.8995    0.0000 C   0  0  0  0  0  0  0  0  0  0  0  0
    4.8212    8.1495    0.0000 C   0  0  0  0  0  0  0  0  0  0  0  0
    2.2231    8.1495    0.0000 C   0  0  0  0  0  0  0  0  0  0  0  0
    4.8212    6.6495    0.0000 C   0  0  0  0  0  0  0  0  0  0  0  0
    2.2231    6.6495    0.0000 C   0  0  0  0  0  0  0  0  0  0  0  0
    6.1202    5.8995    0.0000 C   0  0  0  0  0  0  0  0  0  0  0  0
    7.4192    8.1495    0.0000 C   0  0  0  0  0  0  0  0  0  0  0  0
    7.4192    6.6495    0.0000 C   0  0  0  0  0  0  0  0  0  0  0  0
    3.5221    5.8995    0.0000 C   0  0  0  0  0  0  0  0  0  0  0  0
   -0.3750    3.6495    0.0000 C   0  0  0  0  0  0  0  0  0  0  0  0
   -0.3750    2.1495    0.0000 C   0  0  0  0  0  0  0  0  0  0  0  0
    0.9240    4.3995    0.0000 C   0  0  0  0  0  0  0  0  0  0  0  0
    2.2231    3.6495    0.0000 C   0  0  0  0  0  0  0  0  0  0  0  0
    0.9240    1.3995    0.0000 C   0  0  0  0  0  0  0  0  0  0  0  0
    2.2231    2.1495    0.0000 C   0  0  0  0  0  0  0  0  0  0  0  0
    0.9240    5.8995    0.0000 C   0  0  0  0  0  0  0  0  0  0  0  0
   -0.3750    6.6495    0.0000 O   0  0  0  0  0  0  0  0  0  0  0  0
    6.1202    4.3995    0.0000 O   0  0  0  0  0  0  0  0  0  0  0  0
    8.7183    8.8995    0.0000 C   0  0  0  0  0  0  0  0  0  0  0  0
  1  8  2  0  0  0  0
  1  3  1  0  0  0  0
  2  4  2  0  0  0  0
  2  3  1  0  0  0  0
  3  5  2  0  0  0  0
  4  6  1  0  0  0  0
  5  7  1  0  0  0  0
  5 10  1  0  0  0  0
  6 10  2  0  0  0  0
  6 17  1  0  0  0  0
  7  9  2  0  0  0  0
  7 19  1  0  0  0  0
  8  9  1  0  0  0  0
  8 20  1  0  0  0  0
 11 12  2  0  0  0  0
 11 13  1  0  0  0  0
 12 15  1  0  0  0  0
 13 14  2  0  0  0  0
 13 17  1  0  0  0  0
 14 16  1  0  0  0  0
 15 16  2  0  0  0  0
 17 18  2  0  0  0  0
M  END
