26349
 OpenBabel03021519512D

 22 24  0  0  1  0  0  0  0  0999 V2000
   -6.1202   -5.8995    0.0000 C   0  0  3  0  0  0  0  0  0  0  0  0
   -4.8211   -6.6495    0.0000 C   0  0  3  0  0  0  0  0  0  0  0  0
   -5.2542   -7.3995    0.0000 C   0  0  0  0  0  0  0  0  0  0  0  0
   -7.4192   -6.6495    0.0000 C   0  0  0  0  0  0  0  0  0  0  0  0
   -4.8211   -8.1495    0.0000 C   0  0  0  0  0  0  0  0  0  0  0  0
   -7.4192   -8.1495    0.0000 C   0  0  0  0  0  0  0  0  0  0  0  0
   -6.1202   -8.8995    0.0000 C   0  0  3  0  0  0  0  0  0  0  0  0
   -2.2231   -2.1495    0.0000 C   0  0  0  0  0  0  0  0  0  0  0  0
   -0.9240   -1.3995    0.0000 C   0  0  0  0  0  0  0  0  0  0  0  0
   -2.2231   -3.6495    0.0000 C   0  0  0  0  0  0  0  0  0  0  0  0
    0.3750   -2.1495    0.0000 C   0  0  0  0  0  0  0  0  0  0  0  0
   -0.9240   -4.3995    0.0000 C   0  0  0  0  0  0  0  0  0  0  0  0
    0.3750   -3.6495    0.0000 C   0  0  0  0  0  0  0  0  0  0  0  0
   -6.1202   -4.3995    0.0000 C   0  0  0  0  0  0  0  0  0  0  0  0
   -4.3081   -9.5591    0.0000 C   0  0  0  0  0  0  0  0  0  0  0  0
   -3.3439   -7.8891    0.0000 C   0  0  0  0  0  0  0  0  0  0  0  0
   -3.5221   -5.8995    0.0000 O   0  0  0  0  0  0  0  0  0  0  0  0
   -3.5221   -4.3995    0.0000 C   0  0  0  0  0  0  0  0  0  0  0  0
   -4.8211   -3.6495    0.0000 O   0  0  0  0  0  0  0  0  0  0  0  0
   -0.9240   -5.8995    0.0000 C   0  0  0  0  0  0  0  0  0  0  0  0
   -2.2231   -6.6495    0.0000 O   0  0  0  0  0  0  0  0  0  0  0  0
    0.3750   -6.6495    0.0000 O   0  0  0  0  0  0  0  0  0  0  0  0
  1  2  1  0  0  0  0
  1  3  1  0  0  0  0
  1  4  1  0  0  0  0
  1 14  1  0  0  0  0
  2  5  1  0  0  0  0
  2 17  1  0  0  0  0
  3  7  1  0  0  0  0
  4  6  1  0  0  0  0
  5  7  1  0  0  0  0
  5 15  1  0  0  0  0
  5 16  1  0  0  0  0
  6  7  1  0  0  0  0
  8  9  2  0  0  0  0
  8 10  1  0  0  0  0
  9 11  1  0  0  0  0
 10 12  2  0  0  0  0
 10 18  1  0  0  0  0
 11 13  2  0  0  0  0
 12 13  1  0  0  0  0
 12 20  1  0  0  0  0
 17 18  1  0  0  0  0
 18 19  2  0  0  0  0
 20 21  2  0  0  0  0
 20 22  1  0  0  0  0
M  END
