56906
 OpenBabel03021519512D

 14 14  0  0  0  0  0  0  0  0999 V2000
   -0.3750    6.6495    0.0000 O   0  0  0  0  0  0  0  0  0  0  0  0
    2.2231    6.6495    0.0000 N   0  0  0  0  0  0  0  0  0  0  0  0
    3.5221    4.3995    0.0000 N   0  0  0  0  0  0  0  0  0  0  0  0
    0.9240    5.8995    0.0000 C   0  0  0  0  0  0  0  0  0  0  0  0
    0.9240    4.3995    0.0000 C   0  0  0  0  0  0  0  0  0  0  0  0
    2.2231    3.6495    0.0000 C   0  0  0  0  0  0  0  0  0  0  0  0
    3.5221    5.8995    0.0000 C   0  0  0  0  0  0  0  0  0  0  0  0
   -0.3750    3.6495    0.0000 N   0  0  0  0  0  0  0  0  0  0  0  0
   -1.6740    4.3995    0.0000 O   0  0  0  0  0  0  0  0  0  0  0  0
    2.2231    8.1495    0.0000 C   0  0  0  0  0  0  0  0  0  0  0  0
    2.2231    2.1495    0.0000 N   0  0  0  0  0  0  0  0  0  0  0  0
    0.9240    1.3995    0.0000 C   0  0  0  0  0  0  0  0  0  0  0  0
    4.8212    6.6495    0.0000 S   0  0  0  0  0  0  0  0  0  0  0  0
    6.1202    5.8995    0.0000 C   0  0  0  0  0  0  0  0  0  0  0  0
  1  4  2  0  0  0  0
  2  4  1  0  0  0  0
  2  7  1  0  0  0  0
  2 10  1  0  0  0  0
  3  7  2  0  0  0  0
  3  6  1  0  0  0  0
  4  5  1  0  0  0  0
  5  6  2  0  0  0  0
  5  8  1  0  0  0  0
  6 11  1  0  0  0  0
  7 13  1  0  0  0  0
  8  9  2  0  0  0  0
 11 12  1  0  0  0  0
 13 14  1  0  0  0  0
M  END
