13974
 OpenBabel03021519512D

 19 21  0  0  0  0  0  0  0  0999 V2000
    3.6226   -1.2255    0.0000 N   0  0  0  0  0  0  0  0  0  0  0  0
    4.9216   -1.9755    0.0000 N   0  0  0  0  0  0  0  0  0  0  0  0
   -0.2745   -3.4755    0.0000 C   0  0  0  0  0  0  0  0  0  0  0  0
    1.0245   -4.2255    0.0000 C   0  0  0  0  0  0  0  0  0  0  0  0
   -0.2745   -1.9755    0.0000 C   0  0  0  0  0  0  0  0  0  0  0  0
    1.0245   -1.2255    0.0000 C   0  0  0  0  0  0  0  0  0  0  0  0
    2.3236   -3.4755    0.0000 C   0  0  0  0  0  0  0  0  0  0  0  0
    2.3236   -1.9755    0.0000 C   0  0  0  0  0  0  0  0  0  0  0  0
    6.2207   -1.2255    0.0000 C   0  0  0  0  0  0  0  0  0  0  0  0
    6.2207    0.2745    0.0000 C   0  0  0  0  0  0  0  0  0  0  0  0
    7.5197   -1.9755    0.0000 C   0  0  0  0  0  0  0  0  0  0  0  0
    7.5197   -3.4755    0.0000 C   0  0  0  0  0  0  0  0  0  0  0  0
    8.8188   -4.2255    0.0000 C   0  0  0  0  0  0  0  0  0  0  0  0
    7.5197    1.0245    0.0000 C   0  0  0  0  0  0  0  0  0  0  0  0
    8.8188   -1.2255    0.0000 C   0  0  0  0  0  0  0  0  0  0  0  0
   10.1178   -3.4755    0.0000 C   0  0  0  0  0  0  0  0  0  0  0  0
    8.8187    0.2745    0.0000 C   0  0  0  0  0  0  0  0  0  0  0  0
   10.1178   -1.9755    0.0000 C   0  0  0  0  0  0  0  0  0  0  0  0
   10.1178    1.0245    0.0000 N   0  0  0  0  0  0  0  0  0  0  0  0
  1  2  2  0  0  0  0
  1  8  1  0  0  0  0
  2  9  1  0  0  0  0
  3  5  2  0  0  0  0
  3  4  1  0  0  0  0
  4  7  2  0  0  0  0
  5  6  1  0  0  0  0
  6  8  2  0  0  0  0
  7  8  1  0  0  0  0
  9 10  2  0  0  0  0
  9 11  1  0  0  0  0
 10 14  1  0  0  0  0
 11 15  2  0  0  0  0
 11 12  1  0  0  0  0
 12 13  2  0  0  0  0
 13 16  1  0  0  0  0
 14 17  2  0  0  0  0
 15 18  1  0  0  0  0
 15 17  1  0  0  0  0
 16 18  2  0  0  0  0
 17 19  1  0  0  0  0
M  END
