81463
 OpenBabel03021519512D

 33 37  0  0  1  0  0  0  0  0999 V2000
   -8.9463    5.0610    0.0000 N   0  0  0  0  0  0  0  0  0  0  0  0
   -9.4098    3.6344    0.0000 H   0  0  0  0  0  0  0  0  0  0  0  0
   -6.2207    6.2745    0.0000 H   0  0  0  0  0  0  0  0  0  0  0  0
   -4.9216    4.0245    0.0000 H   0  0  0  0  0  0  0  0  0  0  0  0
   -4.9216    5.5245    0.0000 N   0  0  3  0  0  0  0  0  0  0  0  0
   -3.6226    1.7745    0.0000 H   0  0  0  0  0  0  0  0  0  0  0  0
   -6.2207    7.7745    0.0000 C   0  0  0  0  0  0  0  0  0  0  0  0
   -7.5197    7.0245    0.0000 C   0  0  0  0  0  0  0  0  0  0  0  0
   -4.9216    7.0245    0.0000 C   0  0  0  0  0  0  0  0  0  0  0  0
   -7.5197    5.5245    0.0000 C   0  0  0  0  0  0  0  0  0  0  0  0
   -8.9463    7.4880    0.0000 C   0  0  0  0  0  0  0  0  0  0  0  0
   -9.5564    8.8584    0.0000 C   0  0  0  0  0  0  0  0  0  0  0  0
  -11.0482    9.0152    0.0000 C   0  0  0  0  0  0  0  0  0  0  0  0
   -9.8280    6.2745    0.0000 C   0  0  0  0  0  0  0  0  0  0  0  0
  -11.9299    7.8016    0.0000 C   0  0  0  0  0  0  0  0  0  0  0  0
   -6.2207    4.7745    0.0000 C   0  0  1  0  0  0  0  0  0  0  0  0
  -11.3198    6.4313    0.0000 C   0  0  0  0  0  0  0  0  0  0  0  0
   -6.2207    3.2745    0.0000 C   0  0  0  0  0  0  0  0  0  0  0  0
   -4.9216    2.5245    0.0000 C   0  0  1  0  0  0  0  0  0  0  0  0
   -3.6226    4.7745    0.0000 C   0  0  0  0  0  0  0  0  0  0  0  0
   -3.6226    3.2745    0.0000 C   0  0  1  0  0  0  0  0  0  0  0  0
   -2.3236    2.5245    0.0000 C   0  0  0  0  0  0  0  0  0  0  0  0
   -2.3236    1.0245    0.0000 C   0  0  2  0  0  0  0  0  0  0  0  0
   -4.9216    1.0245    0.0000 C   0  0  1  0  0  0  0  0  0  0  0  0
   -3.6226    0.2745    0.0000 C   0  0  1  0  0  0  0  0  0  0  0  0
  -13.4217    7.9584    0.0000 O   0  0  0  0  0  0  0  0  0  0  0  0
  -14.0318    9.3287    0.0000 C   0  0  0  0  0  0  0  0  0  0  0  0
   -6.2207    0.2745    0.0000 C   0  0  0  0  0  0  0  0  0  0  0  0
   -7.5197    1.0245    0.0000 O   0  0  0  0  0  0  0  0  0  0  0  0
   -6.2207   -1.2255    0.0000 O   0  0  0  0  0  0  0  0  0  0  0  0
   -3.6226   -1.2255    0.0000 O   0  0  0  0  0  0  0  0  0  0  0  0
   -4.9216   -1.9755    0.0000 C   0  0  0  0  0  0  0  0  0  0  0  0
   -1.0245    0.2745    0.0000 O   0  0  0  0  0  0  0  0  0  0  0  0
  1 10  1  0  0  0  0
  1 14  1  0  0  0  0
  1  2  1  0  0  0  0
  5  9  1  0  0  0  0
  5 16  1  0  0  0  0
  5 20  1  0  0  0  0
  7  8  1  0  0  0  0
  7  9  1  0  0  0  0
  8 10  2  0  0  0  0
  8 11  1  0  0  0  0
 10 16  1  0  0  0  0
 11 14  2  0  0  0  0
 11 12  1  0  0  0  0
 12 13  2  0  0  0  0
 13 15  1  0  0  0  0
 14 17  1  0  0  0  0
 15 17  2  0  0  0  0
 15 26  1  0  0  0  0
 16  3  1  1  0  0  0
 16 18  1  0  0  0  0
 18 19  1  0  0  0  0
 19  4  1  6  0  0  0
 19 21  1  0  0  0  0
 19 24  1  0  0  0  0
 20 21  1  0  0  0  0
 21  6  1  6  0  0  0
 21 22  1  0  0  0  0
 22 23  1  0  0  0  0
 23 25  1  0  0  0  0
 23 33  1  1  0  0  0
 24 25  1  0  0  0  0
 24 28  1  1  0  0  0
 25 31  1  6  0  0  0
 26 27  1  0  0  0  0
 28 29  2  0  0  0  0
 28 30  1  0  0  0  0
 31 32  1  0  0  0  0
M  END
