211787
 OpenBabel03021519512D

 24 25  0  0  0  0  0  0  0  0999 V2000
   13.3654   -8.1495    0.0000 O   0  0  0  0  0  0  0  0  0  0  0  0
   10.7673   -2.1495    0.0000 O   0  0  0  0  0  0  0  0  0  0  0  0
   10.7673   -8.1495    0.0000 C   0  0  0  0  0  0  0  0  0  0  0  0
    9.4683   -8.8995    0.0000 C   0  0  0  0  0  0  0  0  0  0  0  0
   12.0664   -8.8995    0.0000 C   0  0  0  0  0  0  0  0  0  0  0  0
    9.4683  -10.3995    0.0000 C   0  0  0  0  0  0  0  0  0  0  0  0
   12.0664  -10.3995    0.0000 C   0  0  0  0  0  0  0  0  0  0  0  0
   10.7673  -11.1495    0.0000 C   0  0  0  0  0  0  0  0  0  0  0  0
    8.1692   -2.1495    0.0000 C   0  0  0  0  0  0  0  0  0  0  0  0
    9.4683   -1.3995    0.0000 C   0  0  0  0  0  0  0  0  0  0  0  0
    6.8702   -1.3995    0.0000 C   0  0  0  0  0  0  0  0  0  0  0  0
    9.4683    0.1005    0.0000 C   0  0  0  0  0  0  0  0  0  0  0  0
    6.8702    0.1005    0.0000 C   0  0  0  0  0  0  0  0  0  0  0  0
    8.1692    0.8505    0.0000 C   0  0  0  0  0  0  0  0  0  0  0  0
    8.1693  -11.1495    0.0000 N   0  3  0  0  0  0  0  0  0  0  0  0
    6.8702  -10.3995    0.0000 O   0  5  0  0  0  0  0  0  0  0  0  0
    8.1693  -12.6495    0.0000 O   0  0  0  0  0  0  0  0  0  0  0  0
    8.1692   -8.1495    0.0000 C   0  0  0  0  0  0  0  0  0  0  0  0
   13.3654   -6.6495    0.0000 C   0  0  0  0  0  0  0  0  0  0  0  0
   12.0664   -5.8995    0.0000 C   0  0  0  0  0  0  0  0  0  0  0  0
   12.0664   -4.3995    0.0000 C   0  0  0  0  0  0  0  0  0  0  0  0
   10.7673   -3.6495    0.0000 C   0  0  0  0  0  0  0  0  0  0  0  0
    5.5712    0.8505    0.0000 C   0  0  0  0  0  0  0  0  0  0  0  0
    4.2721    1.6005    0.0000 N   0  0  0  0  0  0  0  0  0  0  0  0
  1  5  1  0  0  0  0
  1 19  1  0  0  0  0
  2 10  1  0  0  0  0
  2 22  1  0  0  0  0
  3  5  2  0  0  0  0
  3  4  1  0  0  0  0
  4  6  2  0  0  0  0
  4 18  1  0  0  0  0
  5  7  1  0  0  0  0
  6  8  1  0  0  0  0
  6 15  1  0  0  0  0
  7  8  2  0  0  0  0
  9 11  2  0  0  0  0
  9 10  1  0  0  0  0
 10 12  2  0  0  0  0
 11 13  1  0  0  0  0
 12 14  1  0  0  0  0
 13 14  2  0  0  0  0
 13 23  1  0  0  0  0
 15 16  1  0  0  0  0
 15 17  2  0  0  0  0
 19 20  1  0  0  0  0
 20 21  1  0  0  0  0
 21 22  1  0  0  0  0
 23 24  3  0  0  0  0
M  CHG  2  15   1  16  -1
M  END
