18883
 OpenBabel03021519512D

 25 28  0  0  0  0  0  0  0  0999 V2000
    9.0252   -5.1321    0.0000 N   0  0  0  0  0  0  0  0  0  0  0  0
    9.0252   -8.1321    0.0000 S   0  0  0  0  0  0  0  0  0  0  0  0
   12.9223   -2.8821    0.0000 C   0  0  0  0  0  0  0  0  0  0  0  0
   11.6233   -3.6321    0.0000 C   0  0  0  0  0  0  0  0  0  0  0  0
   14.2214   -3.6321    0.0000 C   0  0  0  0  0  0  0  0  0  0  0  0
   14.2214   -5.1321    0.0000 C   0  0  0  0  0  0  0  0  0  0  0  0
   11.6233   -5.1321    0.0000 C   0  0  0  0  0  0  0  0  0  0  0  0
   12.9224   -5.8821    0.0000 C   0  0  0  0  0  0  0  0  0  0  0  0
   10.3243   -5.8821    0.0000 C   0  0  0  0  0  0  0  0  0  0  0  0
   12.9224   -7.3821    0.0000 C   0  0  0  0  0  0  0  0  0  0  0  0
   10.3243   -7.3821    0.0000 C   0  0  0  0  0  0  0  0  0  0  0  0
   11.6233   -8.1321    0.0000 C   0  0  0  0  0  0  0  0  0  0  0  0
    6.4272   -5.1321    0.0000 C   0  0  0  0  0  0  0  0  0  0  0  0
    5.1281   -5.8821    0.0000 C   0  0  0  0  0  0  0  0  0  0  0  0
    7.7262   -5.8821    0.0000 C   0  0  0  0  0  0  0  0  0  0  0  0
    7.7262   -7.3821    0.0000 C   0  0  0  0  0  0  0  0  0  0  0  0
    5.1281   -7.3821    0.0000 C   0  0  0  0  0  0  0  0  0  0  0  0
    6.4272   -8.1321    0.0000 C   0  0  0  0  0  0  0  0  0  0  0  0
    7.7262   -1.3821    0.0000 N   0  0  0  0  0  0  0  0  0  0  0  0
    6.4272   -0.6321    0.0000 C   0  0  0  0  0  0  0  0  0  0  0  0
    9.0252   -0.6321    0.0000 C   0  0  0  0  0  0  0  0  0  0  0  0
    9.0252    0.8679    0.0000 C   0  0  0  0  0  0  0  0  0  0  0  0
    6.4271    0.8679    0.0000 C   0  0  0  0  0  0  0  0  0  0  0  0
    7.7262   -2.8821    0.0000 C   0  0  0  0  0  0  0  0  0  0  0  0
    9.0252   -3.6321    0.0000 C   0  0  0  0  0  0  0  0  0  0  0  0
  1  9  1  0  0  0  0
  1 15  1  0  0  0  0
  1 25  1  0  0  0  0
  2 11  1  0  0  0  0
  2 16  1  0  0  0  0
  3  4  2  0  0  0  0
  3  5  1  0  0  0  0
  4  7  1  0  0  0  0
  5  6  2  0  0  0  0
  6  8  1  0  0  0  0
  7  8  2  0  0  0  0
  7  9  1  0  0  0  0
  8 10  1  0  0  0  0
  9 11  2  0  0  0  0
 10 12  2  0  0  0  0
 11 12  1  0  0  0  0
 13 14  2  0  0  0  0
 13 15  1  0  0  0  0
 14 17  1  0  0  0  0
 15 16  2  0  0  0  0
 16 18  1  0  0  0  0
 17 18  2  0  0  0  0
 19 20  1  0  0  0  0
 19 21  1  0  0  0  0
 19 24  1  0  0  0  0
 20 23  1  0  0  0  0
 21 22  1  0  0  0  0
 24 25  1  0  0  0  0
M  END
