65238
 OpenBabel03021519512D

 30 32  0  0  1  0  0  0  0  0999 V2000
   -3.2266   -2.7289    0.0000 C   0  0  0  0  0  0  0  0  0  0  0  0
   -1.9276   -3.4789    0.0000 C   0  0  0  0  0  0  0  0  0  0  0  0
   -4.5256   -3.4789    0.0000 C   0  0  0  0  0  0  0  0  0  0  0  0
   -1.9276   -4.9789    0.0000 C   0  0  0  0  0  0  0  0  0  0  0  0
   -4.5256   -4.9789    0.0000 C   0  0  0  0  0  0  0  0  0  0  0  0
   -3.2266   -5.7289    0.0000 C   0  0  0  0  0  0  0  0  0  0  0  0
   -5.8247   -5.7289    0.0000 C   0  0  3  0  0  0  0  0  0  0  0  0
   -7.1237   -4.9789    0.0000 C   0  0  0  0  0  0  0  0  0  0  0  0
   -8.4227   -5.7289    0.0000 C   0  0  0  0  0  0  0  0  0  0  0  0
   -3.2266   -7.2289    0.0000 C   0  0  0  0  0  0  0  0  0  0  0  0
   -5.8247   -7.2289    0.0000 C   0  0  3  0  0  0  0  0  0  0  0  0
   -8.4227   -7.2289    0.0000 C   0  0  0  0  0  0  0  0  0  0  0  0
   -4.5256   -7.9789    0.0000 C   0  0  0  0  0  0  0  0  0  0  0  0
   -7.1237   -7.9789    0.0000 C   0  0  3  0  0  0  0  0  0  0  0  0
   -1.1175  -10.0414    0.0000 C   0  0  0  0  0  0  0  0  0  0  0  0
   -1.1175  -11.5414    0.0000 C   0  0  0  0  0  0  0  0  0  0  0  0
   -2.4166  -12.2915    0.0000 C   0  0  0  0  0  0  0  0  0  0  0  0
   -3.7156  -11.5415    0.0000 C   0  0  0  0  0  0  0  0  0  0  0  0
   -3.7156  -10.0415    0.0000 C   0  0  0  0  0  0  0  0  0  0  0  0
   -2.4166   -9.2915    0.0000 C   0  0  0  0  0  0  0  0  0  0  0  0
    0.1815   -9.2914    0.0000 C   0  0  0  0  0  0  0  0  0  0  0  0
    0.1815   -7.7914    0.0000 O   0  0  0  0  0  0  0  0  0  0  0  0
    1.4805  -10.0414    0.0000 O   0  0  0  0  0  0  0  0  0  0  0  0
   -8.0879   -9.1280    0.0000 C   0  0  0  0  0  0  0  0  0  0  0  0
   -5.8247   -4.2289    0.0000 C   0  0  0  0  0  0  0  0  0  0  0  0
   -6.1595   -9.1280    0.0000 C   0  0  0  0  0  0  0  0  0  0  0  0
   -4.6823   -8.8675    0.0000 N   0  0  0  0  0  0  0  0  0  0  0  0
   -0.6285   -2.7289    0.0000 C   0  0  0  0  0  0  0  0  0  0  0  0
    0.6705   -3.4789    0.0000 C   0  0  0  0  0  0  0  0  0  0  0  0
   -0.6285   -1.2289    0.0000 C   0  0  0  0  0  0  0  0  0  0  0  0
  1  3  2  0  0  0  0
  1  2  1  0  0  0  0
  2  4  2  0  0  0  0
  2 28  1  0  0  0  0
  3  5  1  0  0  0  0
  4  6  1  0  0  0  0
  5  6  2  0  0  0  0
  5  7  1  0  0  0  0
  6 10  1  0  0  0  0
  7  8  1  0  0  0  0
  7 11  1  0  0  0  0
  7 25  1  0  0  0  0
  8  9  1  0  0  0  0
  9 12  1  0  0  0  0
 10 13  1  0  0  0  0
 11 13  1  0  0  0  0
 11 14  1  0  0  0  0
 12 14  1  0  0  0  0
 14 24  1  0  0  0  0
 14 26  1  0  0  0  0
 15 16  2  0  0  0  0
 15 20  1  0  0  0  0
 15 21  1  0  0  0  0
 16 17  1  0  0  0  0
 17 18  2  0  0  0  0
 18 19  1  0  0  0  0
 19 20  2  0  0  0  0
 21 22  2  0  0  0  0
 21 23  1  0  0  0  0
 26 27  1  0  0  0  0
 28 29  1  0  0  0  0
 28 30  1  0  0  0  0
M  END
