41400
 OpenBabel03021519512D

 32 34  0  0  0  0  0  0  0  0999 V2000
    8.5442    7.5000    0.0000 As  0  0  3  0  0  0  0  0  0  0  0  0
    7.7942    6.2010    0.0000 O   0  0  0  0  0  0  0  0  0  0  0  0
   10.7942   11.3971    0.0000 C   0  0  0  0  0  0  0  0  0  0  0  0
    9.2942   11.3971    0.0000 C   0  0  0  0  0  0  0  0  0  0  0  0
   11.5442   10.0981    0.0000 C   0  0  0  0  0  0  0  0  0  0  0  0
   10.7942    8.7990    0.0000 C   0  0  0  0  0  0  0  0  0  0  0  0
    8.5442   10.0981    0.0000 C   0  0  0  0  0  0  0  0  0  0  0  0
    9.2942    8.7990    0.0000 C   0  0  0  0  0  0  0  0  0  0  0  0
   11.1423    7.5000    0.0000 C   0  0  0  0  0  0  0  0  0  0  0  0
   12.4413    6.7500    0.0000 C   0  0  0  0  0  0  0  0  0  0  0  0
    9.8433    6.7500    0.0000 C   0  0  0  0  0  0  0  0  0  0  0  0
   12.4413    5.2500    0.0000 C   0  0  0  0  0  0  0  0  0  0  0  0
    9.8433    5.2500    0.0000 C   0  0  0  0  0  0  0  0  0  0  0  0
   11.1423    4.5000    0.0000 C   0  0  0  0  0  0  0  0  0  0  0  0
    7.2452    9.7500    0.0000 C   0  0  0  0  0  0  0  0  0  0  0  0
    7.2452    8.2500    0.0000 C   0  0  0  0  0  0  0  0  0  0  0  0
    5.9462   10.5000    0.0000 C   0  0  0  0  0  0  0  0  0  0  0  0
    5.9462    7.5000    0.0000 C   0  0  0  0  0  0  0  0  0  0  0  0
    4.6471    9.7500    0.0000 C   0  0  0  0  0  0  0  0  0  0  0  0
    4.6471    8.2500    0.0000 C   0  0  0  0  0  0  0  0  0  0  0  0
    3.3481    7.5000    0.0000 N   0  0  0  0  0  0  0  0  0  0  0  0
    2.0490    8.2500    0.0000 C   0  0  0  0  0  0  0  0  0  0  0  0
    2.0490    9.7500    0.0000 O   0  0  0  0  0  0  0  0  0  0  0  0
    0.7500    7.5000    0.0000 C   0  0  0  0  0  0  0  0  0  0  0  0
   13.0442   10.0981    0.0000 N   0  0  0  0  0  0  0  0  0  0  0  0
   13.7942    8.7990    0.0000 C   0  0  0  0  0  0  0  0  0  0  0  0
   15.2942    8.7990    0.0000 O   0  0  0  0  0  0  0  0  0  0  0  0
   13.0442    7.5000    0.0000 C   0  0  0  0  0  0  0  0  0  0  0  0
   11.1423    3.0000    0.0000 N   0  0  0  0  0  0  0  0  0  0  0  0
    9.8433    2.2500    0.0000 C   0  0  0  0  0  0  0  0  0  0  0  0
    8.5442    3.0000    0.0000 O   0  0  0  0  0  0  0  0  0  0  0  0
    9.8433    0.7500    0.0000 C   0  0  0  0  0  0  0  0  0  0  0  0
  1  2  2  0  0  0  0
  1  8  1  0  0  0  0
  1 11  1  0  0  0  0
  1 16  1  0  0  0  0
  3  5  2  0  0  0  0
  3  4  1  0  0  0  0
  4  7  2  0  0  0  0
  5  6  1  0  0  0  0
  5 25  1  0  0  0  0
  6  8  2  0  0  0  0
  7  8  1  0  0  0  0
  9 10  2  0  0  0  0
  9 11  1  0  0  0  0
 10 12  1  0  0  0  0
 11 13  2  0  0  0  0
 12 14  2  0  0  0  0
 13 14  1  0  0  0  0
 14 29  1  0  0  0  0
 15 17  2  0  0  0  0
 15 16  1  0  0  0  0
 16 18  2  0  0  0  0
 17 19  1  0  0  0  0
 18 20  1  0  0  0  0
 19 20  2  0  0  0  0
 20 21  1  0  0  0  0
 21 22  1  0  0  0  0
 22 23  2  0  0  0  0
 22 24  1  0  0  0  0
 25 26  1  0  0  0  0
 26 27  2  0  0  0  0
 26 28  1  0  0  0  0
 29 30  1  0  0  0  0
 30 31  2  0  0  0  0
 30 32  1  0  0  0  0
M  END
