308814
 OpenBabel03021519512D

 22 25  0  0  0  0  0  0  0  0999 V2000
    2.7275   -2.7758    0.0000 C   0  0  0  0  0  0  0  0  0  0  0  0
    1.4285   -3.5258    0.0000 C   0  0  0  0  0  0  0  0  0  0  0  0
    4.0265   -3.5258    0.0000 C   0  0  0  0  0  0  0  0  0  0  0  0
    1.4285   -5.0258    0.0000 C   0  0  0  0  0  0  0  0  0  0  0  0
    2.7275   -5.7758    0.0000 C   0  0  0  0  0  0  0  0  0  0  0  0
    2.7275   -7.2758    0.0000 C   0  0  0  0  0  0  0  0  0  0  0  0
    0.1294   -7.2758    0.0000 C   0  0  0  0  0  0  0  0  0  0  0  0
   -2.4686   -7.2758    0.0000 C   0  0  0  0  0  0  0  0  0  0  0  0
    4.0266   -8.0258    0.0000 C   0  0  0  0  0  0  0  0  0  0  0  0
    1.4285   -8.0258    0.0000 C   0  0  0  0  0  0  0  0  0  0  0  0
   -1.1696   -8.0258    0.0000 C   0  0  0  0  0  0  0  0  0  0  0  0
   -3.7677   -8.0258    0.0000 C   0  0  0  0  0  0  0  0  0  0  0  0
    4.0266   -9.5258    0.0000 C   0  0  0  0  0  0  0  0  0  0  0  0
    1.4285   -9.5258    0.0000 C   0  0  0  0  0  0  0  0  0  0  0  0
   -1.1696   -9.5258    0.0000 C   0  0  0  0  0  0  0  0  0  0  0  0
   -3.7677   -9.5258    0.0000 C   0  0  0  0  0  0  0  0  0  0  0  0
    2.7275  -10.2758    0.0000 C   0  0  0  0  0  0  0  0  0  0  0  0
    0.1295  -10.2758    0.0000 C   0  0  0  0  0  0  0  0  0  0  0  0
   -2.4686  -10.2758    0.0000 C   0  0  0  0  0  0  0  0  0  0  0  0
    0.1295  -11.7758    0.0000 O   0  0  0  0  0  0  0  0  0  0  0  0
    4.0266   -5.0258    0.0000 N   0  0  0  0  0  0  0  0  0  0  0  0
    0.1294   -5.7758    0.0000 C   0  0  0  0  0  0  0  0  0  0  0  0
  1  2  1  0  0  0  0
  1  3  2  0  0  0  0
  2  4  2  0  0  0  0
  3 21  1  0  0  0  0
  4  5  1  0  0  0  0
  4 22  1  0  0  0  0
  5 21  2  0  0  0  0
  6  9  2  0  0  0  0
  6 10  1  0  0  0  0
  7 10  1  0  0  0  0
  7 11  1  0  0  0  0
  7 22  2  0  0  0  0
  8 12  2  0  0  0  0
  8 11  1  0  0  0  0
  9 13  1  0  0  0  0
 10 14  2  0  0  0  0
 11 15  2  0  0  0  0
 12 16  1  0  0  0  0
 13 17  2  0  0  0  0
 14 17  1  0  0  0  0
 14 18  1  0  0  0  0
 15 18  1  0  0  0  0
 15 19  1  0  0  0  0
 16 19  2  0  0  0  0
 18 20  2  0  0  0  0
M  END
