263220
 OpenBabel03021519512D

 26 28  0  0  1  0  0  0  0  0999 V2000
    1.2990    3.5490    0.0000 O   0  0  0  0  0  0  0  0  0  0  0  0
    2.0490    2.2500    0.0000 S   0  0  0  0  0  0  0  0  0  0  0  0
    2.7990    0.9510    0.0000 O   0  0  0  0  0  0  0  0  0  0  0  0
    2.0490    5.2500    0.0000 Cl  0  0  0  0  0  0  0  0  0  0  0  0
    3.3481    4.5000    0.0000 C   0  0  0  0  0  0  0  0  0  0  0  0
    3.3481    3.0000    0.0000 C   0  0  0  0  0  0  0  0  0  0  0  0
    4.6471    5.2500    0.0000 C   0  0  0  0  0  0  0  0  0  0  0  0
    4.6471    2.2500    0.0000 C   0  0  0  0  0  0  0  0  0  0  0  0
    5.9461    3.0000    0.0000 C   0  0  0  0  0  0  0  0  0  0  0  0
    5.9461    4.5000    0.0000 C   0  0  0  0  0  0  0  0  0  0  0  0
    7.2452    3.7500    0.0000 O   0  0  0  0  0  0  0  0  0  0  0  0
    7.2452    5.2500    0.0000 N   0  0  0  0  0  0  0  0  0  0  0  0
    7.2452    2.2500    0.0000 S   0  0  0  0  0  0  0  0  0  0  0  0
    7.2452    6.7500    0.0000 H   0  0  0  0  0  0  0  0  0  0  0  0
    7.2452    0.7500    0.0000 O   0  0  0  0  0  0  0  0  0  0  0  0
    8.5442    4.5000    0.0000 C   0  0  3  0  0  0  0  0  0  0  0  0
    8.5442    3.0000    0.0000 N   0  0  0  0  0  0  0  0  0  0  0  0
    9.8433    2.2500    0.0000 H   0  0  0  0  0  0  0  0  0  0  0  0
    0.7500    1.5000    0.0000 N   0  0  0  0  0  0  0  0  0  0  0  0
    9.8433    5.2500    0.0000 C   0  0  0  0  0  0  0  0  0  0  0  0
   11.1423    4.5000    0.0000 C   0  0  0  0  0  0  0  0  0  0  0  0
   12.4413    5.2500    0.0000 C   0  0  0  0  0  0  0  0  0  0  0  0
   13.7404    4.5000    0.0000 C   0  0  0  0  0  0  0  0  0  0  0  0
   13.7404    3.0000    0.0000 C   0  0  0  0  0  0  0  0  0  0  0  0
   12.4413    2.2500    0.0000 C   0  0  0  0  0  0  0  0  0  0  0  0
   11.1423    3.0000    0.0000 C   0  0  0  0  0  0  0  0  0  0  0  0
  1  2  2  0  0  0  0
  2  6  1  0  0  0  0
  2  3  2  0  0  0  0
  2 19  1  0  0  0  0
  4  5  1  0  0  0  0
  5  7  2  0  0  0  0
  5  6  1  0  0  0  0
  6  8  2  0  0  0  0
  7 10  1  0  0  0  0
  8  9  1  0  0  0  0
  9 10  2  0  0  0  0
  9 13  1  0  0  0  0
 10 12  1  0  0  0  0
 11 13  2  0  0  0  0
 12 14  1  0  0  0  0
 12 16  1  0  0  0  0
 13 17  1  0  0  0  0
 13 15  2  0  0  0  0
 16 17  1  0  0  0  0
 16 20  1  0  0  0  0
 17 18  1  0  0  0  0
 20 21  1  0  0  0  0
 21 22  2  0  0  0  0
 21 26  1  0  0  0  0
 22 23  1  0  0  0  0
 23 24  2  0  0  0  0
 24 25  1  0  0  0  0
 25 26  2  0  0  0  0
M  END
