64952
 OpenBabel03021519512D

 11 12  0  0  0  0  0  0  0  0999 V2000
   -2.7141   -6.0766    0.0000 N   0  0  0  0  0  0  0  0  0  0  0  0
   -2.1740   -3.5353    0.0000 N   0  0  0  0  0  0  0  0  0  0  0  0
   -0.7834   -7.8151    0.0000 Cl  0  0  0  0  0  0  0  0  0  0  0  0
    0.5068   -1.4655    0.0000 H   0  0  0  0  0  0  0  0  0  0  0  0
    0.5068   -2.9655    0.0000 N   0  0  0  0  0  0  0  0  0  0  0  0
    1.7203   -3.8472    0.0000 C   0  0  0  0  0  0  0  0  0  0  0  0
    1.2568   -5.2738    0.0000 C   0  0  0  0  0  0  0  0  0  0  0  0
   -0.2432   -5.2738    0.0000 C   0  0  0  0  0  0  0  0  0  0  0  0
   -0.7068   -3.8472    0.0000 C   0  0  0  0  0  0  0  0  0  0  0  0
   -1.2469   -6.3885    0.0000 C   0  0  0  0  0  0  0  0  0  0  0  0
   -3.1777   -4.6501    0.0000 C   0  0  0  0  0  0  0  0  0  0  0  0
  1 10  2  0  0  0  0
  1 11  1  0  0  0  0
  2 11  2  0  0  0  0
  2  9  1  0  0  0  0
  3 10  1  0  0  0  0
  4  5  1  0  0  0  0
  5  6  1  0  0  0  0
  5  9  1  0  0  0  0
  6  7  2  0  0  0  0
  7  8  1  0  0  0  0
  8  9  2  0  0  0  0
  8 10  1  0  0  0  0
M  END
