201989
 OpenBabel03021519512D

 23 25  0  0  0  0  0  0  0  0999 V2000
    1.5000    4.6471    0.0000 C   0  0  0  0  0  0  0  0  0  0  0  0
    0.7500    5.9461    0.0000 C   0  0  0  0  0  0  0  0  0  0  0  0
   -3.0000    7.2452    0.0000 C   0  0  0  0  0  0  0  0  0  0  0  0
   -3.0000    4.6471    0.0000 C   0  0  0  0  0  0  0  0  0  0  0  0
   -3.7500    3.3481    0.0000 C   0  0  0  0  0  0  0  0  0  0  0  0
   -5.2500    3.3481    0.0000 C   0  0  0  0  0  0  0  0  0  0  0  0
    3.0000    4.6471    0.0000 C   0  0  0  0  0  0  0  0  0  0  0  0
    1.5000    7.2452    0.0000 C   0  0  0  0  0  0  0  0  0  0  0  0
   -3.0000    2.0490    0.0000 C   0  0  0  0  0  0  0  0  0  0  0  0
   -6.0000    2.0491    0.0000 C   0  0  0  0  0  0  0  0  0  0  0  0
    3.7500    5.9461    0.0000 C   0  0  0  0  0  0  0  0  0  0  0  0
    3.0000    7.2452    0.0000 C   0  0  0  0  0  0  0  0  0  0  0  0
   -0.7500    5.9462    0.0000 C   0  0  0  0  0  0  0  0  0  0  0  0
   -3.7500    0.7500    0.0000 C   0  0  0  0  0  0  0  0  0  0  0  0
   -5.2500    0.7500    0.0000 C   0  0  0  0  0  0  0  0  0  0  0  0
   -1.5000    4.6471    0.0000 N   0  0  0  0  0  0  0  0  0  0  0  0
   -3.7500    5.9462    0.0000 S   0  0  0  0  0  0  0  0  0  0  0  0
   -1.5000    7.2452    0.0000 N   0  0  0  0  0  0  0  0  0  0  0  0
   -3.7500    8.5442    0.0000 S   0  0  0  0  0  0  0  0  0  0  0  0
   -1.5000    2.0490    0.0000 C   0  0  0  0  0  0  0  0  0  0  0  0
   -0.7500    3.3481    0.0000 C   0  0  0  0  0  0  0  0  0  0  0  0
   -0.7500    8.5442    0.0000 C   0  0  0  0  0  0  0  0  0  0  0  0
    0.7500    8.5442    0.0000 C   0  0  0  0  0  0  0  0  0  0  0  0
  1  2  1  0  0  0  0
  1  7  2  0  0  0  0
  2  8  2  0  0  0  0
  3 19  2  0  0  0  0
  3 17  1  0  0  0  0
  3 18  1  0  0  0  0
  4 17  1  0  0  0  0
  4 16  1  0  0  0  0
  5  6  1  0  0  0  0
  5  9  2  0  0  0  0
  6 10  2  0  0  0  0
  7 11  1  0  0  0  0
  8 23  1  0  0  0  0
  8 12  1  0  0  0  0
  9 14  1  0  0  0  0
  9 20  1  0  0  0  0
 10 15  1  0  0  0  0
 11 12  2  0  0  0  0
 13 18  1  0  0  0  0
 13 16  1  0  0  0  0
 14 15  2  0  0  0  0
 16 21  1  0  0  0  0
 18 22  1  0  0  0  0
 20 21  1  0  0  0  0
 22 23  1  0  0  0  0
M  END
