108753
 OpenBabel03021519512D

 17 18  0  0  0  0  0  0  0  0999 V2000
   -5.2628    6.1154    0.0000 N   0  0  0  0  0  0  0  0  0  0  0  0
   -5.2628    7.6154    0.0000 H   0  0  0  0  0  0  0  0  0  0  0  0
   -7.8608    6.1154    0.0000 C   0  0  0  0  0  0  0  0  0  0  0  0
   -6.5618    5.3654    0.0000 C   0  0  0  0  0  0  0  0  0  0  0  0
   -9.1599    5.3654    0.0000 C   0  0  0  0  0  0  0  0  0  0  0  0
   -6.5618    3.8654    0.0000 C   0  0  0  0  0  0  0  0  0  0  0  0
   -9.1599    3.8654    0.0000 C   0  0  0  0  0  0  0  0  0  0  0  0
   -5.2628    3.1154    0.0000 C   0  0  0  0  0  0  0  0  0  0  0  0
   -3.9637    5.3654    0.0000 C   0  0  0  0  0  0  0  0  0  0  0  0
   -3.9637    3.8654    0.0000 C   0  0  0  0  0  0  0  0  0  0  0  0
   -7.8608    3.1154    0.0000 C   0  0  0  0  0  0  0  0  0  0  0  0
  -10.4589    3.1154    0.0000 C   0  0  0  0  0  0  0  0  0  0  0  0
   -5.2628    1.6154    0.0000 C   0  0  0  0  0  0  0  0  0  0  0  0
   -6.5618    0.8654    0.0000 C   0  0  0  0  0  0  0  0  0  0  0  0
   -7.8608    0.1153    0.0000 N   0  0  0  0  0  0  0  0  0  0  0  0
   -3.9637    0.8654    0.0000 C   0  0  0  0  0  0  0  0  0  0  0  0
   -2.6647    0.1154    0.0000 N   0  0  0  0  0  0  0  0  0  0  0  0
  1  4  1  0  0  0  0
  1  9  1  0  0  0  0
  1  2  1  0  0  0  0
  3  5  2  0  0  0  0
  3  4  1  0  0  0  0
  4  6  2  0  0  0  0
  5  7  1  0  0  0  0
  6  8  1  0  0  0  0
  6 11  1  0  0  0  0
  7 11  2  0  0  0  0
  7 12  1  0  0  0  0
  8 10  1  0  0  0  0
  8 13  2  0  0  0  0
  9 10  1  0  0  0  0
 13 14  1  0  0  0  0
 13 16  1  0  0  0  0
 14 15  3  0  0  0  0
 16 17  3  0  0  0  0
M  END
