331972
 OpenBabel03021519512D

 19 20  0  0  0  0  0  0  0  0999 V2000
    0.2745    6.2207    0.0000 C   0  0  0  0  0  0  0  0  0  0  0  0
    1.0245    4.9216    0.0000 C   0  0  0  0  0  0  0  0  0  0  0  0
    1.0245    7.5197    0.0000 C   0  0  0  0  0  0  0  0  0  0  0  0
    2.5245    4.9216    0.0000 C   0  0  0  0  0  0  0  0  0  0  0  0
    2.5245    7.5197    0.0000 C   0  0  0  0  0  0  0  0  0  0  0  0
    3.2745    6.2207    0.0000 C   0  0  0  0  0  0  0  0  0  0  0  0
    5.5245    7.5197    0.0000 C   0  0  0  0  0  0  0  0  0  0  0  0
    4.7745    8.8187    0.0000 O   0  0  0  0  0  0  0  0  0  0  0  0
    7.0245    7.5197    0.0000 N   0  0  0  0  0  0  0  0  0  0  0  0
    7.7745    8.8187    0.0000 C   0  0  0  0  0  0  0  0  0  0  0  0
    7.7745    6.2207    0.0000 C   0  0  0  0  0  0  0  0  0  0  0  0
    9.2745    8.8187    0.0000 C   0  0  0  0  0  0  0  0  0  0  0  0
    9.2745    6.2207    0.0000 C   0  0  0  0  0  0  0  0  0  0  0  0
   10.0245    7.5197    0.0000 C   0  0  0  0  0  0  0  0  0  0  0  0
   -1.2255    6.2207    0.0000 C   0  0  0  0  0  0  0  0  0  0  0  0
    0.2745    3.6226    0.0000 N   0  3  0  0  0  0  0  0  0  0  0  0
   -1.2255    3.6226    0.0000 O   0  5  0  0  0  0  0  0  0  0  0  0
    1.0245    2.3236    0.0000 O   0  0  0  0  0  0  0  0  0  0  0  0
    4.7745    6.2207    0.0000 N   0  0  0  0  0  0  0  0  0  0  0  0
  1  3  2  0  0  0  0
  1  2  1  0  0  0  0
  1 15  1  0  0  0  0
  2  4  2  0  0  0  0
  2 16  1  0  0  0  0
  3  5  1  0  0  0  0
  4  6  1  0  0  0  0
  5  6  2  0  0  0  0
  6 19  1  0  0  0  0
  7  8  2  0  0  0  0
  7  9  1  0  0  0  0
  7 19  1  0  0  0  0
  9 10  1  0  0  0  0
  9 11  1  0  0  0  0
 10 12  1  0  0  0  0
 11 13  1  0  0  0  0
 12 14  1  0  0  0  0
 13 14  1  0  0  0  0
 16 17  1  0  0  0  0
 16 18  2  0  0  0  0
M  CHG  2  16   1  17  -1
M  END
