321484
 OpenBabel03021519512D

 11 12  0  0  0  0  0  0  0  0999 V2000
    1.0289    3.1875    0.0000 C   0  0  0  0  0  0  0  0  0  0  0  0
    2.2424    4.0692    0.0000 S   0  0  0  0  0  0  0  0  0  0  0  0
    1.4924    1.7609    0.0000 N   0  0  0  0  0  0  0  0  0  0  0  0
    3.4560    3.1875    0.0000 C   0  0  0  0  0  0  0  0  0  0  0  0
    2.9924    1.7609    0.0000 N   0  0  0  0  0  0  0  0  0  0  0  0
    4.8825    3.6510    0.0000 N   0  0  0  0  0  0  0  0  0  0  0  0
    6.0961    2.7693    0.0000 C   0  0  0  0  0  0  0  0  0  0  0  0
    5.3461    5.0776    0.0000 C   0  0  0  0  0  0  0  0  0  0  0  0
    6.8461    5.0776    0.0000 C   0  0  0  0  0  0  0  0  0  0  0  0
    7.3096    3.6510    0.0000 C   0  0  0  0  0  0  0  0  0  0  0  0
   -0.3977    3.6510    0.0000 C   0  0  0  0  0  0  0  0  0  0  0  0
  1  2  1  0  0  0  0
  1  3  2  0  0  0  0
  1 11  1  0  0  0  0
  2  4  1  0  0  0  0
  3  5  1  0  0  0  0
  4  6  1  0  0  0  0
  4  5  2  0  0  0  0
  6  8  1  0  0  0  0
  6  7  1  0  0  0  0
  7 10  2  0  0  0  0
  8  9  2  0  0  0  0
  9 10  1  0  0  0  0
M  END
