61610
 OpenBabel03021519512D

 42 48  0  0  0  0  0  0  0  0999 V2000
  -23.4554   -9.8202    0.0000 C   0  0  0  0  0  0  0  0  0  0  0  0
  -22.1563  -10.5702    0.0000 C   0  0  0  0  0  0  0  0  0  0  0  0
  -20.8573   -9.8202    0.0000 C   0  0  0  0  0  0  0  0  0  0  0  0
  -20.8573   -8.3202    0.0000 C   0  0  0  0  0  0  0  0  0  0  0  0
  -22.1563   -7.5702    0.0000 C   0  0  0  0  0  0  0  0  0  0  0  0
  -23.4554   -8.3202    0.0000 C   0  0  0  0  0  0  0  0  0  0  0  0
  -20.3527   -5.9462    0.0000 C   0  0  0  0  0  0  0  0  0  0  0  0
  -21.8445   -6.1030    0.0000 N   0  0  0  0  0  0  0  0  0  0  0  0
  -19.6027   -4.6471    0.0000 C   0  0  0  0  0  0  0  0  0  0  0  0
  -18.1027   -4.6471    0.0000 C   0  0  0  0  0  0  0  0  0  0  0  0
  -17.3527   -3.3481    0.0000 C   0  0  0  0  0  0  0  0  0  0  0  0
  -18.1027   -2.0491    0.0000 C   0  0  0  0  0  0  0  0  0  0  0  0
  -19.6027   -2.0491    0.0000 C   0  0  0  0  0  0  0  0  0  0  0  0
  -20.3527   -3.3481    0.0000 C   0  0  0  0  0  0  0  0  0  0  0  0
  -15.1027   -2.0491    0.0000 C   0  0  0  0  0  0  0  0  0  0  0  0
  -15.8527   -0.7500    0.0000 O   0  0  0  0  0  0  0  0  0  0  0  0
  -13.6027   -2.0491    0.0000 C   0  0  0  0  0  0  0  0  0  0  0  0
  -12.8527   -3.3481    0.0000 C   0  0  0  0  0  0  0  0  0  0  0  0
  -11.3527   -3.3481    0.0000 C   0  0  0  0  0  0  0  0  0  0  0  0
  -10.6027   -2.0491    0.0000 C   0  0  0  0  0  0  0  0  0  0  0  0
  -11.3527   -0.7500    0.0000 C   0  0  0  0  0  0  0  0  0  0  0  0
  -12.8527   -0.7500    0.0000 C   0  0  0  0  0  0  0  0  0  0  0  0
   -0.7500   -9.8202    0.0000 C   0  0  0  0  0  0  0  0  0  0  0  0
   -2.0490  -10.5702    0.0000 C   0  0  0  0  0  0  0  0  0  0  0  0
   -3.3481   -9.8202    0.0000 C   0  0  0  0  0  0  0  0  0  0  0  0
   -3.3481   -8.3202    0.0000 C   0  0  0  0  0  0  0  0  0  0  0  0
   -2.0490   -7.5702    0.0000 C   0  0  0  0  0  0  0  0  0  0  0  0
   -0.7500   -8.3202    0.0000 C   0  0  0  0  0  0  0  0  0  0  0  0
   -3.8527   -5.9462    0.0000 C   0  0  0  0  0  0  0  0  0  0  0  0
   -2.3609   -6.1030    0.0000 N   0  0  0  0  0  0  0  0  0  0  0  0
   -4.6027   -4.6471    0.0000 C   0  0  0  0  0  0  0  0  0  0  0  0
   -6.1027   -4.6471    0.0000 C   0  0  0  0  0  0  0  0  0  0  0  0
   -6.8527   -3.3481    0.0000 C   0  0  0  0  0  0  0  0  0  0  0  0
   -6.1027   -2.0491    0.0000 C   0  0  0  0  0  0  0  0  0  0  0  0
   -4.6027   -2.0491    0.0000 C   0  0  0  0  0  0  0  0  0  0  0  0
   -3.8527   -3.3481    0.0000 C   0  0  0  0  0  0  0  0  0  0  0  0
   -9.1027   -2.0491    0.0000 C   0  0  0  0  0  0  0  0  0  0  0  0
   -8.3527   -0.7500    0.0000 O   0  0  0  0  0  0  0  0  0  0  0  0
  -19.7426   -7.3165    0.0000 N   0  0  0  0  0  0  0  0  0  0  0  0
   -4.4628   -7.3165    0.0000 N   0  0  0  0  0  0  0  0  0  0  0  0
   -8.3527   -3.3481    0.0000 N   0  0  0  0  0  0  0  0  0  0  0  0
  -15.8527   -3.3481    0.0000 N   0  0  0  0  0  0  0  0  0  0  0  0
  1  2  2  0  0  0  0
  1  6  1  0  0  0  0
  2  3  1  0  0  0  0
  3  4  2  0  0  0  0
  4  5  1  0  0  0  0
  4 39  1  0  0  0  0
  5  6  2  0  0  0  0
  5  8  1  0  0  0  0
  7  8  2  0  0  0  0
  7  9  1  0  0  0  0
  7 39  1  0  0  0  0
  9 10  2  0  0  0  0
  9 14  1  0  0  0  0
 10 11  1  0  0  0  0
 11 12  2  0  0  0  0
 11 42  1  0  0  0  0
 12 13  1  0  0  0  0
 13 14  2  0  0  0  0
 15 16  2  0  0  0  0
 15 17  1  0  0  0  0
 15 42  1  0  0  0  0
 17 18  2  0  0  0  0
 17 22  1  0  0  0  0
 18 19  1  0  0  0  0
 19 20  2  0  0  0  0
 20 21  1  0  0  0  0
 20 37  1  0  0  0  0
 21 22  2  0  0  0  0
 23 24  2  0  0  0  0
 23 28  1  0  0  0  0
 24 25  1  0  0  0  0
 25 26  2  0  0  0  0
 26 27  1  0  0  0  0
 26 40  1  0  0  0  0
 27 28  2  0  0  0  0
 27 30  1  0  0  0  0
 29 30  2  0  0  0  0
 29 31  1  0  0  0  0
 29 40  1  0  0  0  0
 31 32  2  0  0  0  0
 31 36  1  0  0  0  0
 32 33  1  0  0  0  0
 33 34  2  0  0  0  0
 33 41  1  0  0  0  0
 34 35  1  0  0  0  0
 35 36  2  0  0  0  0
 37 38  2  0  0  0  0
 37 41  1  0  0  0  0
M  END
