19096
 OpenBabel03021519512D

 16 17  0  0  0  0  0  0  0  0999 V2000
   -5.6563   -4.1401    0.0000 N   0  0  0  0  0  0  0  0  0  0  0  0
   -4.3573   -1.8901    0.0000 N   0  0  0  0  0  0  0  0  0  0  0  0
   -1.6317   -2.1766    0.0000 N   0  0  0  0  0  0  0  0  0  0  0  0
   -0.7500   -3.3901    0.0000 N   0  0  0  0  0  0  0  0  0  0  0  0
   -3.0583   -2.6401    0.0000 C   0  0  0  0  0  0  0  0  0  0  0  0
   -3.0583   -4.1401    0.0000 C   0  0  0  0  0  0  0  0  0  0  0  0
   -1.6317   -4.6036    0.0000 C   0  0  0  0  0  0  0  0  0  0  0  0
   -4.3573   -4.8901    0.0000 C   0  0  0  0  0  0  0  0  0  0  0  0
   -5.6563   -2.6401    0.0000 C   0  0  0  0  0  0  0  0  0  0  0  0
   -6.9554   -1.8901    0.0000 O   0  0  0  0  0  0  0  0  0  0  0  0
   -8.2544   -2.6401    0.0000 C   0  0  0  0  0  0  0  0  0  0  0  0
   -9.5534   -1.8901    0.0000 C   0  0  0  0  0  0  0  0  0  0  0  0
   -4.3573   -6.3901    0.0000 O   0  0  0  0  0  0  0  0  0  0  0  0
   -5.6563   -7.1401    0.0000 C   0  0  0  0  0  0  0  0  0  0  0  0
   -6.9554   -6.3901    0.0000 C   0  0  0  0  0  0  0  0  0  0  0  0
   -1.1682   -0.7500    0.0000 C   0  0  0  0  0  0  0  0  0  0  0  0
  1  8  2  0  0  0  0
  1  9  1  0  0  0  0
  2  9  2  0  0  0  0
  2  5  1  0  0  0  0
  3  4  1  0  0  0  0
  3  5  1  0  0  0  0
  3 16  1  0  0  0  0
  4  7  2  0  0  0  0
  5  6  2  0  0  0  0
  6  7  1  0  0  0  0
  6  8  1  0  0  0  0
  8 13  1  0  0  0  0
  9 10  1  0  0  0  0
 10 11  1  0  0  0  0
 11 12  1  0  0  0  0
 13 14  1  0  0  0  0
 14 15  1  0  0  0  0
M  END
