156516
 OpenBabel03021519512D

 30 34  0  0  0  0  0  0  0  0999 V2000
    2.0491   -9.7500    0.0000 S   0  0  0  0  0  0  0  0  0  0  0  0
    3.3481   -7.5000    0.0000 O   0  0  0  0  0  0  0  0  0  0  0  0
    8.5442  -10.5000    0.0000 O   0  0  0  0  0  0  0  0  0  0  0  0
    4.6471   -5.2500    0.0000 S   0  0  0  0  0  0  0  0  0  0  0  0
    4.6471   -0.7500    0.0000 C   0  0  0  0  0  0  0  0  0  0  0  0
    3.3481   -1.5000    0.0000 C   0  0  0  0  0  0  0  0  0  0  0  0
    5.9462   -1.5000    0.0000 C   0  0  0  0  0  0  0  0  0  0  0  0
    5.9462   -3.0000    0.0000 C   0  0  0  0  0  0  0  0  0  0  0  0
    3.3481   -3.0000    0.0000 C   0  0  0  0  0  0  0  0  0  0  0  0
    4.6471   -3.7500    0.0000 C   0  0  0  0  0  0  0  0  0  0  0  0
   -1.8481  -12.0000    0.0000 C   0  0  0  0  0  0  0  0  0  0  0  0
   -0.5490  -12.7500    0.0000 C   0  0  0  0  0  0  0  0  0  0  0  0
   -1.8481  -10.5000    0.0000 C   0  0  0  0  0  0  0  0  0  0  0  0
    0.7500  -12.0000    0.0000 C   0  0  0  0  0  0  0  0  0  0  0  0
   -0.5490   -9.7500    0.0000 C   0  0  0  0  0  0  0  0  0  0  0  0
    0.7500  -10.5000    0.0000 C   0  0  0  0  0  0  0  0  0  0  0  0
    5.9462   -6.0000    0.0000 C   0  0  0  0  0  0  0  0  0  0  0  0
    5.9462   -7.5000    0.0000 C   0  0  0  0  0  0  0  0  0  0  0  0
    7.2452   -5.2500    0.0000 C   0  0  0  0  0  0  0  0  0  0  0  0
    4.6471   -8.2500    0.0000 C   0  0  0  0  0  0  0  0  0  0  0  0
    4.6471   -9.7500    0.0000 C   0  0  0  0  0  0  0  0  0  0  0  0
    3.3481  -10.5000    0.0000 C   0  0  0  0  0  0  0  0  0  0  0  0
    3.3481  -12.0000    0.0000 C   0  0  0  0  0  0  0  0  0  0  0  0
    8.5442   -6.0000    0.0000 C   0  0  0  0  0  0  0  0  0  0  0  0
    7.2452   -8.2500    0.0000 C   0  0  0  0  0  0  0  0  0  0  0  0
    5.9462  -10.5000    0.0000 C   0  0  0  0  0  0  0  0  0  0  0  0
    4.6471  -12.7500    0.0000 C   0  0  0  0  0  0  0  0  0  0  0  0
    8.5442   -7.5000    0.0000 C   0  0  0  0  0  0  0  0  0  0  0  0
    7.2452   -9.7500    0.0000 C   0  0  0  0  0  0  0  0  0  0  0  0
    5.9462  -12.0000    0.0000 C   0  0  0  0  0  0  0  0  0  0  0  0
  1 16  1  0  0  0  0
  1 22  1  0  0  0  0
  2 20  2  0  0  0  0
  3 29  2  0  0  0  0
  4 10  1  0  0  0  0
  4 17  1  0  0  0  0
  5  7  2  0  0  0  0
  5  6  1  0  0  0  0
  6  9  2  0  0  0  0
  7  8  1  0  0  0  0
  8 10  2  0  0  0  0
  9 10  1  0  0  0  0
 11 12  2  0  0  0  0
 11 13  1  0  0  0  0
 12 14  1  0  0  0  0
 13 15  2  0  0  0  0
 14 16  2  0  0  0  0
 15 16  1  0  0  0  0
 17 19  2  0  0  0  0
 17 18  1  0  0  0  0
 18 25  2  0  0  0  0
 18 20  1  0  0  0  0
 19 24  1  0  0  0  0
 20 21  1  0  0  0  0
 21 26  2  0  0  0  0
 21 22  1  0  0  0  0
 22 23  2  0  0  0  0
 23 27  1  0  0  0  0
 24 28  2  0  0  0  0
 25 28  1  0  0  0  0
 25 29  1  0  0  0  0
 26 30  1  0  0  0  0
 26 29  1  0  0  0  0
 27 30  2  0  0  0  0
M  END
