55459
 OpenBabel03021519512D

 12 12  0  0  0  0  0  0  0  0999 V2000
    0.7500    3.7500    0.0000 Cl  0  0  0  0  0  0  0  0  0  0  0  0
    2.0490    1.5000    0.0000 N   0  0  0  0  0  0  0  0  0  0  0  0
    4.6471    1.5000    0.0000 N   0  0  0  0  0  0  0  0  0  0  0  0
    3.3481    3.7500    0.0000 C   0  0  0  0  0  0  0  0  0  0  0  0
    4.6471    3.0000    0.0000 C   0  0  0  0  0  0  0  0  0  0  0  0
    2.0490    3.0000    0.0000 C   0  0  0  0  0  0  0  0  0  0  0  0
    3.3481    0.7500    0.0000 C   0  0  0  0  0  0  0  0  0  0  0  0
    3.3481    5.2500    0.0000 N   0  0  0  0  0  0  0  0  0  0  0  0
    5.9462    3.7500    0.0000 N   0  0  0  0  0  0  0  0  0  0  0  0
    7.2452    3.0000    0.0000 C   0  0  0  0  0  0  0  0  0  0  0  0
    8.5442    3.7500    0.0000 C   0  0  0  0  0  0  0  0  0  0  0  0
    9.8433    3.0000    0.0000 O   0  0  0  0  0  0  0  0  0  0  0  0
  1  6  1  0  0  0  0
  2  6  2  0  0  0  0
  2  7  1  0  0  0  0
  3  7  2  0  0  0  0
  3  5  1  0  0  0  0
  4  5  2  0  0  0  0
  4  6  1  0  0  0  0
  4  8  1  0  0  0  0
  5  9  1  0  0  0  0
  9 10  1  0  0  0  0
 10 11  1  0  0  0  0
 11 12  1  0  0  0  0
M  END
