34012
 OpenBabel03021519512D

 10 10  0  0  0  0  0  0  0  0999 V2000
    0.6011    4.5043    0.0000 N   0  0  0  0  0  0  0  0  0  0  0  0
    1.8146    5.3859    0.0000 N   0  0  0  0  0  0  0  0  0  0  0  0
    2.5646    3.0777    0.0000 S   0  0  0  0  0  0  0  0  0  0  0  0
    3.0281    4.5043    0.0000 C   0  0  0  0  0  0  0  0  0  0  0  0
    1.0646    3.0777    0.0000 C   0  0  0  0  0  0  0  0  0  0  0  0
    0.1829    1.8641    0.0000 N   0  0  0  0  0  0  0  0  0  0  0  0
    4.4547    4.9678    0.0000 C   0  0  0  0  0  0  0  0  0  0  0  0
    5.5694    3.9641    0.0000 C   0  0  0  0  0  0  0  0  0  0  0  0
    6.9960    4.4276    0.0000 C   0  0  0  0  0  0  0  0  0  0  0  0
    5.2575    2.4969    0.0000 C   0  0  0  0  0  0  0  0  0  0  0  0
  1  2  1  0  0  0  0
  1  5  2  0  0  0  0
  2  4  2  0  0  0  0
  3  4  1  0  0  0  0
  3  5  1  0  0  0  0
  4  7  1  0  0  0  0
  5  6  1  0  0  0  0
  7  8  1  0  0  0  0
  8  9  1  0  0  0  0
  8 10  1  0  0  0  0
M  END
