38743
 OpenBabel03021519512D

 19 20  0  0  1  0  0  0  0  0999 V2000
   -9.2810   -3.5268    0.0000 O   0  0  0  0  0  0  0  0  0  0  0  0
   -6.4548   -1.8951    0.0000 H   0  0  0  0  0  0  0  0  0  0  0  0
   -6.6116   -3.3869    0.0000 N   0  0  0  0  0  0  0  0  0  0  0  0
   -5.3570   -7.0599    0.0000 O   0  0  0  0  0  0  0  0  0  0  0  0
   -2.8988   -4.3906    0.0000 C   0  0  0  0  0  0  0  0  0  0  0  0
   -4.1979   -5.1406    0.0000 C   0  0  0  0  0  0  0  0  0  0  0  0
   -1.5998   -5.1406    0.0000 C   0  0  0  0  0  0  0  0  0  0  0  0
   -1.5998   -6.6406    0.0000 C   0  0  0  0  0  0  0  0  0  0  0  0
   -4.1979   -6.6406    0.0000 C   0  0  0  0  0  0  0  0  0  0  0  0
   -5.4969   -4.3906    0.0000 C   0  0  3  0  0  0  0  0  0  0  0  0
   -6.1070   -5.7609    0.0000 C   0  0  0  0  0  0  0  0  0  0  0  0
   -2.8988   -7.3906    0.0000 C   0  0  0  0  0  0  0  0  0  0  0  0
   -7.9107   -4.1369    0.0000 C   0  0  0  0  0  0  0  0  0  0  0  0
   -7.5988   -5.6041    0.0000 N   0  0  0  0  0  0  0  0  0  0  0  0
   -4.6152   -3.1771    0.0000 C   0  0  0  0  0  0  0  0  0  0  0  0
   -3.1235   -3.3338    0.0000 C   0  0  0  0  0  0  0  0  0  0  0  0
   -2.2418   -2.1203    0.0000 C   0  0  0  0  0  0  0  0  0  0  0  0
   -0.7500   -2.2771    0.0000 O   0  0  0  0  0  0  0  0  0  0  0  0
   -2.8519   -0.7500    0.0000 O   0  0  0  0  0  0  0  0  0  0  0  0
  1 13  2  0  0  0  0
  2  3  1  0  0  0  0
  3 10  1  0  0  0  0
  3 13  1  0  0  0  0
  4 11  2  0  0  0  0
  5  7  2  0  0  0  0
  5  6  1  0  0  0  0
  6  9  2  0  0  0  0
  6 10  1  0  0  0  0
  7  8  1  0  0  0  0
  8 12  2  0  0  0  0
  9 12  1  0  0  0  0
 10 11  1  0  0  0  0
 10 15  1  0  0  0  0
 11 14  1  0  0  0  0
 13 14  1  0  0  0  0
 15 16  1  0  0  0  0
 16 17  1  0  0  0  0
 17 18  2  0  0  0  0
 17 19  1  0  0  0  0
M  END
