168225
 OpenBabel03021519512D

 22 24  0  0  0  0  0  0  0  0999 V2000
   -6.5345    7.7180    0.0000 N   0  0  0  0  0  0  0  0  0  0  0  0
   -8.0345    7.7180    0.0000 N   0  0  0  0  0  0  0  0  0  0  0  0
   -6.0710    6.2914    0.0000 N   0  0  0  0  0  0  0  0  0  0  0  0
   -8.4981    6.2914    0.0000 N   0  0  0  0  0  0  0  0  0  0  0  0
   -9.9246    5.8279    0.0000 H   0  0  0  0  0  0  0  0  0  0  0  0
   -7.2845    5.4098    0.0000 C   0  0  0  0  0  0  0  0  0  0  0  0
   -3.3874    1.6598    0.0000 C   0  0  0  0  0  0  0  0  0  0  0  0
   -2.0884    0.9098    0.0000 C   0  0  0  0  0  0  0  0  0  0  0  0
   -4.6864    0.9098    0.0000 C   0  0  0  0  0  0  0  0  0  0  0  0
   -2.0884   -0.5902    0.0000 C   0  0  0  0  0  0  0  0  0  0  0  0
   -4.6864   -0.5902    0.0000 C   0  0  0  0  0  0  0  0  0  0  0  0
   -3.3874   -1.3402    0.0000 C   0  0  0  0  0  0  0  0  0  0  0  0
  -10.4080    8.7747    0.0000 C   0  0  0  0  0  0  0  0  0  0  0  0
  -11.2897    9.9883    0.0000 C   0  0  0  0  0  0  0  0  0  0  0  0
  -11.0181    7.4044    0.0000 C   0  0  0  0  0  0  0  0  0  0  0  0
  -12.5099    7.2476    0.0000 C   0  0  0  0  0  0  0  0  0  0  0  0
  -12.7815    9.8315    0.0000 C   0  0  0  0  0  0  0  0  0  0  0  0
  -13.3916    8.4612    0.0000 C   0  0  0  0  0  0  0  0  0  0  0  0
   -8.9162    8.9315    0.0000 C   0  0  0  0  0  0  0  0  0  0  0  0
   -7.2845    3.9098    0.0000 N   0  0  0  0  0  0  0  0  0  0  0  0
   -5.9855    3.1598    0.0000 N   0  0  0  0  0  0  0  0  0  0  0  0
   -5.9855    1.6598    0.0000 C   0  0  0  0  0  0  0  0  0  0  0  0
  1  3  2  0  0  0  0
  1  2  1  0  0  0  0
  2  4  1  0  0  0  0
  2 19  1  0  0  0  0
  3  6  1  0  0  0  0
  4  6  1  0  0  0  0
  4  5  1  0  0  0  0
  6 20  2  0  0  0  0
  7  8  2  0  0  0  0
  7  9  1  0  0  0  0
  8 10  1  0  0  0  0
  9 11  2  0  0  0  0
  9 22  1  0  0  0  0
 10 12  2  0  0  0  0
 11 12  1  0  0  0  0
 13 15  2  0  0  0  0
 13 14  1  0  0  0  0
 13 19  1  0  0  0  0
 14 17  2  0  0  0  0
 15 16  1  0  0  0  0
 16 18  2  0  0  0  0
 17 18  1  0  0  0  0
 20 21  1  0  0  0  0
 21 22  2  0  0  0  0
M  END
