51093
 OpenBabel03021519512D

 16 17  0  0  0  0  0  0  0  0999 V2000
   -1.0245    6.2745    0.0000 O   0  0  0  0  0  0  0  0  0  0  0  0
   -1.0245    3.2745    0.0000 H   0  0  0  0  0  0  0  0  0  0  0  0
    0.2745    4.0245    0.0000 N   0  0  0  0  0  0  0  0  0  0  0  0
    1.5736    1.7745    0.0000 O   0  0  0  0  0  0  0  0  0  0  0  0
    2.8726    4.0245    0.0000 N   0  0  0  0  0  0  0  0  0  0  0  0
    4.1716    3.2745    0.0000 H   0  0  0  0  0  0  0  0  0  0  0  0
    5.5420    5.6644    0.0000 N   0  0  0  0  0  0  0  0  0  0  0  0
    4.3284    7.7663    0.0000 N   0  0  0  0  0  0  0  0  0  0  0  0
    3.2137    8.7700    0.0000 H   0  0  0  0  0  0  0  0  0  0  0  0
    6.5456    6.7791    0.0000 N   0  0  0  0  0  0  0  0  0  0  0  0
    5.7956    8.0782    0.0000 N   0  0  0  0  0  0  0  0  0  0  0  0
    4.1716    6.2745    0.0000 C   0  0  0  0  0  0  0  0  0  0  0  0
    2.8726    5.5245    0.0000 C   0  0  0  0  0  0  0  0  0  0  0  0
    1.5736    6.2745    0.0000 C   0  0  0  0  0  0  0  0  0  0  0  0
    0.2745    5.5245    0.0000 C   0  0  0  0  0  0  0  0  0  0  0  0
    1.5736    3.2745    0.0000 C   0  0  0  0  0  0  0  0  0  0  0  0
  1 15  2  0  0  0  0
  2  3  1  0  0  0  0
  3 15  1  0  0  0  0
  3 16  1  0  0  0  0
  4 16  2  0  0  0  0
  5 13  1  0  0  0  0
  5 16  1  0  0  0  0
  5  6  1  0  0  0  0
  7 12  2  0  0  0  0
  7 10  1  0  0  0  0
  8 11  1  0  0  0  0
  8 12  1  0  0  0  0
  8  9  1  0  0  0  0
 10 11  2  0  0  0  0
 12 13  1  0  0  0  0
 13 14  2  0  0  0  0
 14 15  1  0  0  0  0
M  END
