35582
 OpenBabel03021519512D

 21 24  0  0  0  0  0  0  0  0999 V2000
    3.6571    1.9021    0.0000 C   0  0  0  0  0  0  0  0  0  0  0  0
   -5.6598   -0.4192    0.0000 C   0  0  0  0  0  0  0  0  0  0  0  0
    5.0913    2.3413    0.0000 C   0  0  0  0  0  0  0  0  0  0  0  0
    3.3203    0.4404    0.0000 C   0  0  0  0  0  0  0  0  0  0  0  0
   -4.1710   -0.2358    0.0000 C   0  0  0  0  0  0  0  0  0  0  0  0
   -6.5630    0.7783    0.0000 C   0  0  0  0  0  0  0  0  0  0  0  0
    6.1888    1.3188    0.0000 C   0  0  0  0  0  0  0  0  0  0  0  0
    4.4178   -0.5821    0.0000 C   0  0  0  0  0  0  0  0  0  0  0  0
   -3.5856    1.1453    0.0000 C   0  0  0  0  0  0  0  0  0  0  0  0
   -5.9776    2.1593    0.0000 C   0  0  0  0  0  0  0  0  0  0  0  0
    5.8521   -0.1429    0.0000 C   0  0  0  0  0  0  0  0  0  0  0  0
   -4.4888    2.3428    0.0000 C   0  0  0  0  0  0  0  0  0  0  0  0
   -2.0912    1.0152    0.0000 S   0  0  0  0  0  0  0  0  0  0  0  0
   -3.0385   -1.2193    0.0000 N   0  0  0  0  0  0  0  0  0  0  0  0
   -1.7531   -0.4462    0.0000 C   0  0  0  0  0  0  0  0  0  0  0  0
   -0.3721   -1.0317    0.0000 S   0  0  0  0  0  0  0  0  0  0  0  0
    1.2731   -2.8572    0.0000 S   0  0  0  0  0  0  0  0  0  0  0  0
    2.2956   -1.7597    0.0000 C   0  0  0  0  0  0  0  0  0  0  0  0
    2.0087   -0.2874    0.0000 N   0  0  0  0  0  0  0  0  0  0  0  0
    3.7845   -1.9418    0.0000 S   0  0  0  0  0  0  0  0  0  0  0  0
   -0.1886   -2.5204    0.0000 C   0  0  0  0  0  0  0  0  0  0  0  0
  1  3  2  0  0  0  0
  1  4  1  0  0  0  0
  2  6  2  0  0  0  0
  2  5  1  0  0  0  0
  3  7  1  0  0  0  0
  4 19  1  0  0  0  0
  4  8  2  0  0  0  0
  5 14  1  0  0  0  0
  5  9  2  0  0  0  0
  6 10  1  0  0  0  0
  7 11  2  0  0  0  0
  8 11  1  0  0  0  0
  8 20  1  0  0  0  0
  9 13  1  0  0  0  0
  9 12  1  0  0  0  0
 10 12  2  0  0  0  0
 13 15  1  0  0  0  0
 14 15  2  0  0  0  0
 15 16  1  0  0  0  0
 16 21  1  0  0  0  0
 17 18  1  0  0  0  0
 17 21  1  0  0  0  0
 18 19  2  0  0  0  0
 18 20  1  0  0  0  0
M  END
