99867
 OpenBabel03021519512D

 27 31  0  0  0  0  0  0  0  0999 V2000
    4.2721   -1.3995    0.0000 N   0  0  0  0  0  0  0  0  0  0  0  0
    5.5712   -3.6495    0.0000 N   0  0  0  0  0  0  0  0  0  0  0  0
    6.8702   -1.3995    0.0000 N   0  0  0  0  0  0  0  0  0  0  0  0
    6.8702   -5.8995    0.0000 N   0  0  0  0  0  0  0  0  0  0  0  0
    8.1693   -3.6495    0.0000 N   0  0  0  0  0  0  0  0  0  0  0  0
    9.5958   -1.6860    0.0000 N   0  0  0  0  0  0  0  0  0  0  0  0
   10.4775   -2.8995    0.0000 N   0  0  0  0  0  0  0  0  0  0  0  0
    4.2721    0.1005    0.0000 C   0  0  0  0  0  0  0  0  0  0  0  0
    2.9731    0.8505    0.0000 C   0  0  0  0  0  0  0  0  0  0  0  0
    1.6740    0.1005    0.0000 C   0  0  0  0  0  0  0  0  0  0  0  0
    1.6741   -1.3995    0.0000 C   0  0  0  0  0  0  0  0  0  0  0  0
    2.9731   -2.1495    0.0000 C   0  0  0  0  0  0  0  0  0  0  0  0
    8.1692   -2.1495    0.0000 C   0  0  0  0  0  0  0  0  0  0  0  0
    5.5712   -2.1495    0.0000 C   0  0  0  0  0  0  0  0  0  0  0  0
    9.5958   -4.1130    0.0000 C   0  0  0  0  0  0  0  0  0  0  0  0
   10.0594   -5.5396    0.0000 C   0  0  0  0  0  0  0  0  0  0  0  0
   11.5266   -5.8515    0.0000 C   0  0  0  0  0  0  0  0  0  0  0  0
   11.9901   -7.2780    0.0000 C   0  0  0  0  0  0  0  0  0  0  0  0
   10.9864   -8.3928    0.0000 C   0  0  0  0  0  0  0  0  0  0  0  0
    9.0557   -6.6543    0.0000 C   0  0  0  0  0  0  0  0  0  0  0  0
    9.5192   -8.0809    0.0000 C   0  0  0  0  0  0  0  0  0  0  0  0
    6.8702   -4.3995    0.0000 C   0  0  0  0  0  0  0  0  0  0  0  0
    8.1693   -6.6495    0.0000 C   0  0  0  0  0  0  0  0  0  0  0  0
    8.1693   -8.1495    0.0000 C   0  0  0  0  0  0  0  0  0  0  0  0
    6.8702   -8.8995    0.0000 C   0  0  0  0  0  0  0  0  0  0  0  0
    5.5712   -8.1495    0.0000 C   0  0  0  0  0  0  0  0  0  0  0  0
    5.5712   -6.6495    0.0000 C   0  0  0  0  0  0  0  0  0  0  0  0
  1  8  1  0  0  0  0
  1 12  1  0  0  0  0
  1 14  1  0  0  0  0
  2 22  2  0  0  0  0
  2 14  1  0  0  0  0
  3 14  2  0  0  0  0
  3 13  1  0  0  0  0
  4 22  1  0  0  0  0
  4 23  1  0  0  0  0
  4 27  1  0  0  0  0
  5 13  1  0  0  0  0
  5 15  1  0  0  0  0
  5 22  1  0  0  0  0
  6  7  1  0  0  0  0
  6 13  2  0  0  0  0
  7 15  2  0  0  0  0
  8  9  1  0  0  0  0
  9 10  1  0  0  0  0
 10 11  1  0  0  0  0
 11 12  1  0  0  0  0
 15 16  1  0  0  0  0
 16 20  2  0  0  0  0
 16 17  1  0  0  0  0
 17 18  2  0  0  0  0
 18 19  1  0  0  0  0
 19 21  2  0  0  0  0
 20 21  1  0  0  0  0
 23 24  1  0  0  0  0
 24 25  1  0  0  0  0
 25 26  1  0  0  0  0
 26 27  1  0  0  0  0
M  END
