4135
 OpenBabel03021519512D

 15 16  0  0  0  0  0  0  0  0999 V2000
   -7.3761    3.0084    0.0000 C   0  0  0  0  0  0  0  0  0  0  0  0
   -9.9742    3.0084    0.0000 C   0  0  0  0  0  0  0  0  0  0  0  0
   -7.3761    1.5084    0.0000 C   0  0  0  0  0  0  0  0  0  0  0  0
   -9.9742    1.5084    0.0000 C   0  0  0  0  0  0  0  0  0  0  0  0
   -6.0770    0.7584    0.0000 C   0  0  0  0  0  0  0  0  0  0  0  0
   -8.6751    0.7584    0.0000 C   0  0  0  0  0  0  0  0  0  0  0  0
   -4.4530   -1.0452    0.0000 C   0  0  0  0  0  0  0  0  0  0  0  0
   -5.9202   -0.7333    0.0000 C   0  0  0  0  0  0  0  0  0  0  0  0
   -8.6751    3.7584    0.0000 N   0  0  0  0  0  0  0  0  0  0  0  0
   -4.7067    1.3685    0.0000 N   0  0  0  0  0  0  0  0  0  0  0  0
   -3.7030    0.2538    0.0000 N   0  0  0  0  0  0  0  0  0  0  0  0
   -2.2112    0.4106    0.0000 H   0  0  0  0  0  0  0  0  0  0  0  0
   -3.8429   -2.4155    0.0000 N   0  3  0  0  0  0  0  0  0  0  0  0
   -2.3511   -2.5723    0.0000 O   0  5  0  0  0  0  0  0  0  0  0  0
   -4.7246   -3.6291    0.0000 O   0  0  0  0  0  0  0  0  0  0  0  0
  1  9  1  0  0  0  0
  1  3  2  0  0  0  0
  2  9  2  0  0  0  0
  2  4  1  0  0  0  0
  3  5  1  0  0  0  0
  3  6  1  0  0  0  0
  4  6  2  0  0  0  0
  5 10  2  0  0  0  0
  5  8  1  0  0  0  0
  7 11  1  0  0  0  0
  7  8  2  0  0  0  0
  7 13  1  0  0  0  0
 10 11  1  0  0  0  0
 11 12  1  0  0  0  0
 13 14  1  0  0  0  0
 13 15  2  0  0  0  0
M  CHG  2  13   1  14  -1
M  END
