22881
 OpenBabel03021519512D

 20 23  0  0  1  0  0  0  0  0999 V2000
  -11.9928   -8.4241    0.0000 O   0  0  0  0  0  0  0  0  0  0  0  0
   -0.6495   -1.8750    0.0000 O   0  0  0  0  0  0  0  0  0  0  0  0
    0.1005   -3.1740    0.0000 C   0  0  3  0  0  0  0  0  0  0  0  0
   -1.3995   -3.1740    0.0000 C   0  0  3  0  0  0  0  0  0  0  0  0
   -2.6986   -3.9240    0.0000 C   0  0  0  0  0  0  0  0  0  0  0  0
   -3.9976   -3.1740    0.0000 C   0  0  0  0  0  0  0  0  0  0  0  0
   -5.2966   -3.9241    0.0000 C   0  0  0  0  0  0  0  0  0  0  0  0
   -2.6986   -5.4240    0.0000 C   0  0  0  0  0  0  0  0  0  0  0  0
   -5.2966   -5.4241    0.0000 C   0  0  0  0  0  0  0  0  0  0  0  0
   -3.9976   -6.1740    0.0000 C   0  0  0  0  0  0  0  0  0  0  0  0
   -6.5957   -6.1741    0.0000 C   0  0  0  0  0  0  0  0  0  0  0  0
   -7.8947   -5.4241    0.0000 C   0  0  0  0  0  0  0  0  0  0  0  0
   -9.1937   -6.1741    0.0000 C   0  0  0  0  0  0  0  0  0  0  0  0
   -6.5957   -7.6741    0.0000 C   0  0  0  0  0  0  0  0  0  0  0  0
   -9.1937   -7.6741    0.0000 C   0  0  0  0  0  0  0  0  0  0  0  0
   -7.8947   -8.4241    0.0000 C   0  0  0  0  0  0  0  0  0  0  0  0
  -10.4928   -8.4241    0.0000 C   0  0  3  0  0  0  0  0  0  0  0  0
  -11.2428   -9.7231    0.0000 C   0  0  3  0  0  0  0  0  0  0  0  0
  -11.2428  -11.2231    0.0000 C   0  0  0  0  0  0  0  0  0  0  0  0
    1.3995   -3.9240    0.0000 C   0  0  0  0  0  0  0  0  0  0  0  0
  1 17  1  0  0  0  0
  1 18  1  0  0  0  0
  2  3  1  0  0  0  0
  2  4  1  0  0  0  0
  3  4  1  0  0  0  0
  3 20  1  0  0  0  0
  4  5  1  0  0  0  0
  5  8  2  0  0  0  0
  5  6  1  0  0  0  0
  6  7  2  0  0  0  0
  7  9  1  0  0  0  0
  8 10  1  0  0  0  0
  9 10  2  0  0  0  0
  9 11  1  0  0  0  0
 11 14  2  0  0  0  0
 11 12  1  0  0  0  0
 12 13  2  0  0  0  0
 13 15  1  0  0  0  0
 14 16  1  0  0  0  0
 15 16  2  0  0  0  0
 15 17  1  0  0  0  0
 17 18  1  0  0  0  0
 18 19  1  0  0  0  0
M  END
