20559
 OpenBabel03021519512D

 16 16  0  0  0  0  0  0  0  0999 V2000
    1.5000   -3.3481    0.0000 C   0  0  0  0  0  0  0  0  0  0  0  0
    3.0000   -3.3481    0.0000 C   0  0  0  0  0  0  0  0  0  0  0  0
    0.7500   -4.6471    0.0000 C   0  0  0  0  0  0  0  0  0  0  0  0
    1.5000   -5.9462    0.0000 C   0  0  0  0  0  0  0  0  0  0  0  0
    3.0000   -5.9462    0.0000 C   0  0  0  0  0  0  0  0  0  0  0  0
    3.7500   -7.2452    0.0000 N   0  0  0  0  0  0  0  0  0  0  0  0
    3.0000   -8.5442    0.0000 C   0  0  0  0  0  0  0  0  0  0  0  0
    3.0000   -0.7500    0.0000 H   0  0  0  0  0  0  0  0  0  0  0  0
    3.7500   -4.6471    0.0000 N   0  0  0  0  0  0  0  0  0  0  0  0
    5.2500   -7.2452    0.0000 H   0  0  0  0  0  0  0  0  0  0  0  0
    3.7500   -9.8433    0.0000 O   0  0  0  0  0  0  0  0  0  0  0  0
    3.7500   -2.0490    0.0000 N   0  0  0  0  0  0  0  0  0  0  0  0
    6.0000   -0.7500    0.0000 O   0  0  0  0  0  0  0  0  0  0  0  0
    5.2500   -2.0490    0.0000 C   0  0  0  0  0  0  0  0  0  0  0  0
    1.5000   -8.5442    0.0000 C   0  0  0  0  0  0  0  0  0  0  0  0
    6.0000   -3.3481    0.0000 C   0  0  0  0  0  0  0  0  0  0  0  0
  1  2  2  0  0  0  0
  1  3  1  0  0  0  0
  2 12  1  0  0  0  0
  2  9  1  0  0  0  0
  3  4  2  0  0  0  0
  4  5  1  0  0  0  0
  5  6  1  0  0  0  0
  5  9  2  0  0  0  0
  6  7  1  0  0  0  0
  6 10  1  0  0  0  0
  7 11  2  0  0  0  0
  7 15  1  0  0  0  0
  8 12  1  0  0  0  0
 12 14  1  0  0  0  0
 13 14  2  0  0  0  0
 14 16  1  0  0  0  0
M  END
