339316
 OpenBabel03021519512D

 21 23  0  0  1  0  0  0  0  0999 V2000
   -2.7783   -4.2519    0.0000 N   0  0  0  0  0  0  0  0  0  0  0  0
   -1.2824   -4.3624    0.0000 C   0  0  0  0  0  0  0  0  0  0  0  0
   -0.2633   -3.2617    0.0000 C   0  0  3  0  0  0  0  0  0  0  0  0
   -0.4885   -1.7787    0.0000 C   0  0  0  0  0  0  0  0  0  0  0  0
   -1.7884   -1.0301    0.0000 C   0  0  0  0  0  0  0  0  0  0  0  0
   -3.1841   -1.5797    0.0000 C   0  0  3  0  0  0  0  0  0  0  0  0
   -3.6247   -3.0135    0.0000 C   0  0  0  0  0  0  0  0  0  0  0  0
   -2.4386   -2.9866    0.0000 C   0  0  0  0  0  0  0  0  0  0  0  0
   -1.0089   -1.8548    0.0000 C   0  0  0  0  0  0  0  0  0  0  0  0
   -3.5269   -5.5518    0.0000 C   0  0  0  0  0  0  0  0  0  0  0  0
   -5.7755   -6.8533    0.0000 N   0  0  0  0  0  0  0  0  0  0  0  0
   -7.2755   -6.8549    0.0000 C   0  0  0  0  0  0  0  0  0  0  0  0
   -2.7755   -6.8500    0.0000 S   0  0  0  0  0  0  0  0  0  0  0  0
   -5.0269   -5.5534    0.0000 N   0  0  0  0  0  0  0  0  0  0  0  0
   -8.0269   -5.5567    0.0000 C   0  0  0  0  0  0  0  0  0  0  0  0
   -7.2783   -4.2568    0.0000 C   0  0  0  0  0  0  0  0  0  0  0  0
   -8.0298   -2.9586    0.0000 N   0  0  0  0  0  0  0  0  0  0  0  0
   -9.5298   -2.9603    0.0000 C   0  0  0  0  0  0  0  0  0  0  0  0
  -10.2783   -4.2601    0.0000 C   0  0  0  0  0  0  0  0  0  0  0  0
   -9.5269   -5.5583    0.0000 N   0  0  0  0  0  0  0  0  0  0  0  0
   -8.0241   -8.1548    0.0000 C   0  0  0  0  0  0  0  0  0  0  0  0
  1  2  1  0  0  0  0
  1  7  1  0  0  0  0
  1 10  1  0  0  0  0
  2  3  1  0  0  0  0
  3  4  1  0  0  0  0
  3  9  1  0  0  0  0
  4  5  1  0  0  0  0
  5  6  1  0  0  0  0
  6  7  1  0  0  0  0
  6  8  1  0  0  0  0
  8  9  1  0  0  0  0
 10 13  2  0  0  0  0
 10 14  1  0  0  0  0
 11 12  2  0  0  0  0
 11 14  1  0  0  0  0
 12 15  1  0  0  0  0
 12 21  1  0  0  0  0
 15 16  2  0  0  0  0
 15 20  1  0  0  0  0
 16 17  1  0  0  0  0
 17 18  2  0  0  0  0
 18 19  1  0  0  0  0
 19 20  2  0  0  0  0
M  END
