374703
 OpenBabel03021519512D

 21 23  0  0  0  0  0  0  0  0999 V2000
   -1.6740    9.5957    0.0000 C   0  0  0  0  0  0  0  0  0  0  0  0
   -0.9240   10.8947    0.0000 C   0  0  0  0  0  0  0  0  0  0  0  0
   -0.9240    8.2966    0.0000 C   0  0  0  0  0  0  0  0  0  0  0  0
    0.5760   10.8947    0.0000 C   0  0  0  0  0  0  0  0  0  0  0  0
    0.5760    8.2966    0.0000 C   0  0  0  0  0  0  0  0  0  0  0  0
    1.3260    9.5957    0.0000 C   0  0  0  0  0  0  0  0  0  0  0  0
    1.3260    6.9976    0.0000 O   0  0  0  0  0  0  0  0  0  0  0  0
    2.8260    8.4976    0.0000 O   0  0  0  0  0  0  0  0  0  0  0  0
    2.8260    6.9976    0.0000 P   0  0  3  0  0  0  0  0  0  0  0  0
    2.8260    5.4976    0.0000 C   0  0  0  0  0  0  0  0  0  0  0  0
    4.1250    4.7476    0.0000 C   0  0  0  0  0  0  0  0  0  0  0  0
    4.1250    3.2476    0.0000 C   0  0  0  0  0  0  0  0  0  0  0  0
    2.8260    2.4976    0.0000 C   0  0  0  0  0  0  0  0  0  0  0  0
    1.5269    3.2476    0.0000 C   0  0  0  0  0  0  0  0  0  0  0  0
    1.5269    4.7476    0.0000 C   0  0  0  0  0  0  0  0  0  0  0  0
    4.3260    6.9976    0.0000 C   0  0  0  0  0  0  0  0  0  0  0  0
    5.0760    8.2966    0.0000 C   0  0  0  0  0  0  0  0  0  0  0  0
    6.5760    8.2966    0.0000 C   0  0  0  0  0  0  0  0  0  0  0  0
    7.3260    6.9976    0.0000 C   0  0  0  0  0  0  0  0  0  0  0  0
    6.5760    5.6986    0.0000 C   0  0  0  0  0  0  0  0  0  0  0  0
    5.0760    5.6986    0.0000 C   0  0  0  0  0  0  0  0  0  0  0  0
  1  3  1  0  0  0  0
  1  2  1  0  0  0  0
  2  4  1  0  0  0  0
  3  5  1  0  0  0  0
  4  6  1  0  0  0  0
  5  7  1  0  0  0  0
  5  6  2  0  0  0  0
  7  9  1  0  0  0  0
  8  9  2  0  0  0  0
  9 10  1  0  0  0  0
  9 16  1  0  0  0  0
 10 11  2  0  0  0  0
 10 15  1  0  0  0  0
 11 12  1  0  0  0  0
 12 13  2  0  0  0  0
 13 14  1  0  0  0  0
 14 15  2  0  0  0  0
 16 17  2  0  0  0  0
 16 21  1  0  0  0  0
 17 18  1  0  0  0  0
 18 19  2  0  0  0  0
 19 20  1  0  0  0  0
 20 21  2  0  0  0  0
M  END
