134058
 OpenBabel03021519512D

 17 18  0  0  0  0  0  0  0  0999 V2000
   -2.9731   -9.6495    0.0000 O   0  0  0  0  0  0  0  0  0  0  0  0
   -1.6740   -7.3995    0.0000 N   0  0  0  0  0  0  0  0  0  0  0  0
   -0.3750   -9.6495    0.0000 N   0  0  0  0  0  0  0  0  0  0  0  0
   -0.3750  -11.1495    0.0000 H   0  0  0  0  0  0  0  0  0  0  0  0
    0.9240   -8.8995    0.0000 N   0  0  0  0  0  0  0  0  0  0  0  0
    2.2231   -6.6495    0.0000 S   0  0  0  0  0  0  0  0  0  0  0  0
   -0.3750   -6.6495    0.0000 C   0  0  0  0  0  0  0  0  0  0  0  0
    0.9240   -7.3995    0.0000 C   0  0  0  0  0  0  0  0  0  0  0  0
    0.9240   -4.3995    0.0000 C   0  0  0  0  0  0  0  0  0  0  0  0
    2.2231   -5.1495    0.0000 C   0  0  0  0  0  0  0  0  0  0  0  0
    0.9240   -2.8995    0.0000 C   0  0  0  0  0  0  0  0  0  0  0  0
    2.2231   -2.1495    0.0000 C   0  0  0  0  0  0  0  0  0  0  0  0
    3.5221   -4.3995    0.0000 C   0  0  0  0  0  0  0  0  0  0  0  0
    3.5221   -2.8995    0.0000 C   0  0  0  0  0  0  0  0  0  0  0  0
   -1.6740   -8.8995    0.0000 C   0  0  0  0  0  0  0  0  0  0  0  0
   -0.3750   -5.1495    0.0000 S   0  0  0  0  0  0  0  0  0  0  0  0
   -1.6740   -4.3995    0.0000 C   0  0  0  0  0  0  0  0  0  0  0  0
  1 15  2  0  0  0  0
  2  7  2  0  0  0  0
  2 15  1  0  0  0  0
  3  5  1  0  0  0  0
  3 15  1  0  0  0  0
  3  4  1  0  0  0  0
  5  8  2  0  0  0  0
  6  8  1  0  0  0  0
  6 10  1  0  0  0  0
  7  8  1  0  0  0  0
  7 16  1  0  0  0  0
  9 11  2  0  0  0  0
  9 10  1  0  0  0  0
 10 13  2  0  0  0  0
 11 12  1  0  0  0  0
 12 14  2  0  0  0  0
 13 14  1  0  0  0  0
 16 17  1  0  0  0  0
M  END
