109174
 OpenBabel03021519512D

 18 20  0  0  0  0  0  0  0  0999 V2000
   -5.9462   -0.7500    0.0000 N   0  0  0  0  0  0  0  0  0  0  0  0
   -3.3481   -5.2500    0.0000 O   0  0  0  0  0  0  0  0  0  0  0  0
   -0.7500   -0.7500    0.0000 O   0  0  0  0  0  0  0  0  0  0  0  0
   -8.5442   -0.7500    0.0000 C   0  0  0  0  0  0  0  0  0  0  0  0
   -9.8433   -1.5000    0.0000 C   0  0  0  0  0  0  0  0  0  0  0  0
   -7.2452   -1.5000    0.0000 C   0  0  0  0  0  0  0  0  0  0  0  0
   -7.2452   -3.0000    0.0000 C   0  0  0  0  0  0  0  0  0  0  0  0
   -9.8433   -3.0000    0.0000 C   0  0  0  0  0  0  0  0  0  0  0  0
   -5.9462   -3.7500    0.0000 C   0  0  0  0  0  0  0  0  0  0  0  0
   -4.6471   -1.5000    0.0000 C   0  0  0  0  0  0  0  0  0  0  0  0
   -4.6471   -3.0000    0.0000 C   0  0  0  0  0  0  0  0  0  0  0  0
   -3.3481   -3.7500    0.0000 C   0  0  0  0  0  0  0  0  0  0  0  0
   -8.5442   -3.7500    0.0000 C   0  0  0  0  0  0  0  0  0  0  0  0
   -2.0490   -1.5000    0.0000 C   0  0  0  0  0  0  0  0  0  0  0  0
  -11.1423   -3.7500    0.0000 C   0  0  0  0  0  0  0  0  0  0  0  0
   -3.3481   -0.7500    0.0000 N   0  0  0  0  0  0  0  0  0  0  0  0
   -2.0490   -3.0000    0.0000 N   0  0  0  0  0  0  0  0  0  0  0  0
  -11.1423   -0.7500    0.0000 C   0  0  0  0  0  0  0  0  0  0  0  0
  1  6  2  0  0  0  0
  1 10  1  0  0  0  0
  2 12  2  0  0  0  0
  3 14  2  0  0  0  0
  4  5  2  0  0  0  0
  4  6  1  0  0  0  0
  5  8  1  0  0  0  0
  5 18  1  0  0  0  0
  6  7  1  0  0  0  0
  7  9  2  0  0  0  0
  7 13  1  0  0  0  0
  8 13  2  0  0  0  0
  8 15  1  0  0  0  0
  9 11  1  0  0  0  0
 10 11  2  0  0  0  0
 10 16  1  0  0  0  0
 11 12  1  0  0  0  0
 12 17  1  0  0  0  0
 14 16  1  0  0  0  0
 14 17  1  0  0  0  0
M  END
