365560
 OpenBabel03021519512D

 11 11  0  0  0  0  0  0  0  0999 V2000
    2.2926    4.0607    0.0000 S   0  0  0  0  0  0  0  0  0  0  0  0
    3.7926    4.0607    0.0000 C   0  0  0  0  0  0  0  0  0  0  0  0
    4.8533    5.1213    0.0000 C   0  0  0  0  0  0  0  0  0  0  0  0
    4.8533    6.6213    0.0000 O   0  0  0  0  0  0  0  0  0  0  0  0
    4.8533    3.0000    0.0000 C   0  0  0  0  0  0  0  0  0  0  0  0
    4.8533    1.5000    0.0000 S   0  0  0  0  0  0  0  0  0  0  0  0
    5.9139    4.0607    0.0000 C   0  0  0  0  0  0  0  0  0  0  0  0
    7.4139    4.0607    0.0000 N   0  0  0  0  0  0  0  0  0  0  0  0
    6.1523    0.7500    0.0000 C   0  0  0  0  0  0  0  0  0  0  0  0
    8.1639    2.7616    0.0000 C   0  0  0  0  0  0  0  0  0  0  0  0
    8.1639    5.3597    0.0000 C   0  0  0  0  0  0  0  0  0  0  0  0
  1  2  2  0  0  0  0
  2  3  1  0  0  0  0
  2  5  1  0  0  0  0
  3  4  2  0  0  0  0
  3  7  1  0  0  0  0
  5  7  2  0  0  0  0
  5  6  1  0  0  0  0
  6  9  1  0  0  0  0
  7  8  1  0  0  0  0
  8 10  1  0  0  0  0
  8 11  1  0  0  0  0
M  END
