33182
 OpenBabel03021519512D

 21 23  0  0  0  0  0  0  0  0999 V2000
   -3.5486   -2.3317    0.0000 O   0  0  0  0  0  0  0  0  0  0  0  0
   -4.9123    0.3404    0.0000 H   0  0  0  0  0  0  0  0  0  0  0  0
   -3.4143    0.2629    0.0000 N   0  0  0  0  0  0  0  0  0  0  0  0
   -1.2344   -1.1507    0.0000 N   0  0  0  0  0  0  0  0  0  0  0  0
   -3.2800    2.8575    0.0000 S   0  0  0  0  0  0  0  0  0  0  0  0
   -0.5526   -2.4868    0.0000 H   0  0  0  0  0  0  0  0  0  0  0  0
   -0.0402    2.5052    0.0000 N   0  0  0  0  0  0  0  0  0  0  0  0
   -0.2758    3.9866    0.0000 H   0  0  0  0  0  0  0  0  0  0  0  0
    1.0631    0.3434    0.0000 N   0  0  0  0  0  0  0  0  0  0  0  0
    2.6328    2.5070    0.0000 S   0  0  0  0  0  0  0  0  0  0  0  0
   -2.5982    1.5214    0.0000 C   0  0  0  0  0  0  0  0  0  0  0  0
   -1.1002    1.4439    0.0000 C   0  0  0  0  0  0  0  0  0  0  0  0
   -0.4183    0.1078    0.0000 C   0  0  0  0  0  0  0  0  0  0  0  0
    1.2968    1.8251    0.0000 C   0  0  0  0  0  0  0  0  0  0  0  0
   -2.7324   -1.0732    0.0000 C   0  0  0  0  0  0  0  0  0  0  0  0
    3.5731   -0.3273    0.0000 C   0  0  0  0  0  0  0  0  0  0  0  0
    4.6344   -1.3873    0.0000 C   0  0  0  0  0  0  0  0  0  0  0  0
    2.1244   -0.7165    0.0000 C   0  0  0  0  0  0  0  0  0  0  0  0
    4.2471   -2.8364    0.0000 C   0  0  0  0  0  0  0  0  0  0  0  0
    1.7371   -2.1657    0.0000 C   0  0  0  0  0  0  0  0  0  0  0  0
    2.7985   -3.2256    0.0000 C   0  0  0  0  0  0  0  0  0  0  0  0
  1 15  2  0  0  0  0
  2  3  1  0  0  0  0
  3 11  1  0  0  0  0
  3 15  1  0  0  0  0
  4 13  1  0  0  0  0
  4 15  1  0  0  0  0
  4  6  1  0  0  0  0
  5 11  2  0  0  0  0
  7 12  1  0  0  0  0
  7 14  1  0  0  0  0
  7  8  1  0  0  0  0
  9 13  1  0  0  0  0
  9 14  1  0  0  0  0
  9 18  1  0  0  0  0
 10 14  2  0  0  0  0
 11 12  1  0  0  0  0
 12 13  2  0  0  0  0
 16 17  2  0  0  0  0
 16 18  1  0  0  0  0
 17 19  1  0  0  0  0
 18 20  2  0  0  0  0
 19 21  2  0  0  0  0
 20 21  1  0  0  0  0
M  END
