152632
 OpenBabel03021519512D

 11 11  0  0  0  0  0  0  0  0999 V2000
    0.6168    1.0654    0.0000 C   0  0  0  0  0  0  0  0  0  0  0  0
   -0.9353   -0.8005    0.0000 C   0  0  0  0  0  0  0  0  0  0  0  0
   -2.2039   -1.6009    0.0000 O   0  0  0  0  0  0  0  0  0  0  0  0
   -0.8370    0.6963    0.0000 N   0  0  0  0  0  0  0  0  0  0  0  0
    0.4579   -1.3565    0.0000 N   0  0  0  0  0  0  0  0  0  0  0  0
    1.1728    2.4586    0.0000 O   0  0  0  0  0  0  0  0  0  0  0  0
    1.4172   -0.2033    0.0000 S   0  0  0  0  0  0  0  0  0  0  0  0
   -2.1451   -3.0997    0.0000 C   0  0  0  0  0  0  0  0  0  0  0  0
   -3.4138   -3.9000    0.0000 C   0  0  0  0  0  0  0  0  0  0  0  0
    2.6572    2.6737    0.0000 C   0  0  0  0  0  0  0  0  0  0  0  0
    3.2132    4.0669    0.0000 C   0  0  0  0  0  0  0  0  0  0  0  0
  1  6  1  0  0  0  0
  1  4  2  0  0  0  0
  1  7  1  0  0  0  0
  2  4  1  0  0  0  0
  2  3  1  0  0  0  0
  2  5  2  0  0  0  0
  3  8  1  0  0  0  0
  5  7  1  0  0  0  0
  6 10  1  0  0  0  0
  8  9  1  0  0  0  0
 10 11  1  0  0  0  0
M  END
