39336
 OpenBabel03021519512D

 16 17  0  0  0  0  0  0  0  0999 V2000
  -10.5940    2.2504    0.0000 N   0  0  0  0  0  0  0  0  0  0  0  0
   -9.2949    0.0004    0.0000 N   0  0  0  0  0  0  0  0  0  0  0  0
   -9.2949    4.5004    0.0000 S   0  0  0  0  0  0  0  0  0  0  0  0
   -9.2949   -1.4996    0.0000 H   0  0  0  0  0  0  0  0  0  0  0  0
   -6.5693    2.7139    0.0000 N   0  0  0  0  0  0  0  0  0  0  0  0
   -6.5693    0.2869    0.0000 N   0  0  0  0  0  0  0  0  0  0  0  0
   -9.2949    3.0004    0.0000 C   0  0  0  0  0  0  0  0  0  0  0  0
   -7.9959    2.2504    0.0000 C   0  0  0  0  0  0  0  0  0  0  0  0
   -7.9959    0.7504    0.0000 C   0  0  0  0  0  0  0  0  0  0  0  0
   -5.6876    1.5004    0.0000 C   0  0  0  0  0  0  0  0  0  0  0  0
  -10.5940    0.7504    0.0000 C   0  0  0  0  0  0  0  0  0  0  0  0
  -11.8930    0.0004    0.0000 N   0  0  0  0  0  0  0  0  0  0  0  0
   -6.1058   -1.1397    0.0000 C   0  0  0  0  0  0  0  0  0  0  0  0
   -4.6385   -1.4516    0.0000 C   0  0  0  0  0  0  0  0  0  0  0  0
   -4.1750   -2.8782    0.0000 C   0  0  0  0  0  0  0  0  0  0  0  0
   -2.7078   -3.1900    0.0000 C   0  0  0  0  0  0  0  0  0  0  0  0
  1 11  2  0  0  0  0
  1  7  1  0  0  0  0
  2  9  1  0  0  0  0
  2 11  1  0  0  0  0
  2  4  1  0  0  0  0
  3  7  2  0  0  0  0
  5 10  2  0  0  0  0
  5  8  1  0  0  0  0
  6  9  1  0  0  0  0
  6 10  1  0  0  0  0
  6 13  1  0  0  0  0
  7  8  1  0  0  0  0
  8  9  2  0  0  0  0
 11 12  1  0  0  0  0
 13 14  1  0  0  0  0
 14 15  1  0  0  0  0
 15 16  1  0  0  0  0
M  END
