607097
 OpenBabel03021519512D

 26 29  0  0  1  0  0  0  0  0999 V2000
   -6.3093   -6.0087    0.0000 C   0  0  0  0  0  0  0  0  0  0  0  0
   -7.6084   -5.2587    0.0000 C   0  0  0  0  0  0  0  0  0  0  0  0
   -8.9074   -6.0087    0.0000 C   0  0  0  0  0  0  0  0  0  0  0  0
   -8.9074   -7.5087    0.0000 C   0  0  0  0  0  0  0  0  0  0  0  0
   -7.6084   -8.2587    0.0000 C   0  0  0  0  0  0  0  0  0  0  0  0
   -6.3093   -7.5087    0.0000 C   0  0  0  0  0  0  0  0  0  0  0  0
   -5.0103   -5.2587    0.0000 C   0  0  0  0  0  0  0  0  0  0  0  0
   -3.7112   -6.0087    0.0000 C   0  0  3  0  0  0  0  0  0  0  0  0
   -3.7112   -7.5087    0.0000 N   0  0  3  0  0  0  0  0  0  0  0  0
   -5.0103   -8.2587    0.0000 C   0  0  3  0  0  0  0  0  0  0  0  0
   -2.4122   -5.2587    0.0000 C   0  0  3  0  0  0  0  0  0  0  0  0
   -1.1132   -6.0087    0.0000 N   0  0  0  0  0  0  0  0  0  0  0  0
   -1.1132   -7.5087    0.0000 C   0  0  3  0  0  0  0  0  0  0  0  0
   -2.4122   -8.2587    0.0000 C   0  0  3  0  0  0  0  0  0  0  0  0
   -0.9204   -5.1019    0.0000 C   0  0  3  0  0  0  0  0  0  0  0  0
   -0.3103   -6.4722    0.0000 C   0  0  0  0  0  0  0  0  0  0  0  0
    0.2964   -5.4957    0.0000 C   0  0  0  0  0  0  0  0  0  0  0  0
   -2.4122   -9.7587    0.0000 C   0  0  0  0  0  0  0  0  0  0  0  0
   -2.4122  -11.2587    0.0000 N   0  0  0  0  0  0  0  0  0  0  0  0
   -5.0103   -9.7587    0.0000 C   0  0  0  0  0  0  0  0  0  0  0  0
   -3.7112  -10.5087    0.0000 O   0  0  0  0  0  0  0  0  0  0  0  0
   -7.6084   -9.7587    0.0000 O   0  0  0  0  0  0  0  0  0  0  0  0
   -0.1704   -3.8029    0.0000 C   0  0  0  0  0  0  0  0  0  0  0  0
    1.3296   -3.8029    0.0000 O   0  0  0  0  0  0  0  0  0  0  0  0
   -0.9204   -2.5039    0.0000 O   0  0  0  0  0  0  0  0  0  0  0  0
   -8.9074  -10.5087    0.0000 C   0  0  0  0  0  0  0  0  0  0  0  0
  1  2  1  0  0  0  0
  1  6  2  0  0  0  0
  1  7  1  0  0  0  0
  2  3  2  0  0  0  0
  3  4  1  0  0  0  0
  4  5  2  0  0  0  0
  5  6  1  0  0  0  0
  5 22  1  0  0  0  0
  6 10  1  0  0  0  0
  7  8  1  0  0  0  0
  8  9  1  0  0  0  0
  8 11  1  0  0  0  0
  9 10  1  0  0  0  0
  9 14  1  0  0  0  0
 10 20  1  0  0  0  0
 11 12  1  0  0  0  0
 11 15  1  0  0  0  0
 12 13  1  0  0  0  0
 12 17  1  0  0  0  0
 13 14  1  0  0  0  0
 13 16  1  0  0  0  0
 14 18  1  0  0  0  0
 15 16  1  0  0  0  0
 15 23  1  0  0  0  0
 18 19  3  0  0  0  0
 20 21  1  0  0  0  0
 22 26  1  0  0  0  0
 23 24  1  0  0  0  0
 23 25  2  0  0  0  0
M  END
