70933
 OpenBabel03021519512D

 29 30  0  0  0  0  0  0  0  0999 V2000
  -15.0893   -8.2500    0.0000 Cl  0  0  0  0  0  0  0  0  0  0  0  0
   -9.8931   -5.2500    0.0000 C   0  0  0  0  0  0  0  0  0  0  0  0
   -8.5941   -3.0000    0.0000 N   0  0  0  0  0  0  0  0  0  0  0  0
   -5.9960   -7.5000    0.0000 N   0  0  0  0  0  0  0  0  0  0  0  0
   -9.8932   -0.7500    0.0000 C   0  0  0  0  0  0  0  0  0  0  0  0
  -11.1922   -1.5000    0.0000 C   0  0  0  0  0  0  0  0  0  0  0  0
   -8.5941   -1.5000    0.0000 C   0  0  0  0  0  0  0  0  0  0  0  0
  -11.1922   -3.0000    0.0000 C   0  0  0  0  0  0  0  0  0  0  0  0
   -9.8931   -3.7500    0.0000 C   0  0  0  0  0  0  0  0  0  0  0  0
   -7.2951   -5.2500    0.0000 C   0  0  0  0  0  0  0  0  0  0  0  0
   -5.9960   -6.0000    0.0000 C   0  0  0  0  0  0  0  0  0  0  0  0
   -8.5941   -6.0000    0.0000 C   0  0  0  0  0  0  0  0  0  0  0  0
   -8.5941   -7.5000    0.0000 C   0  0  0  0  0  0  0  0  0  0  0  0
   -7.2951   -8.2500    0.0000 C   0  0  0  0  0  0  0  0  0  0  0  0
  -12.4912   -5.2500    0.0000 C   0  0  0  0  0  0  0  0  0  0  0  0
  -13.7903   -6.0000    0.0000 C   0  0  0  0  0  0  0  0  0  0  0  0
  -11.1922   -6.0000    0.0000 C   0  0  0  0  0  0  0  0  0  0  0  0
  -11.1922   -7.5000    0.0000 C   0  0  0  0  0  0  0  0  0  0  0  0
  -13.7903   -7.5000    0.0000 C   0  0  0  0  0  0  0  0  0  0  0  0
  -12.4912   -8.2500    0.0000 C   0  0  0  0  0  0  0  0  0  0  0  0
   -9.1431   -9.7500    0.0000 C   0  0  0  0  0  0  0  0  0  0  0  0
   -8.3931  -11.0490    0.0000 C   0  0  0  0  0  0  0  0  0  0  0  0
   -6.8931  -11.0490    0.0000 O   0  0  0  0  0  0  0  0  0  0  0  0
   -9.1431  -12.3481    0.0000 O   0  0  0  0  0  0  0  0  0  0  0  0
  -10.6431   -9.7500    0.0000 C   0  0  0  0  0  0  0  0  0  0  0  0
  -11.3931  -11.0491    0.0000 C   0  0  0  0  0  0  0  0  0  0  0  0
  -12.8931  -11.0491    0.0000 O   0  0  0  0  0  0  0  0  0  0  0  0
  -10.6431  -12.3481    0.0000 O   0  0  0  0  0  0  0  0  0  0  0  0
   -4.6970   -8.2500    0.0000 C   0  0  0  0  0  0  0  0  0  0  0  0
  1 19  1  0  0  0  0
  2 12  2  0  0  0  0
  2  9  1  0  0  0  0
  2 17  1  0  0  0  0
  3  9  2  0  0  0  0
  3  7  1  0  0  0  0
  4 11  1  0  0  0  0
  4 14  1  0  0  0  0
  4 29  1  0  0  0  0
  5  7  2  0  0  0  0
  5  6  1  0  0  0  0
  6  8  2  0  0  0  0
  8  9  1  0  0  0  0
 10 11  1  0  0  0  0
 10 12  1  0  0  0  0
 12 13  1  0  0  0  0
 13 14  1  0  0  0  0
 15 16  2  0  0  0  0
 15 17  1  0  0  0  0
 16 19  1  0  0  0  0
 17 18  2  0  0  0  0
 18 20  1  0  0  0  0
 19 20  2  0  0  0  0
 21 22  1  0  0  0  0
 21 25  2  0  0  0  0
 22 23  2  0  0  0  0
 22 24  1  0  0  0  0
 25 26  1  0  0  0  0
 26 27  2  0  0  0  0
 26 28  1  0  0  0  0
M  END
