4292
 OpenBabel03021519512D

 26 29  0  0  0  0  0  0  0  0999 V2000
   -2.8995   -0.9240    0.0000 C   0  0  0  0  0  0  0  0  0  0  0  0
   -4.3995   -0.9240    0.0000 C   0  0  0  0  0  0  0  0  0  0  0  0
   -2.1495   -2.2231    0.0000 C   0  0  0  0  0  0  0  0  0  0  0  0
   -5.1495    0.3750    0.0000 C   0  0  0  0  0  0  0  0  0  0  0  0
   -2.8995   -3.5221    0.0000 C   0  0  0  0  0  0  0  0  0  0  0  0
   -5.1495   -2.2231    0.0000 C   0  0  0  0  0  0  0  0  0  0  0  0
   -7.3995   -0.9240    0.0000 C   0  0  0  0  0  0  0  0  0  0  0  0
   -4.3995   -3.5221    0.0000 C   0  0  0  0  0  0  0  0  0  0  0  0
   -6.6495   -2.2231    0.0000 C   0  0  0  0  0  0  0  0  0  0  0  0
  -14.7568    4.4731    0.0000 C   0  0  0  0  0  0  0  0  0  0  0  0
  -13.4578    3.7231    0.0000 C   0  0  0  0  0  0  0  0  0  0  0  0
  -16.0559    3.7231    0.0000 C   0  0  0  0  0  0  0  0  0  0  0  0
  -13.4578    2.2231    0.0000 C   0  0  0  0  0  0  0  0  0  0  0  0
  -16.0559    2.2231    0.0000 C   0  0  0  0  0  0  0  0  0  0  0  0
  -14.7568    1.4731    0.0000 C   0  0  0  0  0  0  0  0  0  0  0  0
  -11.1495    2.9731    0.0000 C   0  0  0  0  0  0  0  0  0  0  0  0
  -17.3549    4.4731    0.0000 N   0  3  0  0  0  0  0  0  0  0  0  0
  -18.6540    3.7231    0.0000 O   0  5  0  0  0  0  0  0  0  0  0  0
  -17.3549    5.9731    0.0000 O   0  0  0  0  0  0  0  0  0  0  0  0
   -9.6495    2.9731    0.0000 S   0  0  0  0  0  0  0  0  0  0  0  0
   -8.8995    1.6740    0.0000 C   0  0  0  0  0  0  0  0  0  0  0  0
   -7.3995    1.6740    0.0000 C   0  0  0  0  0  0  0  0  0  0  0  0
   -6.6495    0.3750    0.0000 C   0  0  0  0  0  0  0  0  0  0  0  0
   -6.6495    2.9731    0.0000 O   0  0  0  0  0  0  0  0  0  0  0  0
  -12.0312    1.7595    0.0000 N   0  0  0  0  0  0  0  0  0  0  0  0
  -12.0312    4.1866    0.0000 S   0  0  0  0  0  0  0  0  0  0  0  0
  1  3  2  0  0  0  0
  1  2  1  0  0  0  0
  2  6  2  0  0  0  0
  2  4  1  0  0  0  0
  3  5  1  0  0  0  0
  4 23  2  0  0  0  0
  5  8  2  0  0  0  0
  6  8  1  0  0  0  0
  6  9  1  0  0  0  0
  7  9  2  0  0  0  0
  7 23  1  0  0  0  0
 10 12  2  0  0  0  0
 10 11  1  0  0  0  0
 11 13  2  0  0  0  0
 11 26  1  0  0  0  0
 12 14  1  0  0  0  0
 12 17  1  0  0  0  0
 13 15  1  0  0  0  0
 13 25  1  0  0  0  0
 14 15  2  0  0  0  0
 16 20  1  0  0  0  0
 16 25  2  0  0  0  0
 16 26  1  0  0  0  0
 17 18  1  0  0  0  0
 17 19  2  0  0  0  0
 20 21  1  0  0  0  0
 21 22  1  0  0  0  0
 22 23  1  0  0  0  0
 22 24  2  0  0  0  0
M  CHG  2  17   1  18  -1
M  END
