309874
 OpenBabel03021519512D

 31 35  0  0  1  0  0  0  0  0999 V2000
   -1.2255    3.6226    0.0000 C   0  0  0  0  0  0  0  0  0  0  0  0
    0.2745    3.6226    0.0000 C   0  0  0  0  0  0  0  0  0  0  0  0
    1.0245    4.9216    0.0000 C   0  0  0  0  0  0  0  0  0  0  0  0
    0.2745    6.2207    0.0000 C   0  0  0  0  0  0  0  0  0  0  0  0
   -1.2255    6.2207    0.0000 C   0  0  0  0  0  0  0  0  0  0  0  0
   -1.9755    4.9216    0.0000 C   0  0  0  0  0  0  0  0  0  0  0  0
    1.0245    7.5197    0.0000 C   0  0  3  0  0  0  0  0  0  0  0  0
    0.2745    8.8187    0.0000 N   0  0  0  0  0  0  0  0  0  0  0  0
   -1.2255    8.8187    0.0000 C   0  0  0  0  0  0  0  0  0  0  0  0
   -1.9755    7.5197    0.0000 C   0  0  0  0  0  0  0  0  0  0  0  0
    2.5245    7.5197    0.0000 C   0  0  0  0  0  0  0  0  0  0  0  0
    3.2745    6.2207    0.0000 C   0  0  0  0  0  0  0  0  0  0  0  0
    4.7745    6.2207    0.0000 C   0  0  0  0  0  0  0  0  0  0  0  0
    5.5245    4.9216    0.0000 C   0  0  0  0  0  0  0  0  0  0  0  0
    4.7745    3.6226    0.0000 C   0  0  0  0  0  0  0  0  0  0  0  0
    3.2745    3.6226    0.0000 C   0  0  0  0  0  0  0  0  0  0  0  0
    2.5245    4.9216    0.0000 C   0  0  0  0  0  0  0  0  0  0  0  0
    1.0245   10.1178    0.0000 C   0  0  0  0  0  0  0  0  0  0  0  0
    7.0245    7.5197    0.0000 C   0  0  0  0  0  0  0  0  0  0  0  0
    7.7745    6.2207    0.0000 O   0  0  0  0  0  0  0  0  0  0  0  0
    7.7745    8.8187    0.0000 C   0  0  0  0  0  0  0  0  0  0  0  0
    9.2663    8.9755    0.0000 C   0  0  0  0  0  0  0  0  0  0  0  0
    7.1644   10.1891    0.0000 S   0  0  0  0  0  0  0  0  0  0  0  0
   10.2700    7.8608    0.0000 Cl  0  0  0  0  0  0  0  0  0  0  0  0
    8.2791   12.6927    0.0000 C   0  0  0  0  0  0  0  0  0  0  0  0
    8.2791   11.1927    0.0000 C   0  0  0  0  0  0  0  0  0  0  0  0
    9.5782   10.4428    0.0000 C   0  0  0  0  0  0  0  0  0  0  0  0
   10.8772   11.1928    0.0000 C   0  0  0  0  0  0  0  0  0  0  0  0
   10.8772   12.6928    0.0000 C   0  0  0  0  0  0  0  0  0  0  0  0
    9.5782   13.4428    0.0000 C   0  0  0  0  0  0  0  0  0  0  0  0
    5.5245    7.5197    0.0000 N   0  0  0  0  0  0  0  0  0  0  0  0
  1  2  1  0  0  0  0
  1  6  2  0  0  0  0
  2  3  2  0  0  0  0
  3  4  1  0  0  0  0
  4  5  2  0  0  0  0
  4  7  1  0  0  0  0
  5  6  1  0  0  0  0
  5 10  1  0  0  0  0
  7  8  1  0  0  0  0
  7 11  1  0  0  0  0
  8  9  1  0  0  0  0
  8 18  1  0  0  0  0
  9 10  1  0  0  0  0
 11 12  1  0  0  0  0
 12 13  2  0  0  0  0
 12 17  1  0  0  0  0
 13 14  1  0  0  0  0
 13 31  1  0  0  0  0
 14 15  2  0  0  0  0
 15 16  1  0  0  0  0
 16 17  2  0  0  0  0
 19 20  2  0  0  0  0
 19 21  1  0  0  0  0
 19 31  1  0  0  0  0
 21 22  2  0  0  0  0
 21 23  1  0  0  0  0
 22 24  1  0  0  0  0
 22 27  1  0  0  0  0
 23 26  1  0  0  0  0
 25 26  1  0  0  0  0
 25 30  2  0  0  0  0
 26 27  2  0  0  0  0
 27 28  1  0  0  0  0
 28 29  2  0  0  0  0
 29 30  1  0  0  0  0
M  END
