316458
 OpenBabel03021519512D

 19 21  0  0  1  0  0  0  0  0999 V2000
    2.3236   -1.0245    0.0000 N   0  0  0  0  0  0  0  0  0  0  0  0
    2.3236   -2.5245    0.0000 C   0  0  0  0  0  0  0  0  0  0  0  0
    3.6226   -0.2745    0.0000 C   0  0  0  0  0  0  0  0  0  0  0  0
    3.6226   -3.2745    0.0000 N   0  0  0  0  0  0  0  0  0  0  0  0
    6.8117   -6.8417    0.0000 C   0  0  0  0  0  0  0  0  0  0  0  0
    5.9301   -5.6282    0.0000 C   0  0  0  0  0  0  0  0  0  0  0  0
    4.9216   -2.5245    0.0000 C   0  0  0  0  0  0  0  0  0  0  0  0
    8.2383   -6.3782    0.0000 C   0  0  3  0  0  0  0  0  0  0  0  0
    4.9216   -1.0245    0.0000 C   0  0  0  0  0  0  0  0  0  0  0  0
    8.2383   -4.8782    0.0000 C   0  0  3  0  0  0  0  0  0  0  0  0
    6.3482   -2.9880    0.0000 N   0  0  0  0  0  0  0  0  0  0  0  0
    6.8117   -4.4146    0.0000 C   0  0  3  0  0  0  0  0  0  0  0  0
    7.2299   -1.7745    0.0000 C   0  0  0  0  0  0  0  0  0  0  0  0
    6.3482   -0.5610    0.0000 N   0  0  0  0  0  0  0  0  0  0  0  0
    7.3519   -9.3830    0.0000 O   0  0  0  0  0  0  0  0  0  0  0  0
    6.3482   -8.2683    0.0000 C   0  0  0  0  0  0  0  0  0  0  0  0
    3.6226    1.2255    0.0000 N   0  0  0  0  0  0  0  0  0  0  0  0
    9.4519   -7.2598    0.0000 O   0  0  0  0  0  0  0  0  0  0  0  0
    9.4519   -3.9965    0.0000 O   0  0  0  0  0  0  0  0  0  0  0  0
  1  3  2  0  0  0  0
  1  2  1  0  0  0  0
  2  4  2  0  0  0  0
  3  9  1  0  0  0  0
  3 17  1  0  0  0  0
  4  7  1  0  0  0  0
  5  6  2  0  0  0  0
  5  8  1  0  0  0  0
  5 16  1  0  0  0  0
  6 12  1  0  0  0  0
  7  9  2  0  0  0  0
  7 11  1  0  0  0  0
  8 10  1  0  0  0  0
  8 18  1  0  0  0  0
  9 14  1  0  0  0  0
 10 12  1  0  0  0  0
 10 19  1  0  0  0  0
 11 13  1  0  0  0  0
 11 12  1  0  0  0  0
 13 14  2  0  0  0  0
 15 16  1  0  0  0  0
M  END
