133002
 OpenBabel03021519512D

 17 18  0  0  0  0  0  0  0  0999 V2000
   -7.1640   -6.4642    0.0000 O   0  0  0  0  0  0  0  0  0  0  0  0
   -7.1640   -9.4642    0.0000 O   0  0  0  0  0  0  0  0  0  0  0  0
   -5.8650   -7.2142    0.0000 P   0  0  3  0  0  0  0  0  0  0  0  0
   -5.3519   -5.8046    0.0000 O   0  0  0  0  0  0  0  0  0  0  0  0
   -4.3878   -7.4746    0.0000 O   0  0  0  0  0  0  0  0  0  0  0  0
   -3.9366   -4.9160    0.0000 C   0  0  0  0  0  0  0  0  0  0  0  0
   -2.9724   -3.7670    0.0000 C   0  0  0  0  0  0  0  0  0  0  0  0
   -3.4236   -6.3256    0.0000 C   0  0  0  0  0  0  0  0  0  0  0  0
   -1.4952   -4.0274    0.0000 C   0  0  0  0  0  0  0  0  0  0  0  0
   -1.9464   -6.5860    0.0000 C   0  0  0  0  0  0  0  0  0  0  0  0
   -0.9822   -5.4370    0.0000 C   0  0  0  0  0  0  0  0  0  0  0  0
   -8.4630   -7.2142    0.0000 C   0  0  0  0  0  0  0  0  0  0  0  0
   -8.4630   -8.7142    0.0000 C   0  0  0  0  0  0  0  0  0  0  0  0
   -5.8650   -8.7142    0.0000 C   0  0  0  0  0  0  0  0  0  0  0  0
   -0.5310   -2.8784    0.0000 N   0  3  0  0  0  0  0  0  0  0  0  0
   -1.0441   -1.4688    0.0000 O   0  5  0  0  0  0  0  0  0  0  0  0
    0.9462   -3.1388    0.0000 O   0  0  0  0  0  0  0  0  0  0  0  0
  1  3  1  0  0  0  0
  1 12  1  0  0  0  0
  2 13  1  0  0  0  0
  2 14  1  0  0  0  0
  3  4  2  0  0  0  0
  3  5  1  0  0  0  0
  3 14  1  0  0  0  0
  5  8  1  0  0  0  0
  6  7  2  0  0  0  0
  6  8  1  0  0  0  0
  7  9  1  0  0  0  0
  8 10  2  0  0  0  0
  9 11  2  0  0  0  0
  9 15  1  0  0  0  0
 10 11  1  0  0  0  0
 12 13  1  0  0  0  0
 15 16  1  0  0  0  0
 15 17  2  0  0  0  0
M  CHG  2  15   1  16  -1
M  END
