339630
 OpenBabel03021519512D

 24 24  0  0  0  0  0  0  0  0999 V2000
   -5.1432   -7.6523    0.0000 C   0  0  0  0  0  0  0  0  0  0  0  0
   -3.9705   -6.7171    0.0000 C   0  0  0  0  0  0  0  0  0  0  0  0
   -3.9705   -8.5876    0.0000 N   0  0  0  0  0  0  0  0  0  0  0  0
   -2.5081   -7.0509    0.0000 N   0  0  0  0  0  0  0  0  0  0  0  0
   -3.9705  -10.0876    0.0000 C   0  0  0  0  0  0  0  0  0  0  0  0
   -2.5081   -9.7538    0.0000 C   0  0  0  0  0  0  0  0  0  0  0  0
   -1.5729   -5.8781    0.0000 H   0  0  0  0  0  0  0  0  0  0  0  0
   -1.8573   -8.4023    0.0000 C   0  0  0  0  0  0  0  0  0  0  0  0
   -4.9057  -11.2603    0.0000 N   0  0  0  0  0  0  0  0  0  0  0  0
   -4.3577  -12.6566    0.0000 C   0  0  0  0  0  0  0  0  0  0  0  0
   -5.7540  -13.2046    0.0000 C   0  0  0  0  0  0  0  0  0  0  0  0
   -2.9614  -12.1086    0.0000 C   0  0  0  0  0  0  0  0  0  0  0  0
   -3.8097  -14.0529    0.0000 C   0  0  0  0  0  0  0  0  0  0  0  0
   -0.3573   -8.4023    0.0000 C   0  0  0  0  0  0  0  0  0  0  0  0
    0.3927   -7.1033    0.0000 C   0  0  0  0  0  0  0  0  0  0  0  0
    1.8927   -7.1033    0.0000 C   0  0  0  0  0  0  0  0  0  0  0  0
    2.6427   -8.4023    0.0000 C   0  0  0  0  0  0  0  0  0  0  0  0
    1.8927   -9.7014    0.0000 C   0  0  0  0  0  0  0  0  0  0  0  0
    0.3927   -9.7014    0.0000 C   0  0  0  0  0  0  0  0  0  0  0  0
    2.6092  -14.9706    0.0000 C   0  0  0  0  0  0  0  0  0  0  0  0
    2.2755  -13.5082    0.0000 S   0  0  0  0  0  0  0  0  0  0  0  0
    3.7378  -13.1744    0.0000 O   0  0  0  0  0  0  0  0  0  0  0  0
    0.8131  -13.8420    0.0000 O   0  0  0  0  0  0  0  0  0  0  0  0
    1.9417  -12.0458    0.0000 O   0  0  0  0  0  0  0  0  0  0  0  0
  1  2  1  0  0  0  0
  1  3  1  0  0  0  0
  2  4  1  0  0  0  0
  3  5  2  0  0  0  0
  4  7  1  0  0  0  0
  4  8  1  0  0  0  0
  5  6  1  0  0  0  0
  5  9  1  0  0  0  0
  6  8  2  0  0  0  0
  8 14  1  0  0  0  0
  9 10  1  0  0  0  0
 10 11  1  0  0  0  0
 10 12  1  0  0  0  0
 10 13  1  0  0  0  0
 14 15  2  0  0  0  0
 14 19  1  0  0  0  0
 15 16  1  0  0  0  0
 16 17  2  0  0  0  0
 17 18  1  0  0  0  0
 18 19  2  0  0  0  0
 20 21  1  0  0  0  0
 21 22  2  0  0  0  0
 21 23  2  0  0  0  0
 21 24  1  0  0  0  0
M  END
