638636
 OpenBabel03021519512D

 10  8  0  0  0  0  0  0  0  0999 V2000
   -1.1083   -6.4197    0.0000 C   0  0  0  0  0  0  0  0  0  0  0  0
    0.1907   -7.1696    0.0000 C   0  0  0  0  0  0  0  0  0  0  0  0
    0.1907   -8.6696    0.0000 O   0  0  0  0  0  0  0  0  0  0  0  0
    1.4898   -6.4196    0.0000 C   0  0  0  0  0  0  0  0  0  0  0  0
    1.4898   -4.9196    0.0000 C   0  0  0  0  0  0  0  0  0  0  0  0
    0.1907   -4.1696    0.0000 N   0  3  0  0  0  0  0  0  0  0  0  0
   -1.1083   -4.9196    0.0000 C   0  0  0  0  0  0  0  0  0  0  0  0
   -1.1083   -3.4196    0.0000 C   0  0  0  0  0  0  0  0  0  0  0  0
    0.1907   -2.6696    0.0000 C   0  0  0  0  0  0  0  0  0  0  0  0
    2.7888   -7.1697    0.0000 I   0  5  0  0  0  0  0  0  0  0  0  0
  1  2  1  0  0  0  0
  2  3  2  0  0  0  0
  2  4  1  0  0  0  0
  4  5  1  0  0  0  0
  5  6  1  0  0  0  0
  6  7  1  0  0  0  0
  6  8  1  0  0  0  0
  6  9  1  0  0  0  0
M  CHG  2   6   1  10  -1
M  END
