165704
 OpenBabel03021519512D

 25 28  0  0  0  0  0  0  0  0999 V2000
   -5.6275    5.5327    0.0000 O   0  0  0  0  0  0  0  0  0  0  0  0
   -0.2745    5.5245    0.0000 N   0  0  0  0  0  0  0  0  0  0  0  0
    2.3948    7.1644    0.0000 O   0  0  0  0  0  0  0  0  0  0  0  0
   -7.0947    5.2209    0.0000 C   0  0  0  0  0  0  0  0  0  0  0  0
   -7.8447    6.5199    0.0000 C   0  0  0  0  0  0  0  0  0  0  0  0
   -6.8410    7.6346    0.0000 C   0  0  0  0  0  0  0  0  0  0  0  0
   -5.4707    7.0245    0.0000 C   0  0  0  0  0  0  0  0  0  0  0  0
    3.3985    8.2791    0.0000 C   0  0  0  0  0  0  0  0  0  0  0  0
    2.6485    9.5782    0.0000 C   0  0  0  0  0  0  0  0  0  0  0  0
    1.1813    9.2663    0.0000 C   0  0  0  0  0  0  0  0  0  0  0  0
    1.0245    7.7745    0.0000 C   0  0  0  0  0  0  0  0  0  0  0  0
   -2.8726    5.5245    0.0000 C   0  0  0  0  0  0  0  0  0  0  0  0
   -1.5736    4.7745    0.0000 C   0  0  0  0  0  0  0  0  0  0  0  0
   -4.1716    4.7745    0.0000 C   0  0  0  0  0  0  0  0  0  0  0  0
   -1.5736    3.2745    0.0000 C   0  0  0  0  0  0  0  0  0  0  0  0
   -4.1716    3.2745    0.0000 C   0  0  0  0  0  0  0  0  0  0  0  0
   -0.2745    2.5245    0.0000 C   0  0  0  0  0  0  0  0  0  0  0  0
    1.0245    4.7745    0.0000 C   0  0  0  0  0  0  0  0  0  0  0  0
    1.0245    3.2745    0.0000 C   0  0  0  0  0  0  0  0  0  0  0  0
   -2.8726    2.5245    0.0000 C   0  0  0  0  0  0  0  0  0  0  0  0
   -4.1716    7.7745    0.0000 C   0  0  0  0  0  0  0  0  0  0  0  0
   -4.1716    9.2745    0.0000 O   0  0  0  0  0  0  0  0  0  0  0  0
   -2.8726    7.0245    0.0000 N   0  0  0  0  0  0  0  0  0  0  0  0
   -0.2745    7.0245    0.0000 C   0  0  0  0  0  0  0  0  0  0  0  0
   -1.5736    7.7745    0.0000 O   0  0  0  0  0  0  0  0  0  0  0  0
  1  4  1  0  0  0  0
  1  7  1  0  0  0  0
  2 13  1  0  0  0  0
  2 18  1  0  0  0  0
  2 24  1  0  0  0  0
  3  8  1  0  0  0  0
  3 11  1  0  0  0  0
  4  5  2  0  0  0  0
  5  6  1  0  0  0  0
  6  7  2  0  0  0  0
  7 21  1  0  0  0  0
  8  9  2  0  0  0  0
  9 10  1  0  0  0  0
 10 11  2  0  0  0  0
 11 24  1  0  0  0  0
 12 14  2  0  0  0  0
 12 13  1  0  0  0  0
 12 23  1  0  0  0  0
 13 15  2  0  0  0  0
 14 16  1  0  0  0  0
 15 17  1  0  0  0  0
 15 20  1  0  0  0  0
 16 20  2  0  0  0  0
 17 19  1  0  0  0  0
 18 19  1  0  0  0  0
 21 22  2  0  0  0  0
 21 23  1  0  0  0  0
 24 25  2  0  0  0  0
M  END
