70413
 OpenBabel03021519512D

 24 28  0  0  1  0  0  0  0  0999 V2000
   -0.5055   -1.9919    0.0000 O   0  0  0  0  0  0  0  0  0  0  0  0
    0.4474    1.7880    0.0000 N   0  0  0  0  0  0  0  0  0  0  0  0
    2.1194   -1.9189    0.0000 O   0  0  0  0  0  0  0  0  0  0  0  0
    1.2574    1.7880    0.0000 C   0  0  0  0  0  0  0  0  0  0  0  0
    0.4474    0.9770    0.0000 C   0  0  1  0  0  0  0  0  0  0  0  0
    0.8664    0.2520    0.0000 C   0  0  2  0  0  0  0  0  0  0  0  0
   -0.3894    0.9770    0.0000 C   0  0  0  0  0  0  0  0  0  0  0  0
   -0.8075    0.2520    0.0000 C   0  0  0  0  0  0  0  0  0  0  0  0
    1.7044    0.2500    0.0000 C   0  0  0  0  0  0  0  0  0  0  0  0
    2.1235   -0.4749    0.0000 C   0  0  0  0  0  0  0  0  0  0  0  0
    0.4474   -0.4718    0.0000 C   0  0  2  0  0  0  0  0  0  0  0  0
   -0.3894   -0.4718    0.0000 C   0  0  0  0  0  0  0  0  0  0  0  0
   -1.6445    0.2520    0.0000 C   0  0  0  0  0  0  0  0  0  0  0  0
   -2.0635   -0.4718    0.0000 C   0  0  0  0  0  0  0  0  0  0  0  0
    1.2574   -0.4718    0.0000 C   0  0  0  0  0  0  0  0  0  0  0  0
    1.7044   -1.1999    0.0000 C   0  0  0  0  0  0  0  0  0  0  0  0
    0.8674   -1.1999    0.0000 C   0  0  2  0  0  0  0  0  0  0  0  0
   -0.8075   -1.1968    0.0000 C   0  0  0  0  0  0  0  0  0  0  0  0
   -1.6445   -1.1968    0.0000 C   0  0  0  0  0  0  0  0  0  0  0  0
   -1.7085    2.2030    0.0000 C   0  0  0  0  0  0  0  0  0  0  0  0
   -2.0595   -1.9159    0.0000 O   0  0  0  0  0  0  0  0  0  0  0  0
   -0.9894    1.7880    0.0000 C   0  0  0  0  0  0  0  0  0  0  0  0
   -0.2705    2.2030    0.0000 C   0  0  0  0  0  0  0  0  0  0  0  0
    0.0364    0.2530    0.0000 O   0  0  0  0  0  0  0  0  0  0  0  0
  1 18  1  0  0  0  0
  2  4  1  0  0  0  0
  2 23  1  0  0  0  0
  3 16  2  0  0  0  0
  4 15  1  0  0  0  0
  5  2  1  1  0  0  0
  5  6  1  0  0  0  0
  5  7  1  0  0  0  0
  6  9  1  0  0  0  0
  6 11  1  0  0  0  0
  6 24  1  1  0  0  0
  7  8  1  0  0  0  0
  8 12  2  0  0  0  0
  8 13  1  0  0  0  0
  9 10  1  0  0  0  0
 10 16  1  0  0  0  0
 11 17  1  0  0  0  0
 11 15  1  1  0  0  0
 11 12  1  0  0  0  0
 12 18  1  0  0  0  0
 13 14  2  0  0  0  0
 14 19  1  0  0  0  0
 16 17  1  0  0  0  0
 17  1  1  6  0  0  0
 18 19  2  0  0  0  0
 19 21  1  0  0  0  0
 20 22  2  0  0  0  0
 22 23  1  0  0  0  0
M  END
