156616
 OpenBabel03021519512D

 14 15  0  0  0  0  0  0  0  0999 V2000
   -1.9248   -0.4574    0.0000 N   0  0  0  0  0  0  0  0  0  0  0  0
    0.2367    0.6465    0.0000 N   0  0  0  0  0  0  0  0  0  0  0  0
    0.2392   -2.0265    0.0000 O   0  0  0  0  0  0  0  0  0  0  0  0
    2.7797   -0.1772    0.0000 N   0  0  0  0  0  0  0  0  0  0  0  0
    2.3978    2.2197    0.0000 S   0  0  0  0  0  0  0  0  0  0  0  0
    4.1156    0.5051    0.0000 N   0  0  0  0  0  0  0  0  0  0  0  0
   -0.8249    1.7062    0.0000 C   0  0  0  0  0  0  0  0  0  0  0  0
   -2.1608    1.0240    0.0000 C   0  0  0  0  0  0  0  0  0  0  0  0
    3.8795    1.9864    0.0000 C   0  0  0  0  0  0  0  0  0  0  0  0
    1.7180    0.8825    0.0000 C   0  0  0  0  0  0  0  0  0  0  0  0
   -0.4430   -0.6906    0.0000 C   0  0  0  0  0  0  0  0  0  0  0  0
   -2.9845   -1.5190    0.0000 N   0  3  0  0  0  0  0  0  0  0  0  0
   -4.4337   -1.1321    0.0000 O   0  5  0  0  0  0  0  0  0  0  0  0
   -2.5949   -2.9675    0.0000 O   0  0  0  0  0  0  0  0  0  0  0  0
  1  8  1  0  0  0  0
  1 11  1  0  0  0  0
  1 12  1  0  0  0  0
  2  7  1  0  0  0  0
  2 10  1  0  0  0  0
  2 11  1  0  0  0  0
  3 11  2  0  0  0  0
  4 10  2  0  0  0  0
  4  6  1  0  0  0  0
  5  9  1  0  0  0  0
  5 10  1  0  0  0  0
  6  9  2  0  0  0  0
  7  8  1  0  0  0  0
 12 13  1  0  0  0  0
 12 14  2  0  0  0  0
M  CHG  2  12   1  13  -1
M  END
