228137
 OpenBabel03021519512D

 23 25  0  0  0  0  0  0  0  0999 V2000
    0.9510   -3.0000    0.0000 C   0  0  0  0  0  0  0  0  0  0  0  0
    0.9510   -4.5000    0.0000 C   0  0  0  0  0  0  0  0  0  0  0  0
    0.7500   -6.7500    0.0000 O   0  0  0  0  0  0  0  0  0  0  0  0
    0.9510   -9.0000    0.0000 C   0  0  0  0  0  0  0  0  0  0  0  0
    0.9510  -10.5000    0.0000 C   0  0  0  0  0  0  0  0  0  0  0  0
    2.2500   -5.2500    0.0000 C   0  0  0  0  0  0  0  0  0  0  0  0
    2.2500   -6.7500    0.0000 S   0  0  0  0  0  0  0  0  0  0  0  0
    2.2500   -2.2500    0.0000 C   0  0  0  0  0  0  0  0  0  0  0  0
    2.2500   -8.2500    0.0000 C   0  0  0  0  0  0  0  0  0  0  0  0
    2.2500  -11.2500    0.0000 C   0  0  0  0  0  0  0  0  0  0  0  0
    2.2500  -12.7500    0.0000 O   0  0  0  0  0  0  0  0  0  0  0  0
    3.5490   -9.0000    0.0000 C   0  0  0  0  0  0  0  0  0  0  0  0
    3.5490   -3.0000    0.0000 C   0  0  0  0  0  0  0  0  0  0  0  0
    3.5490  -10.5000    0.0000 C   0  0  0  0  0  0  0  0  0  0  0  0
    3.7500   -6.7500    0.0000 O   0  0  0  0  0  0  0  0  0  0  0  0
    3.5490   -4.5000    0.0000 C   0  0  0  0  0  0  0  0  0  0  0  0
    4.9756  -10.9635    0.0000 N   0  0  0  0  0  0  0  0  0  0  0  0
    5.4391   -7.1099    0.0000 O   0  5  0  0  0  0  0  0  0  0  0  0
    4.9756   -8.5365    0.0000 N   0  3  0  0  0  0  0  0  0  0  0  0
    5.8573   -9.7500    0.0000 O   0  0  0  0  0  0  0  0  0  0  0  0
    2.2500   -0.7500    0.0000 C   0  0  0  0  0  0  0  0  0  0  0  0
    3.5490  -13.5000    0.0000 C   0  0  0  0  0  0  0  0  0  0  0  0
    3.5490  -15.0000    0.0000 C   0  0  0  0  0  0  0  0  0  0  0  0
  1  8  1  0  0  0  0
  1  2  2  0  0  0  0
  2  6  1  0  0  0  0
  3  7  2  0  0  0  0
  4  9  2  0  0  0  0
  4  5  1  0  0  0  0
  5 10  2  0  0  0  0
  6 16  2  0  0  0  0
  6  7  1  0  0  0  0
  7 15  2  0  0  0  0
  7  9  1  0  0  0  0
  8 13  2  0  0  0  0
  8 21  1  0  0  0  0
  9 12  1  0  0  0  0
 10 14  1  0  0  0  0
 10 11  1  0  0  0  0
 11 22  1  0  0  0  0
 12 19  2  0  0  0  0
 12 14  1  0  0  0  0
 13 16  1  0  0  0  0
 14 17  2  0  0  0  0
 17 20  1  0  0  0  0
 18 19  1  0  0  0  0
 19 20  1  0  0  0  0
 22 23  1  0  0  0  0
M  CHG  2  18  -1  19   1
M  END
