327444
 OpenBabel03021519512D

 18 20  0  0  0  0  0  0  0  0999 V2000
    0.7500   -5.4217    0.0000 C   0  0  0  0  0  0  0  0  0  0  0  0
    0.7500   -6.9217    0.0000 C   0  0  0  0  0  0  0  0  0  0  0  0
    2.0490   -4.6717    0.0000 C   0  0  0  0  0  0  0  0  0  0  0  0
    2.0490   -7.6717    0.0000 C   0  0  0  0  0  0  0  0  0  0  0  0
    3.7528   -3.3228    0.0000 C   0  0  0  0  0  0  0  0  0  0  0  0
    3.1909   -1.9320    0.0000 C   0  0  0  0  0  0  0  0  0  0  0  0
    3.3481   -5.4217    0.0000 C   0  0  0  0  0  0  0  0  0  0  0  0
    3.3481   -6.9217    0.0000 C   0  0  0  0  0  0  0  0  0  0  0  0
    5.2382   -3.5315    0.0000 C   0  0  0  0  0  0  0  0  0  0  0  0
    4.7747   -4.9581    0.0000 N   0  0  0  0  0  0  0  0  0  0  0  0
    4.1144   -0.7500    0.0000 C   0  0  0  0  0  0  0  0  0  0  0  0
    4.7747   -7.3852    0.0000 C   0  0  0  0  0  0  0  0  0  0  0  0
    5.2382   -8.8118    0.0000 S   0  0  0  0  0  0  0  0  0  0  0  0
    5.6563   -6.1717    0.0000 S   0  0  0  0  0  0  0  0  0  0  0  0
    5.5998   -0.9588    0.0000 C   0  0  0  0  0  0  0  0  0  0  0  0
    6.1617   -2.3495    0.0000 C   0  0  0  0  0  0  0  0  0  0  0  0
    6.7054   -9.1236    0.0000 H   0  0  0  0  0  0  0  0  0  0  0  0
    6.5626   -4.2358    0.0000 N   0  0  0  0  0  0  0  0  0  0  0  0
  1  3  1  0  0  0  0
  1  2  1  0  0  0  0
  2  4  1  0  0  0  0
  3  7  2  0  0  0  0
  4  8  1  0  0  0  0
  5  6  1  0  0  0  0
  5  9  1  0  0  0  0
  6 11  1  0  0  0  0
  7 10  1  0  0  0  0
  7  8  1  0  0  0  0
  8 12  2  0  0  0  0
  9 16  1  0  0  0  0
  9 10  1  0  0  0  0
  9 18  1  0  0  0  0
 10 14  1  0  0  0  0
 11 15  1  0  0  0  0
 12 14  1  0  0  0  0
 12 13  1  0  0  0  0
 13 17  1  0  0  0  0
 15 16  1  0  0  0  0
M  END
