17507
 OpenBabel03021519512D

 18 18  0  0  0  0  0  0  0  0999 V2000
   -5.1590   -3.9648    0.0000 N   0  0  0  0  0  0  0  0  0  0  0  0
   -3.9454   -4.8465    0.0000 C   0  0  0  0  0  0  0  0  0  0  0  0
   -4.4090   -6.2731    0.0000 C   0  0  0  0  0  0  0  0  0  0  0  0
   -5.9090   -6.2731    0.0000 C   0  0  0  0  0  0  0  0  0  0  0  0
   -6.3725   -4.8465    0.0000 C   0  0  0  0  0  0  0  0  0  0  0  0
   -7.7991   -4.3830    0.0000 C   0  0  0  0  0  0  0  0  0  0  0  0
   -9.1641   -8.5434    0.0000 C   0  0  0  0  0  0  0  0  0  0  0  0
  -10.6559   -8.3866    0.0000 C   0  0  0  0  0  0  0  0  0  0  0  0
   -8.2824   -7.3299    0.0000 O   0  0  0  0  0  0  0  0  0  0  0  0
   -6.7906   -7.4866    0.0000 C   0  0  0  0  0  0  0  0  0  0  0  0
   -6.1805   -8.8570    0.0000 O   0  0  0  0  0  0  0  0  0  0  0  0
   -5.1590   -2.4648    0.0000 C   0  0  0  0  0  0  0  0  0  0  0  0
   -3.5273   -7.4866    0.0000 C   0  0  0  0  0  0  0  0  0  0  0  0
   -2.5189   -4.3830    0.0000 C   0  0  0  0  0  0  0  0  0  0  0  0
   -1.4041   -5.3867    0.0000 O   0  0  0  0  0  0  0  0  0  0  0  0
   -2.2070   -2.9158    0.0000 O   0  0  0  0  0  0  0  0  0  0  0  0
   -0.7804   -2.4522    0.0000 C   0  0  0  0  0  0  0  0  0  0  0  0
    0.3343   -3.4559    0.0000 C   0  0  0  0  0  0  0  0  0  0  0  0
  1  2  1  0  0  0  0
  1  5  1  0  0  0  0
  1 12  1  0  0  0  0
  2  3  2  0  0  0  0
  2 14  1  0  0  0  0
  3  4  1  0  0  0  0
  3 13  1  0  0  0  0
  4  5  2  0  0  0  0
  4 10  1  0  0  0  0
  5  6  1  0  0  0  0
  7  8  1  0  0  0  0
  7  9  1  0  0  0  0
  9 10  1  0  0  0  0
 10 11  2  0  0  0  0
 14 15  2  0  0  0  0
 14 16  1  0  0  0  0
 16 17  1  0  0  0  0
 17 18  1  0  0  0  0
M  END
