78697
 OpenBabel03021519512D

 21 24  0  0  0  0  0  0  0  0999 V2000
  -10.2496   -1.8314    0.0000 H   0  0  0  0  0  0  0  0  0  0  0  0
   -9.3680   -3.0449    0.0000 N   0  0  0  0  0  0  0  0  0  0  0  0
   -7.6046   -5.4720    0.0000 N   0  0  0  0  0  0  0  0  0  0  0  0
   -6.9945   -1.6746    0.0000 N   0  0  0  0  0  0  0  0  0  0  0  0
   -4.2689   -1.3881    0.0000 C   0  0  0  0  0  0  0  0  0  0  0  0
   -2.9698   -2.1381    0.0000 C   0  0  0  0  0  0  0  0  0  0  0  0
   -5.5679   -2.1381    0.0000 C   0  0  0  0  0  0  0  0  0  0  0  0
   -2.9698   -3.6381    0.0000 C   0  0  0  0  0  0  0  0  0  0  0  0
   -5.5679   -3.6381    0.0000 C   0  0  0  0  0  0  0  0  0  0  0  0
   -4.2689   -4.3881    0.0000 C   0  0  0  0  0  0  0  0  0  0  0  0
   -6.9945   -4.1017    0.0000 C   0  0  0  0  0  0  0  0  0  0  0  0
   -7.8762   -2.8881    0.0000 C   0  0  0  0  0  0  0  0  0  0  0  0
  -11.4698   -4.5720    0.0000 C   0  0  0  0  0  0  0  0  0  0  0  0
   -9.9781   -4.4153    0.0000 C   0  0  0  0  0  0  0  0  0  0  0  0
  -12.0799   -5.9424    0.0000 C   0  0  0  0  0  0  0  0  0  0  0  0
   -9.0964   -5.6288    0.0000 C   0  0  0  0  0  0  0  0  0  0  0  0
  -11.1983   -7.1559    0.0000 C   0  0  0  0  0  0  0  0  0  0  0  0
   -9.7065   -6.9991    0.0000 C   0  0  0  0  0  0  0  0  0  0  0  0
   -1.6708   -4.3881    0.0000 N   0  3  0  0  0  0  0  0  0  0  0  0
   -0.3718   -3.6381    0.0000 O   0  5  0  0  0  0  0  0  0  0  0  0
   -1.6708   -5.8881    0.0000 O   0  0  0  0  0  0  0  0  0  0  0  0
  1  2  1  0  0  0  0
  2 12  1  0  0  0  0
  2 14  1  0  0  0  0
  3 11  2  0  0  0  0
  3 16  1  0  0  0  0
  4 12  2  0  0  0  0
  4  7  1  0  0  0  0
  5  6  2  0  0  0  0
  5  7  1  0  0  0  0
  6  8  1  0  0  0  0
  7  9  2  0  0  0  0
  8 10  2  0  0  0  0
  8 19  1  0  0  0  0
  9 10  1  0  0  0  0
  9 11  1  0  0  0  0
 11 12  1  0  0  0  0
 13 15  2  0  0  0  0
 13 14  1  0  0  0  0
 14 16  2  0  0  0  0
 15 17  1  0  0  0  0
 16 18  1  0  0  0  0
 17 18  2  0  0  0  0
 19 20  1  0  0  0  0
 19 21  2  0  0  0  0
M  CHG  2  19   1  20  -1
M  END
