42633
 OpenBabel03021519512D

 11 11  0  0  0  0  0  0  0  0999 V2000
    0.7500    3.0000    0.0000 N   0  0  0  0  0  0  0  0  0  0  0  0
    2.0490    3.7500    0.0000 C   0  0  0  0  0  0  0  0  0  0  0  0
    3.3481    3.0000    0.0000 C   0  0  0  0  0  0  0  0  0  0  0  0
    3.3481    1.5000    0.0000 C   0  0  0  0  0  0  0  0  0  0  0  0
    2.0490    0.7500    0.0000 C   0  0  0  0  0  0  0  0  0  0  0  0
    0.7500    1.5000    0.0000 C   0  0  0  0  0  0  0  0  0  0  0  0
    4.6471    3.7500    0.0000 C   0  0  0  0  0  0  0  0  0  0  0  0
    5.9462    3.0000    0.0000 C   0  0  0  0  0  0  0  0  0  0  0  0
    7.2452    3.7500    0.0000 C   0  0  0  0  0  0  0  0  0  0  0  0
    8.5442    3.0000    0.0000 C   0  0  0  0  0  0  0  0  0  0  0  0
    9.8433    3.7500    0.0000 C   0  0  0  0  0  0  0  0  0  0  0  0
  1  2  2  0  0  0  0
  1  6  1  0  0  0  0
  2  3  1  0  0  0  0
  3  4  2  0  0  0  0
  3  7  1  0  0  0  0
  4  5  1  0  0  0  0
  5  6  2  0  0  0  0
  7  8  1  0  0  0  0
  8  9  1  0  0  0  0
  9 10  1  0  0  0  0
 10 11  1  0  0  0  0
M  END
