101789
 OpenBabel03021519512D

 24 27  0  0  0  0  0  0  0  0999 V2000
   -0.2761   -8.1526    0.0000 N   0  0  0  0  0  0  0  0  0  0  0  0
   -4.0923   -5.7680    0.0000 C   0  0  0  0  0  0  0  0  0  0  0  0
   -2.7679   -5.0637    0.0000 C   0  0  0  0  0  0  0  0  0  0  0  0
   -4.1446   -7.2670    0.0000 C   0  0  0  0  0  0  0  0  0  0  0  0
   -1.4958   -5.8586    0.0000 C   0  0  0  0  0  0  0  0  0  0  0  0
   -2.8726   -8.0619    0.0000 C   0  0  0  0  0  0  0  0  0  0  0  0
   -1.5481   -7.3577    0.0000 C   0  0  0  0  0  0  0  0  0  0  0  0
    1.3724   -5.2490    0.0000 C   0  0  0  0  0  0  0  0  0  0  0  0
    2.0299   -6.5972    0.0000 C   0  0  0  0  0  0  0  0  0  0  0  0
    2.2112   -4.0054    0.0000 C   0  0  0  0  0  0  0  0  0  0  0  0
    3.7075   -4.1101    0.0000 C   0  0  0  0  0  0  0  0  0  0  0  0
    3.5263   -6.7018    0.0000 C   0  0  0  0  0  0  0  0  0  0  0  0
    1.1911   -7.8407    0.0000 C   0  0  0  0  0  0  0  0  0  0  0  0
    1.9411   -9.1398    0.0000 C   0  0  0  0  0  0  0  0  0  0  0  0
    0.9374  -10.2545    0.0000 C   0  0  0  0  0  0  0  0  0  0  0  0
   -3.0309   -9.6444    0.0000 C   0  0  0  0  0  0  0  0  0  0  0  0
   -1.7319  -10.3944    0.0000 C   0  0  0  0  0  0  0  0  0  0  0  0
   -4.3300  -10.3944    0.0000 C   0  0  0  0  0  0  0  0  0  0  0  0
   -1.7319  -11.8944    0.0000 C   0  0  0  0  0  0  0  0  0  0  0  0
   -0.4329   -9.6444    0.0000 C   0  0  0  0  0  0  0  0  0  0  0  0
   -4.3300  -11.8944    0.0000 C   0  0  0  0  0  0  0  0  0  0  0  0
    4.3651   -5.4583    0.0000 C   0  0  0  0  0  0  0  0  0  0  0  0
   -3.0309  -12.6444    0.0000 C   0  0  0  0  0  0  0  0  0  0  0  0
   -0.1714   -5.1544    0.0000 O   0  0  0  0  0  0  0  0  0  0  0  0
  1  7  1  0  0  0  0
  1 13  1  0  0  0  0
  1 20  1  0  0  0  0
  2  3  2  0  0  0  0
  2  4  1  0  0  0  0
  3  5  1  0  0  0  0
  4  6  2  0  0  0  0
  5  7  2  0  0  0  0
  5 24  1  0  0  0  0
  6  7  1  0  0  0  0
  8 10  2  0  0  0  0
  8  9  1  0  0  0  0
  9 12  2  0  0  0  0
  9 13  1  0  0  0  0
 10 11  1  0  0  0  0
 11 22  2  0  0  0  0
 12 22  1  0  0  0  0
 13 14  2  0  0  0  0
 14 15  1  0  0  0  0
 15 20  2  0  0  0  0
 16 18  2  0  0  0  0
 16 17  1  0  0  0  0
 17 19  2  0  0  0  0
 17 20  1  0  0  0  0
 18 21  1  0  0  0  0
 19 23  1  0  0  0  0
 21 23  2  0  0  0  0
M  END
