33575
 OpenBabel03021519512D

 26 29  0  0  0  0  0  0  0  0999 V2000
    3.8065   -5.0930    0.0000 O   0  0  0  0  0  0  0  0  0  0  0  0
    6.3019   -6.0509    0.0000 O   0  0  0  0  0  0  0  0  0  0  0  0
    7.5155   -3.9490    0.0000 C   0  0  0  0  0  0  0  0  0  0  0  0
    7.6723   -5.4408    0.0000 C   0  0  0  0  0  0  0  0  0  0  0  0
    6.0482   -3.6372    0.0000 C   0  0  0  0  0  0  0  0  0  0  0  0
    8.9713   -6.1908    0.0000 C   0  0  0  0  0  0  0  0  0  0  0  0
   12.8684   -5.4408    0.0000 C   0  0  0  0  0  0  0  0  0  0  0  0
   14.1674   -6.1908    0.0000 C   0  0  0  0  0  0  0  0  0  0  0  0
   11.5694   -6.1908    0.0000 C   0  0  0  0  0  0  0  0  0  0  0  0
   10.2703   -5.4408    0.0000 C   0  0  0  0  0  0  0  0  0  0  0  0
   14.1675   -7.6908    0.0000 C   0  0  0  0  0  0  0  0  0  0  0  0
   11.5694   -7.6908    0.0000 C   0  0  0  0  0  0  0  0  0  0  0  0
    8.9713   -7.6908    0.0000 C   0  0  0  0  0  0  0  0  0  0  0  0
    5.2982   -4.9362    0.0000 C   0  0  0  0  0  0  0  0  0  0  0  0
   12.8684   -8.4408    0.0000 C   0  0  0  0  0  0  0  0  0  0  0  0
   10.2703   -8.4408    0.0000 C   0  0  0  0  0  0  0  0  0  0  0  0
    3.3363   -0.7397    0.0000 C   0  0  0  0  0  0  0  0  0  0  0  0
    3.9464   -2.1101    0.0000 C   0  0  0  0  0  0  0  0  0  0  0  0
    1.8445   -0.5829    0.0000 C   0  0  0  0  0  0  0  0  0  0  0  0
    3.0647   -3.3236    0.0000 C   0  0  0  0  0  0  0  0  0  0  0  0
    0.9628   -1.7965    0.0000 C   0  0  0  0  0  0  0  0  0  0  0  0
    1.5729   -3.1668    0.0000 C   0  0  0  0  0  0  0  0  0  0  0  0
   -0.5290   -1.6397    0.0000 N   0  0  0  0  0  0  0  0  0  0  0  0
   -1.1391   -0.2694    0.0000 C   0  0  0  0  0  0  0  0  0  0  0  0
   -1.4107   -2.8532    0.0000 C   0  0  0  0  0  0  0  0  0  0  0  0
    5.4381   -2.2668    0.0000 C   0  0  0  0  0  0  0  0  0  0  0  0
  1 14  2  0  0  0  0
  2  4  1  0  0  0  0
  2 14  1  0  0  0  0
  3  4  2  0  0  0  0
  3  5  1  0  0  0  0
  4  6  1  0  0  0  0
  5 14  1  0  0  0  0
  5 26  2  0  0  0  0
  6 10  2  0  0  0  0
  6 13  1  0  0  0  0
  7  8  1  0  0  0  0
  7  9  1  0  0  0  0
  8 11  1  0  0  0  0
  9 12  2  0  0  0  0
  9 10  1  0  0  0  0
 11 15  1  0  0  0  0
 12 16  1  0  0  0  0
 12 15  1  0  0  0  0
 13 16  2  0  0  0  0
 17 19  2  0  0  0  0
 17 18  1  0  0  0  0
 18 20  2  0  0  0  0
 18 26  1  0  0  0  0
 19 21  1  0  0  0  0
 20 22  1  0  0  0  0
 21 22  2  0  0  0  0
 21 23  1  0  0  0  0
 23 24  1  0  0  0  0
 23 25  1  0  0  0  0
M  END
