300540
 OpenBabel03021519512D

 23 26  0  0  1  0  0  0  0  0999 V2000
   -0.4815   -3.3721    0.0000 C   0  0  0  0  0  0  0  0  0  0  0  0
   -4.7613   -3.2627    0.0000 C   0  0  0  0  0  0  0  0  0  0  0  0
   -6.1879   -2.7992    0.0000 C   0  0  0  0  0  0  0  0  0  0  0  0
    0.6332   -4.3758    0.0000 C   0  0  0  0  0  0  0  0  0  0  0  0
   -1.9081   -3.8356    0.0000 C   0  0  0  0  0  0  0  0  0  0  0  0
   -4.7613   -4.7627    0.0000 C   0  0  0  0  0  0  0  0  0  0  0  0
   -7.0696   -4.0127    0.0000 C   0  0  0  0  0  0  0  0  0  0  0  0
    0.3213   -5.8430    0.0000 C   0  0  0  0  0  0  0  0  0  0  0  0
   -2.2200   -5.3029    0.0000 C   0  0  0  0  0  0  0  0  0  0  0  0
   -3.6466   -5.7664    0.0000 C   0  0  3  0  0  0  0  0  0  0  0  0
   -1.1053   -6.3066    0.0000 C   0  0  0  0  0  0  0  0  0  0  0  0
   -6.4997   -6.6934    0.0000 C   0  0  0  0  0  0  0  0  0  0  0  0
   -5.3850   -7.6971    0.0000 C   0  0  0  0  0  0  0  0  0  0  0  0
   -7.9263   -7.1570    0.0000 C   0  0  0  0  0  0  0  0  0  0  0  0
   -5.6969   -9.1644    0.0000 C   0  0  0  0  0  0  0  0  0  0  0  0
   -8.2382   -8.6242    0.0000 C   0  0  0  0  0  0  0  0  0  0  0  0
   -7.1235   -9.6279    0.0000 C   0  0  0  0  0  0  0  0  0  0  0  0
   -6.1879   -5.2262    0.0000 N   0  0  0  0  0  0  0  0  0  0  0  0
   -3.9584   -7.2336    0.0000 N   0  0  0  0  0  0  0  0  0  0  0  0
   -2.8437   -8.2373    0.0000 H   0  0  0  0  0  0  0  0  0  0  0  0
   -0.1697   -1.9049    0.0000 Cl  0  0  0  0  0  0  0  0  0  0  0  0
    1.4360   -6.8467    0.0000 Cl  0  0  0  0  0  0  0  0  0  0  0  0
   -1.4171   -7.7738    0.0000 O   0  0  0  0  0  0  0  0  0  0  0  0
  1 21  1  0  0  0  0
  1  4  2  0  0  0  0
  1  5  1  0  0  0  0
  2  3  1  0  0  0  0
  2  6  2  0  0  0  0
  3  7  2  0  0  0  0
  4  8  1  0  0  0  0
  5  9  2  0  0  0  0
  6 10  1  0  0  0  0
  6 18  1  0  0  0  0
  7 18  1  0  0  0  0
  8 22  1  0  0  0  0
  8 11  2  0  0  0  0
  9 10  1  0  0  0  0
  9 11  1  0  0  0  0
 10 19  1  0  0  0  0
 11 23  1  0  0  0  0
 12 18  1  0  0  0  0
 12 13  2  0  0  0  0
 12 14  1  0  0  0  0
 13 19  1  0  0  0  0
 13 15  1  0  0  0  0
 14 16  2  0  0  0  0
 15 17  2  0  0  0  0
 16 17  1  0  0  0  0
 19 20  1  0  0  0  0
M  END
