81660
 OpenBabel03021519512D

 14 14  0  0  1  0  0  0  0  0999 V2000
   -1.8861    0.8374    0.0000 S   0  0  0  0  0  0  0  0  0  0  0  0
    0.5410    0.8487    0.0000 N   0  0  0  0  0  0  0  0  0  0  0  0
    3.0847    0.3202    0.0000 O   0  0  0  0  0  0  0  0  0  0  0  0
   -0.6766    1.7247    0.0000 C   0  0  0  0  0  0  0  0  0  0  0  0
    0.0840   -0.5801    0.0000 C   0  0  3  0  0  0  0  0  0  0  0  0
   -1.4160   -0.5870    0.0000 C   0  0  0  0  0  0  0  0  0  0  0  0
   -2.8817   -0.9056    0.0000 C   0  0  0  0  0  0  0  0  0  0  0  0
   -1.2523   -2.0780    0.0000 C   0  0  0  0  0  0  0  0  0  0  0  0
   -1.6855    2.8348    0.0000 C   0  0  0  0  0  0  0  0  0  0  0  0
    0.3219    2.8441    0.0000 C   0  0  0  0  0  0  0  0  0  0  0  0
    0.9713   -1.7895    0.0000 C   0  0  0  0  0  0  0  0  0  0  0  0
    2.4623   -1.6258    0.0000 O   0  0  0  0  0  0  0  0  0  0  0  0
    0.3675   -3.1626    0.0000 O   0  0  0  0  0  0  0  0  0  0  0  0
    1.9654    1.3188    0.0000 C   0  0  0  0  0  0  0  0  0  0  0  0
  1  4  1  0  0  0  0
  1  6  1  0  0  0  0
  2  4  1  0  0  0  0
  2  5  1  0  0  0  0
  2 14  1  0  0  0  0
  3 14  2  0  0  0  0
  4  9  1  0  0  0  0
  4 10  1  0  0  0  0
  5  6  1  0  0  0  0
  5 11  1  0  0  0  0
  6  7  1  0  0  0  0
  6  8  1  0  0  0  0
 11 12  2  0  0  0  0
 11 13  1  0  0  0  0
M  END
