11826
 OpenBabel03021519512D

 18 20  0  0  0  0  0  0  0  0999 V2000
  -10.1563   -3.0000    0.0000 N   0  0  0  0  0  0  0  0  0  0  0  0
   -8.8573   -5.2500    0.0000 N   0  0  0  0  0  0  0  0  0  0  0  0
   -8.8573   -0.7500    0.0000 O   0  0  0  0  0  0  0  0  0  0  0  0
   -6.1317   -2.5365    0.0000 N   0  0  0  0  0  0  0  0  0  0  0  0
   -5.2500   -3.7500    0.0000 N   0  0  0  0  0  0  0  0  0  0  0  0
   -6.1317   -4.9635    0.0000 N   0  0  0  0  0  0  0  0  0  0  0  0
   -5.6681   -6.3901    0.0000 H   0  0  0  0  0  0  0  0  0  0  0  0
   -8.8573   -2.2500    0.0000 C   0  0  0  0  0  0  0  0  0  0  0  0
   -7.5583   -3.0000    0.0000 C   0  0  0  0  0  0  0  0  0  0  0  0
   -7.5583   -4.5000    0.0000 C   0  0  0  0  0  0  0  0  0  0  0  0
   -3.0000   -2.4510    0.0000 C   0  0  0  0  0  0  0  0  0  0  0  0
   -3.7500   -3.7500    0.0000 C   0  0  0  0  0  0  0  0  0  0  0  0
   -1.5000   -2.4510    0.0000 C   0  0  0  0  0  0  0  0  0  0  0  0
   -0.7500   -3.7500    0.0000 C   0  0  0  0  0  0  0  0  0  0  0  0
   -3.0000   -5.0490    0.0000 C   0  0  0  0  0  0  0  0  0  0  0  0
   -1.5000   -5.0490    0.0000 C   0  0  0  0  0  0  0  0  0  0  0  0
  -10.1563   -4.5000    0.0000 C   0  0  0  0  0  0  0  0  0  0  0  0
  -11.4554   -5.2500    0.0000 N   0  0  0  0  0  0  0  0  0  0  0  0
  1 17  2  0  0  0  0
  1  8  1  0  0  0  0
  2 10  2  0  0  0  0
  2 17  1  0  0  0  0
  3  8  2  0  0  0  0
  4  5  1  0  0  0  0
  4  9  2  0  0  0  0
  5  6  1  0  0  0  0
  5 12  1  0  0  0  0
  6 10  1  0  0  0  0
  6  7  1  0  0  0  0
  8  9  1  0  0  0  0
  9 10  1  0  0  0  0
 11 13  2  0  0  0  0
 11 12  1  0  0  0  0
 12 15  2  0  0  0  0
 13 14  1  0  0  0  0
 14 16  2  0  0  0  0
 15 16  1  0  0  0  0
 17 18  1  0  0  0  0
M  END
