281383
 OpenBabel03021519512D

 22 24  0  0  0  0  0  0  0  0999 V2000
    2.0490    0.9352    0.0000 O   0  0  0  0  0  0  0  0  0  0  0  0
    3.3481    3.1852    0.0000 O   0  0  0  0  0  0  0  0  0  0  0  0
    3.3481    1.6852    0.0000 C   0  0  0  0  0  0  0  0  0  0  0  0
    5.9461    3.1852    0.0000 C   0  0  0  0  0  0  0  0  0  0  0  0
    5.9462    1.6852    0.0000 C   0  0  0  0  0  0  0  0  0  0  0  0
    7.2452    3.9352    0.0000 C   0  0  0  0  0  0  0  0  0  0  0  0
    7.2452    0.9352    0.0000 C   0  0  0  0  0  0  0  0  0  0  0  0
    8.5442    1.6852    0.0000 C   0  0  0  0  0  0  0  0  0  0  0  0
    8.5442    3.1852    0.0000 C   0  0  0  0  0  0  0  0  0  0  0  0
    9.9708    3.6488    0.0000 N   0  0  0  0  0  0  0  0  0  0  0  0
   10.8525    2.4352    0.0000 C   0  0  0  0  0  0  0  0  0  0  0  0
    9.9708    1.2217    0.0000 S   0  0  0  0  0  0  0  0  0  0  0  0
   12.3525    2.4352    0.0000 N   0  0  0  0  0  0  0  0  0  0  0  0
   13.0033    3.7867    0.0000 C   0  0  0  0  0  0  0  0  0  0  0  0
   13.0033    1.0838    0.0000 C   0  0  0  0  0  0  0  0  0  0  0  0
   14.4657    4.1205    0.0000 C   0  0  0  0  0  0  0  0  0  0  0  0
   14.4657    0.7500    0.0000 C   0  0  0  0  0  0  0  0  0  0  0  0
   15.6385    1.6852    0.0000 C   0  0  0  0  0  0  0  0  0  0  0  0
   15.6385    3.1852    0.0000 C   0  0  0  0  0  0  0  0  0  0  0  0
    0.7500    1.6852    0.0000 C   0  0  0  0  0  0  0  0  0  0  0  0
    0.7500    3.1852    0.0000 C   0  0  0  0  0  0  0  0  0  0  0  0
    4.6471    0.9352    0.0000 N   0  0  0  0  0  0  0  0  0  0  0  0
  1  3  1  0  0  0  0
  1 20  1  0  0  0  0
  2  3  2  0  0  0  0
  3 22  1  0  0  0  0
  4  6  2  0  0  0  0
  4  5  1  0  0  0  0
  5  7  2  0  0  0  0
  5 22  1  0  0  0  0
  6  9  1  0  0  0  0
  7  8  1  0  0  0  0
  8  9  2  0  0  0  0
  8 12  1  0  0  0  0
  9 10  1  0  0  0  0
 10 11  2  0  0  0  0
 11 13  1  0  0  0  0
 11 12  1  0  0  0  0
 13 14  1  0  0  0  0
 13 15  1  0  0  0  0
 14 16  1  0  0  0  0
 15 17  1  0  0  0  0
 16 19  1  0  0  0  0
 17 18  1  0  0  0  0
 18 19  1  0  0  0  0
 20 21  1  0  0  0  0
M  END
