16416
 OpenBabel03021519512D

 17 18  0  0  1  0  0  0  0  0999 V2000
    8.1919   -1.7015    0.0000 C   0  0  0  0  0  0  0  0  0  0  0  0
    9.4909   -2.4515    0.0000 C   0  0  0  0  0  0  0  0  0  0  0  0
    6.8929   -2.4515    0.0000 C   0  0  0  0  0  0  0  0  0  0  0  0
    9.4909   -3.9515    0.0000 C   0  0  0  0  0  0  0  0  0  0  0  0
    6.8929   -3.9515    0.0000 C   0  0  0  0  0  0  0  0  0  0  0  0
    8.1919   -4.7015    0.0000 C   0  0  0  0  0  0  0  0  0  0  0  0
    5.5938   -0.2015    0.0000 C   0  0  0  0  0  0  0  0  0  0  0  0
    6.1068    1.2080    0.0000 C   0  0  0  0  0  0  0  0  0  0  0  0
    5.1427    2.3571    0.0000 C   0  0  0  0  0  0  0  0  0  0  0  0
    4.1166   -0.4620    0.0000 C   0  0  0  0  0  0  0  0  0  0  0  0
    3.6654    2.0966    0.0000 C   0  0  0  0  0  0  0  0  0  0  0  0
    3.1524    0.6871    0.0000 C   0  0  0  0  0  0  0  0  0  0  0  0
    7.0710   -0.4620    0.0000 O   0  0  0  0  0  0  0  0  0  0  0  0
    5.5938   -1.7015    0.0000 C   0  0  3  0  0  0  0  0  0  0  0  0
    4.2948   -2.4515    0.0000 C   0  0  0  0  0  0  0  0  0  0  0  0
    2.9957   -1.7015    0.0000 O   0  0  0  0  0  0  0  0  0  0  0  0
    4.2948   -3.9515    0.0000 O   0  0  0  0  0  0  0  0  0  0  0  0
  1  2  2  0  0  0  0
  1  3  1  0  0  0  0
  2  4  1  0  0  0  0
  3  5  2  0  0  0  0
  3 14  1  0  0  0  0
  4  6  2  0  0  0  0
  5  6  1  0  0  0  0
  7  8  1  0  0  0  0
  7 10  1  0  0  0  0
  7 13  1  0  0  0  0
  7 14  1  0  0  0  0
  8  9  1  0  0  0  0
  9 11  1  0  0  0  0
 10 12  1  0  0  0  0
 11 12  1  0  0  0  0
 14 15  1  0  0  0  0
 15 16  2  0  0  0  0
 15 17  1  0  0  0  0
M  END
