645033
 OpenBabel03021519512D

 25 28  0  0  0  0  0  0  0  0999 V2000
    6.3494    5.2787    0.0000 C   0  0  0  0  0  0  0  0  0  0  0  0
    5.4677    4.0652    0.0000 N   0  0  0  0  0  0  0  0  0  0  0  0
    6.3494    2.8517    0.0000 N   0  0  0  0  0  0  0  0  0  0  0  0
    7.7760    3.3152    0.0000 N   0  0  0  0  0  0  0  0  0  0  0  0
    7.7760    4.8152    0.0000 C   0  0  0  0  0  0  0  0  0  0  0  0
    5.8859    6.7053    0.0000 C   0  0  0  0  0  0  0  0  0  0  0  0
    4.4187    7.0172    0.0000 C   0  0  0  0  0  0  0  0  0  0  0  0
    4.9588    9.5585    0.0000 C   0  0  0  0  0  0  0  0  0  0  0  0
    6.4261    9.2466    0.0000 C   0  0  0  0  0  0  0  0  0  0  0  0
    6.8896    7.8200    0.0000 C   0  0  0  0  0  0  0  0  0  0  0  0
    3.9551    8.4437    0.0000 C   0  0  0  0  0  0  0  0  0  0  0  0
    4.4953   10.9850    0.0000 Cl  0  0  0  0  0  0  0  0  0  0  0  0
    8.9895    5.6969    0.0000 C   0  0  0  0  0  0  0  0  0  0  0  0
   10.3599    5.0868    0.0000 N   0  0  0  0  0  0  0  0  0  0  0  0
   11.5734    5.9684    0.0000 C   0  0  0  0  0  0  0  0  0  0  0  0
   11.4166    7.4602    0.0000 C   0  0  0  0  0  0  0  0  0  0  0  0
    8.8327    7.1886    0.0000 N   0  0  0  0  0  0  0  0  0  0  0  0
    3.9677    4.0652    0.0000 C   0  0  0  0  0  0  0  0  0  0  0  0
    3.2177    5.3642    0.0000 C   0  0  0  0  0  0  0  0  0  0  0  0
    1.7177    5.3642    0.0000 C   0  0  0  0  0  0  0  0  0  0  0  0
    0.9677    4.0652    0.0000 C   0  0  0  0  0  0  0  0  0  0  0  0
   -0.5323    4.0652    0.0000 Cl  0  0  0  0  0  0  0  0  0  0  0  0
    1.7177    2.7661    0.0000 C   0  0  0  0  0  0  0  0  0  0  0  0
    3.2177    2.7661    0.0000 C   0  0  0  0  0  0  0  0  0  0  0  0
   10.0463    8.0703    0.0000 C   0  0  0  0  0  0  0  0  0  0  0  0
  1  2  1  0  0  0  0
  1  5  2  0  0  0  0
  1  6  1  0  0  0  0
  2  3  1  0  0  0  0
  2 18  1  0  0  0  0
  3  4  2  0  0  0  0
  4  5  1  0  0  0  0
  5 13  1  0  0  0  0
  6  7  2  0  0  0  0
  6 10  1  0  0  0  0
  7 11  1  0  0  0  0
  8  9  1  0  0  0  0
  8 11  2  0  0  0  0
  8 12  1  0  0  0  0
  9 10  2  0  0  0  0
 13 14  1  0  0  0  0
 13 17  2  0  0  0  0
 14 15  1  0  0  0  0
 15 16  1  0  0  0  0
 16 25  1  0  0  0  0
 17 25  1  0  0  0  0
 18 19  2  0  0  0  0
 18 24  1  0  0  0  0
 19 20  1  0  0  0  0
 20 21  2  0  0  0  0
 21 22  1  0  0  0  0
 21 23  1  0  0  0  0
 23 24  2  0  0  0  0
M  END
