1620
 OpenBabel03021519512D

 16 18  0  0  0  0  0  0  0  0999 V2000
   -3.6295   -4.4615    0.0000 N   0  0  0  0  0  0  0  0  0  0  0  0
   -2.3305   -2.2115    0.0000 N   0  0  0  0  0  0  0  0  0  0  0  0
   -3.6295   -7.4615    0.0000 C   0  0  0  0  0  0  0  0  0  0  0  0
   -6.2988   -7.3217    0.0000 O   0  0  0  0  0  0  0  0  0  0  0  0
   -1.0314   -2.9615    0.0000 C   0  0  0  0  0  0  0  0  0  0  0  0
   -1.0314   -4.4615    0.0000 C   0  0  0  0  0  0  0  0  0  0  0  0
   -2.3305   -5.2115    0.0000 C   0  0  0  0  0  0  0  0  0  0  0  0
   -3.6295   -2.9615    0.0000 C   0  0  0  0  0  0  0  0  0  0  0  0
   -4.9285   -6.7115    0.0000 C   0  0  0  0  0  0  0  0  0  0  0  0
   -5.0853   -5.2198    0.0000 C   0  0  0  0  0  0  0  0  0  0  0  0
   -6.5525   -4.9079    0.0000 C   0  0  0  0  0  0  0  0  0  0  0  0
   -7.3025   -6.2069    0.0000 C   0  0  0  0  0  0  0  0  0  0  0  0
   -2.3305   -6.7115    0.0000 N   0  0  0  0  0  0  0  0  0  0  0  0
    0.3952   -4.9251    0.0000 C   0  0  0  0  0  0  0  0  0  0  0  0
    1.2768   -3.7115    0.0000 N   0  0  0  0  0  0  0  0  0  0  0  0
    0.3952   -2.4980    0.0000 N   0  0  0  0  0  0  0  0  0  0  0  0
  1  7  2  0  0  0  0
  1  8  1  0  0  0  0
  2  8  2  0  0  0  0
  2  5  1  0  0  0  0
  3  9  1  0  0  0  0
  3 13  1  0  0  0  0
  4  9  1  0  0  0  0
  4 12  1  0  0  0  0
  5  6  2  0  0  0  0
  5 16  1  0  0  0  0
  6  7  1  0  0  0  0
  6 14  1  0  0  0  0
  7 13  1  0  0  0  0
  9 10  2  0  0  0  0
 10 11  1  0  0  0  0
 11 12  2  0  0  0  0
 14 15  2  0  0  0  0
 15 16  1  0  0  0  0
M  END
