294747
 OpenBabel03021519512D

 17 18  0  0  0  0  0  0  0  0999 V2000
    8.1139    0.3741    0.0000 S   0  0  0  0  0  0  0  0  0  0  0  0
    5.4445    0.5140    0.0000 N   0  0  0  0  0  0  0  0  0  0  0  0
    6.7436   -0.2360    0.0000 C   0  0  0  0  0  0  0  0  0  0  0  0
    6.4317   -1.7032    0.0000 S   0  0  0  0  0  0  0  0  0  0  0  0
    4.9399   -1.8600    0.0000 C   0  0  0  0  0  0  0  0  0  0  0  0
    4.3298   -0.4897    0.0000 C   0  0  0  0  0  0  0  0  0  0  0  0
    4.1899   -3.1591    0.0000 C   0  0  0  0  0  0  0  0  0  0  0  0
    2.6899   -3.1591    0.0000 O   0  0  0  0  0  0  0  0  0  0  0  0
    6.4399   -4.4581    0.0000 C   0  0  0  0  0  0  0  0  0  0  0  0
    7.1899   -3.1590    0.0000 C   0  0  0  0  0  0  0  0  0  0  0  0
    7.1899   -5.7571    0.0000 C   0  0  0  0  0  0  0  0  0  0  0  0
    8.6899   -5.7571    0.0000 C   0  0  0  0  0  0  0  0  0  0  0  0
    8.6899   -3.1590    0.0000 C   0  0  0  0  0  0  0  0  0  0  0  0
    9.4399   -4.4581    0.0000 C   0  0  0  0  0  0  0  0  0  0  0  0
    8.2707    1.8659    0.0000 C   0  0  0  0  0  0  0  0  0  0  0  0
    2.8626   -0.1778    0.0000 N   0  0  0  0  0  0  0  0  0  0  0  0
    4.9399   -4.4581    0.0000 N   0  0  0  0  0  0  0  0  0  0  0  0
  1  3  1  0  0  0  0
  1 15  1  0  0  0  0
  2  6  1  0  0  0  0
  2  3  2  0  0  0  0
  3  4  1  0  0  0  0
  4  5  1  0  0  0  0
  5  6  2  0  0  0  0
  5  7  1  0  0  0  0
  6 16  1  0  0  0  0
  7  8  2  0  0  0  0
  7 17  1  0  0  0  0
  9 10  1  0  0  0  0
  9 11  1  0  0  0  0
  9 17  1  0  0  0  0
 10 13  1  0  0  0  0
 11 12  1  0  0  0  0
 12 14  1  0  0  0  0
 13 14  1  0  0  0  0
M  END
