101653
 OpenBabel03021519512D

 16 17  0  0  0  0  0  0  0  0999 V2000
   -2.9730   -6.6495    0.0000 O   0  0  0  0  0  0  0  0  0  0  0  0
   -1.6740   -8.8995    0.0000 N   0  0  0  0  0  0  0  0  0  0  0  0
    0.9241   -8.8995    0.0000 N   0  0  0  0  0  0  0  0  0  0  0  0
    2.2231   -9.6495    0.0000 H   0  0  0  0  0  0  0  0  0  0  0  0
    2.2231   -5.1495    0.0000 N   0  0  0  0  0  0  0  0  0  0  0  0
   -0.3750   -6.6495    0.0000 C   0  0  0  0  0  0  0  0  0  0  0  0
    0.9241   -7.3995    0.0000 C   0  0  0  0  0  0  0  0  0  0  0  0
   -1.6740   -7.3995    0.0000 C   0  0  0  0  0  0  0  0  0  0  0  0
    0.9241   -4.3995    0.0000 C   0  0  0  0  0  0  0  0  0  0  0  0
    0.9241   -2.8995    0.0000 C   0  0  0  0  0  0  0  0  0  0  0  0
    2.2231   -2.1495    0.0000 C   0  0  0  0  0  0  0  0  0  0  0  0
    3.5221   -2.8995    0.0000 C   0  0  0  0  0  0  0  0  0  0  0  0
    3.5221   -4.3995    0.0000 C   0  0  0  0  0  0  0  0  0  0  0  0
   -0.3750   -9.6495    0.0000 C   0  0  0  0  0  0  0  0  0  0  0  0
   -0.3750   -5.1495    0.0000 O   0  0  0  0  0  0  0  0  0  0  0  0
    2.2231   -6.6495    0.0000 C   0  0  0  0  0  0  0  0  0  0  0  0
  1  8  2  0  0  0  0
  2 14  2  0  0  0  0
  2  8  1  0  0  0  0
  3  7  1  0  0  0  0
  3 14  1  0  0  0  0
  3  4  1  0  0  0  0
  5  9  1  0  0  0  0
  5 13  1  0  0  0  0
  5 16  1  0  0  0  0
  6  7  2  0  0  0  0
  6  8  1  0  0  0  0
  6 15  1  0  0  0  0
  7 16  1  0  0  0  0
  9 10  1  0  0  0  0
 10 11  1  0  0  0  0
 11 12  1  0  0  0  0
 12 13  1  0  0  0  0
M  END
