154389
 OpenBabel03021519512D

 24 26  0  0  0  0  0  0  0  0999 V2000
   -2.8726    1.9755    0.0000 Cl  0  0  0  0  0  0  0  0  0  0  0  0
    4.9216   -2.5245    0.0000 N   0  0  0  0  0  0  0  0  0  0  0  0
    3.6226   -4.7745    0.0000 N   0  0  0  0  0  0  0  0  0  0  0  0
    7.5197   -2.5245    0.0000 Cl  0  0  0  0  0  0  0  0  0  0  0  0
    4.9216   -7.0245    0.0000 Cl  0  0  0  0  0  0  0  0  0  0  0  0
   11.4168   -7.7745    0.0000 Cl  0  0  0  0  0  0  0  0  0  0  0  0
    6.2207   -3.2745    0.0000 C   0  0  0  0  0  0  0  0  0  0  0  0
    6.2207   -4.7745    0.0000 C   0  0  0  0  0  0  0  0  0  0  0  0
    7.5197   -5.5245    0.0000 C   0  0  0  0  0  0  0  0  0  0  0  0
    8.8188   -4.7745    0.0000 C   0  0  0  0  0  0  0  0  0  0  0  0
   10.1178   -5.5245    0.0000 C   0  0  0  0  0  0  0  0  0  0  0  0
   10.1178   -7.0245    0.0000 C   0  0  0  0  0  0  0  0  0  0  0  0
    7.5197   -7.0245    0.0000 C   0  0  0  0  0  0  0  0  0  0  0  0
    4.9216   -5.5245    0.0000 C   0  0  0  0  0  0  0  0  0  0  0  0
    8.8188   -7.7745    0.0000 C   0  0  0  0  0  0  0  0  0  0  0  0
    3.6226   -3.2745    0.0000 C   0  0  0  0  0  0  0  0  0  0  0  0
    1.0245    1.2255    0.0000 C   0  0  0  0  0  0  0  0  0  0  0  0
    1.0245   -0.2745    0.0000 C   0  0  0  0  0  0  0  0  0  0  0  0
   -0.2745    1.9755    0.0000 C   0  0  0  0  0  0  0  0  0  0  0  0
   -0.2745   -1.0245    0.0000 C   0  0  0  0  0  0  0  0  0  0  0  0
   -1.5736    1.2255    0.0000 C   0  0  0  0  0  0  0  0  0  0  0  0
   -1.5736   -0.2745    0.0000 C   0  0  0  0  0  0  0  0  0  0  0  0
    2.3236   -1.0245    0.0000 C   0  0  0  0  0  0  0  0  0  0  0  0
    2.3236   -2.5245    0.0000 C   0  0  0  0  0  0  0  0  0  0  0  0
  1 21  1  0  0  0  0
  2  7  2  0  0  0  0
  2 16  1  0  0  0  0
  3 16  2  0  0  0  0
  3 14  1  0  0  0  0
  4  7  1  0  0  0  0
  5 14  1  0  0  0  0
  6 12  1  0  0  0  0
  7  8  1  0  0  0  0
  8 14  2  0  0  0  0
  8  9  1  0  0  0  0
  9 13  2  0  0  0  0
  9 10  1  0  0  0  0
 10 11  2  0  0  0  0
 11 12  1  0  0  0  0
 12 15  2  0  0  0  0
 13 15  1  0  0  0  0
 16 24  1  0  0  0  0
 17 19  2  0  0  0  0
 17 18  1  0  0  0  0
 18 20  2  0  0  0  0
 18 23  1  0  0  0  0
 19 21  1  0  0  0  0
 20 22  1  0  0  0  0
 21 22  2  0  0  0  0
 23 24  2  0  0  0  0
M  END
