16722
 OpenBabel03021519512D

 22 23  0  0  0  0  0  0  0  0999 V2000
   -5.5712   -0.6495    0.0000 C   0  0  0  0  0  0  0  0  0  0  0  0
   -4.2721   -1.3995    0.0000 C   0  0  0  0  0  0  0  0  0  0  0  0
   -6.8702   -1.3995    0.0000 C   0  0  0  0  0  0  0  0  0  0  0  0
   -4.2721   -2.8995    0.0000 C   0  0  0  0  0  0  0  0  0  0  0  0
   -6.8702   -2.8995    0.0000 C   0  0  0  0  0  0  0  0  0  0  0  0
   -5.5711   -3.6495    0.0000 C   0  0  0  0  0  0  0  0  0  0  0  0
   -9.4683    3.1005    0.0000 C   0  0  0  0  0  0  0  0  0  0  0  0
  -10.7673    3.8505    0.0000 C   0  0  0  0  0  0  0  0  0  0  0  0
   -9.4683    1.6005    0.0000 C   0  0  0  0  0  0  0  0  0  0  0  0
  -10.7673    0.8505    0.0000 C   0  0  0  0  0  0  0  0  0  0  0  0
  -12.0664    3.1005    0.0000 C   0  0  0  0  0  0  0  0  0  0  0  0
  -12.0663    1.6005    0.0000 C   0  0  0  0  0  0  0  0  0  0  0  0
  -10.7673    5.3505    0.0000 O   0  0  0  0  0  0  0  0  0  0  0  0
  -12.0664    6.1005    0.0000 C   0  0  0  0  0  0  0  0  0  0  0  0
  -13.3654    3.8505    0.0000 O   0  0  0  0  0  0  0  0  0  0  0  0
   -8.1692    0.8505    0.0000 C   0  0  0  0  0  0  0  0  0  0  0  0
   -6.8702    1.6005    0.0000 O   0  0  0  0  0  0  0  0  0  0  0  0
   -8.1692   -0.6495    0.0000 C   0  0  0  0  0  0  0  0  0  0  0  0
   -9.4683   -1.3995    0.0000 O   0  0  0  0  0  0  0  0  0  0  0  0
   -2.9731   -0.6495    0.0000 O   0  0  0  0  0  0  0  0  0  0  0  0
   -1.6740   -1.3995    0.0000 C   0  0  0  0  0  0  0  0  0  0  0  0
   -2.9731   -3.6495    0.0000 O   0  0  0  0  0  0  0  0  0  0  0  0
  1  3  2  0  0  0  0
  1  2  1  0  0  0  0
  2  4  2  0  0  0  0
  2 20  1  0  0  0  0
  3  5  1  0  0  0  0
  3 18  1  0  0  0  0
  4  6  1  0  0  0  0
  4 22  1  0  0  0  0
  5  6  2  0  0  0  0
  7  9  2  0  0  0  0
  7  8  1  0  0  0  0
  8 11  2  0  0  0  0
  8 13  1  0  0  0  0
  9 10  1  0  0  0  0
  9 16  1  0  0  0  0
 10 12  2  0  0  0  0
 11 12  1  0  0  0  0
 11 15  1  0  0  0  0
 13 14  1  0  0  0  0
 16 17  2  0  0  0  0
 16 18  1  0  0  0  0
 18 19  2  0  0  0  0
 20 21  1  0  0  0  0
M  END
