13156
 OpenBabel03021519512D

 22 24  0  0  0  0  0  0  0  0999 V2000
   -1.6740    5.8995    0.0000 C   0  0  0  0  0  0  0  0  0  0  0  0
   -1.6740    4.3995    0.0000 C   0  0  0  0  0  0  0  0  0  0  0  0
   -0.3750    3.6495    0.0000 C   0  0  0  0  0  0  0  0  0  0  0  0
    0.9241    4.3995    0.0000 C   0  0  0  0  0  0  0  0  0  0  0  0
    0.9241    5.8995    0.0000 C   0  0  0  0  0  0  0  0  0  0  0  0
   -0.3750    6.6495    0.0000 C   0  0  0  0  0  0  0  0  0  0  0  0
    2.2231    3.6495    0.0000 N   0  0  0  0  0  0  0  0  0  0  0  0
    3.5221    4.3995    0.0000 C   0  0  0  0  0  0  0  0  0  0  0  0
    3.5221    5.8995    0.0000 C   0  0  0  0  0  0  0  0  0  0  0  0
    2.2231    6.6495    0.0000 N   0  0  0  0  0  0  0  0  0  0  0  0
    6.1202    5.8995    0.0000 S   0  0  0  0  0  0  0  0  0  0  0  0
    6.8702    7.1986    0.0000 C   0  0  0  0  0  0  0  0  0  0  0  0
    8.3702    7.1986    0.0000 C   0  0  0  0  0  0  0  0  0  0  0  0
    9.1202    8.4976    0.0000 C   0  0  0  0  0  0  0  0  0  0  0  0
    8.3702    9.7966    0.0000 C   0  0  0  0  0  0  0  0  0  0  0  0
    6.8702    9.7966    0.0000 C   0  0  0  0  0  0  0  0  0  0  0  0
    6.1202    8.4976    0.0000 C   0  0  0  0  0  0  0  0  0  0  0  0
    4.8212    6.6495    0.0000 N   0  0  0  0  0  0  0  0  0  0  0  0
    5.3702    4.6005    0.0000 O   0  0  0  0  0  0  0  0  0  0  0  0
    7.4192    5.1495    0.0000 O   0  0  0  0  0  0  0  0  0  0  0  0
    4.8212    3.6495    0.0000 C   0  0  0  0  0  0  0  0  0  0  0  0
    9.1202   11.0957    0.0000 N   0  0  0  0  0  0  0  0  0  0  0  0
  1  2  2  0  0  0  0
  1  6  1  0  0  0  0
  2  3  1  0  0  0  0
  3  4  2  0  0  0  0
  4  5  1  0  0  0  0
  4  7  1  0  0  0  0
  5  6  2  0  0  0  0
  5 10  1  0  0  0  0
  7  8  2  0  0  0  0
  8  9  1  0  0  0  0
  8 21  1  0  0  0  0
  9 10  2  0  0  0  0
  9 18  1  0  0  0  0
 11 12  1  0  0  0  0
 11 18  1  0  0  0  0
 11 19  2  0  0  0  0
 11 20  2  0  0  0  0
 12 13  2  0  0  0  0
 12 17  1  0  0  0  0
 13 14  1  0  0  0  0
 14 15  2  0  0  0  0
 15 16  1  0  0  0  0
 15 22  1  0  0  0  0
 16 17  2  0  0  0  0
M  END
