43546
 OpenBabel03021519512D

 12 12  0  0  0  0  0  0  0  0999 V2000
   -3.5200    0.6834    0.0000 C   0  0  0  0  0  0  0  0  0  0  0  0
   -4.8903    0.0733    0.0000 C   0  0  0  0  0  0  0  0  0  0  0  0
   -4.7335   -1.4185    0.0000 C   0  0  0  0  0  0  0  0  0  0  0  0
   -7.4884    0.0733    0.0000 O   0  0  0  0  0  0  0  0  0  0  0  0
   -6.1894    0.8233    0.0000 C   0  0  0  0  0  0  0  0  0  0  0  0
   -6.1894    2.3233    0.0000 O   0  0  0  0  0  0  0  0  0  0  0  0
   -3.2663   -1.7303    0.0000 N   0  0  0  0  0  0  0  0  0  0  0  0
   -2.5163   -0.4313    0.0000 N   0  0  0  0  0  0  0  0  0  0  0  0
   -1.0245   -0.2745    0.0000 H   0  0  0  0  0  0  0  0  0  0  0  0
   -8.7874    0.8233    0.0000 C   0  0  0  0  0  0  0  0  0  0  0  0
   -8.7874    2.3233    0.0000 C   0  0  0  0  0  0  0  0  0  0  0  0
   -5.8482   -2.4222    0.0000 O   0  0  0  0  0  0  0  0  0  0  0  0
  1  8  1  0  0  0  0
  1  2  2  0  0  0  0
  2  5  1  0  0  0  0
  2  3  1  0  0  0  0
  3  7  2  0  0  0  0
  3 12  1  0  0  0  0
  4  5  1  0  0  0  0
  4 10  1  0  0  0  0
  5  6  2  0  0  0  0
  7  8  1  0  0  0  0
  8  9  1  0  0  0  0
 10 11  1  0  0  0  0
M  END
