156565
 OpenBabel03021519512D

 27 30  0  0  0  0  0  0  0  0999 V2000
   -9.3678   -6.2745    0.0000 O   0  0  0  0  0  0  0  0  0  0  0  0
   -9.3678  -12.2745    0.0000 O   0  0  0  0  0  0  0  0  0  0  0  0
   -2.8726   -4.0245    0.0000 C   0  0  0  0  0  0  0  0  0  0  0  0
   -2.8726   -5.5245    0.0000 C   0  0  0  0  0  0  0  0  0  0  0  0
   -4.1716   -3.2745    0.0000 C   0  0  0  0  0  0  0  0  0  0  0  0
   -4.1716   -6.2745    0.0000 C   0  0  0  0  0  0  0  0  0  0  0  0
   -5.4707   -4.0245    0.0000 C   0  0  0  0  0  0  0  0  0  0  0  0
   -5.4707   -5.5245    0.0000 C   0  0  0  0  0  0  0  0  0  0  0  0
   -6.7697   -7.7745    0.0000 C   0  0  0  0  0  0  0  0  0  0  0  0
   -5.4707   -8.5245    0.0000 C   0  0  0  0  0  0  0  0  0  0  0  0
   -8.0688   -8.5245    0.0000 C   0  0  0  0  0  0  0  0  0  0  0  0
   -9.3678   -7.7745    0.0000 C   0  0  0  0  0  0  0  0  0  0  0  0
  -10.6668   -8.5245    0.0000 C   0  0  0  0  0  0  0  0  0  0  0  0
  -11.9659   -7.7745    0.0000 C   0  0  0  0  0  0  0  0  0  0  0  0
  -13.2649   -8.5245    0.0000 C   0  0  0  0  0  0  0  0  0  0  0  0
   -5.4707  -10.0245    0.0000 C   0  0  0  0  0  0  0  0  0  0  0  0
   -8.0688  -10.0245    0.0000 C   0  0  0  0  0  0  0  0  0  0  0  0
  -10.6668  -10.0245    0.0000 C   0  0  0  0  0  0  0  0  0  0  0  0
  -13.2649  -10.0245    0.0000 C   0  0  0  0  0  0  0  0  0  0  0  0
   -6.7697  -10.7745    0.0000 C   0  0  0  0  0  0  0  0  0  0  0  0
   -9.3678  -10.7745    0.0000 C   0  0  0  0  0  0  0  0  0  0  0  0
  -11.9659  -10.7745    0.0000 C   0  0  0  0  0  0  0  0  0  0  0  0
   -1.5736   -3.2745    0.0000 C   0  0  0  0  0  0  0  0  0  0  0  0
   -6.7697   -6.2745    0.0000 N   0  0  0  0  0  0  0  0  0  0  0  0
   -6.7697  -12.2745    0.0000 O   0  0  0  0  0  0  0  0  0  0  0  0
   -0.2745   -4.0245    0.0000 C   0  0  0  0  0  0  0  0  0  0  0  0
    1.0245   -3.2745    0.0000 O   0  0  0  0  0  0  0  0  0  0  0  0
  1 12  2  0  0  0  0
  2 21  2  0  0  0  0
  3  4  2  0  0  0  0
  3  5  1  0  0  0  0
  3 23  1  0  0  0  0
  4  6  1  0  0  0  0
  5  7  2  0  0  0  0
  6  8  2  0  0  0  0
  7  8  1  0  0  0  0
  8 24  1  0  0  0  0
  9 10  2  0  0  0  0
  9 11  1  0  0  0  0
  9 24  1  0  0  0  0
 10 16  1  0  0  0  0
 11 17  2  0  0  0  0
 11 12  1  0  0  0  0
 12 13  1  0  0  0  0
 13 18  2  0  0  0  0
 13 14  1  0  0  0  0
 14 15  2  0  0  0  0
 15 19  1  0  0  0  0
 16 20  2  0  0  0  0
 17 21  1  0  0  0  0
 17 20  1  0  0  0  0
 18 22  1  0  0  0  0
 18 21  1  0  0  0  0
 19 22  2  0  0  0  0
 20 25  1  0  0  0  0
 23 26  1  0  0  0  0
 26 27  1  0  0  0  0
M  END
