31762
 OpenBabel03021519512D

 23 25  0  0  0  0  0  0  0  0999 V2000
   -8.7010   -2.3609    0.0000 N   0  0  0  0  0  0  0  0  0  0  0  0
   -7.2452   -4.6027    0.0000 C   0  0  0  0  0  0  0  0  0  0  0  0
   -3.3481   -0.8527    0.0000 I   0  0  0  0  0  0  0  0  0  0  0  0
   -0.7500   -5.3527    0.0000 I   0  0  0  0  0  0  0  0  0  0  0  0
   -3.3481   -2.3527    0.0000 C   0  0  0  0  0  0  0  0  0  0  0  0
   -4.6471   -3.1027    0.0000 C   0  0  0  0  0  0  0  0  0  0  0  0
   -2.0490   -3.1027    0.0000 C   0  0  0  0  0  0  0  0  0  0  0  0
   -2.0490   -4.6027    0.0000 C   0  0  0  0  0  0  0  0  0  0  0  0
   -4.6471   -4.6027    0.0000 C   0  0  0  0  0  0  0  0  0  0  0  0
   -3.3481   -5.3527    0.0000 C   0  0  0  0  0  0  0  0  0  0  0  0
  -10.9182   -0.7500    0.0000 C   0  0  0  0  0  0  0  0  0  0  0  0
  -12.4182   -0.7500    0.0000 C   0  0  0  0  0  0  0  0  0  0  0  0
  -10.1682   -2.0491    0.0000 C   0  0  0  0  0  0  0  0  0  0  0  0
  -10.9182   -3.3481    0.0000 C   0  0  0  0  0  0  0  0  0  0  0  0
  -13.1682   -2.0491    0.0000 C   0  0  0  0  0  0  0  0  0  0  0  0
   -9.9145   -4.4628    0.0000 C   0  0  0  0  0  0  0  0  0  0  0  0
   -8.5442   -3.8527    0.0000 C   0  0  0  0  0  0  0  0  0  0  0  0
  -12.4182   -3.3481    0.0000 C   0  0  0  0  0  0  0  0  0  0  0  0
   -7.5863   -1.3572    0.0000 C   0  0  0  0  0  0  0  0  0  0  0  0
  -11.1281   -5.3445    0.0000 C   0  0  0  0  0  0  0  0  0  0  0  0
   -5.9461   -5.3527    0.0000 C   0  0  0  0  0  0  0  0  0  0  0  0
   -9.1645   -5.7618    0.0000 C   0  0  0  0  0  0  0  0  0  0  0  0
   -0.7500   -2.3527    0.0000 O   0  0  0  0  0  0  0  0  0  0  0  0
  1 13  1  0  0  0  0
  1 17  1  0  0  0  0
  1 19  1  0  0  0  0
  2 17  2  0  0  0  0
  2 21  2  0  0  0  0
  3  5  1  0  0  0  0
  4  8  1  0  0  0  0
  5  7  2  0  0  0  0
  5  6  1  0  0  0  0
  6  9  2  0  0  0  0
  7  8  1  0  0  0  0
  7 23  1  0  0  0  0
  8 10  2  0  0  0  0
  9 10  1  0  0  0  0
  9 21  1  0  0  0  0
 11 12  2  0  0  0  0
 11 13  1  0  0  0  0
 12 15  1  0  0  0  0
 13 14  2  0  0  0  0
 14 16  1  0  0  0  0
 14 18  1  0  0  0  0
 15 18  2  0  0  0  0
 16 17  1  0  0  0  0
 16 20  1  0  0  0  0
 16 22  1  0  0  0  0
M  END
