31741
 OpenBabel03021519512D

 10 10  0  0  0  0  0  0  0  0999 V2000
   -4.4407   -3.4298    0.0000 N   0  0  0  0  0  0  0  0  0  0  0  0
    1.3615   -3.2530    0.0000 O   0  0  0  0  0  0  0  0  0  0  0  0
   -3.1416   -2.6798    0.0000 C   0  0  0  0  0  0  0  0  0  0  0  0
   -1.8426   -3.4298    0.0000 C   0  0  0  0  0  0  0  0  0  0  0  0
   -1.8426   -4.9298    0.0000 C   0  0  0  0  0  0  0  0  0  0  0  0
   -3.1416   -5.6798    0.0000 C   0  0  0  0  0  0  0  0  0  0  0  0
   -4.4407   -4.9298    0.0000 C   0  0  0  0  0  0  0  0  0  0  0  0
    0.3008   -2.1923    0.0000 As  0  0  0  0  0  0  0  0  0  0  0  0
    0.6890   -0.7435    0.0000 O   0  0  0  0  0  0  0  0  0  0  0  0
   -1.1992   -2.1923    0.0000 O   0  0  0  0  0  0  0  0  0  0  0  0
  1  3  2  0  0  0  0
  1  7  1  0  0  0  0
  2  8  2  0  0  0  0
  3  4  1  0  0  0  0
  4  5  2  0  0  0  0
  4  8  1  0  0  0  0
  5  6  1  0  0  0  0
  6  7  2  0  0  0  0
  8  9  1  0  0  0  0
  8 10  1  0  0  0  0
M  END
