17148
 OpenBabel03021519512D

 16 16  0  0  0  0  0  0  0  0999 V2000
   -3.3481    7.2990    0.0000 Cl  0  0  0  0  0  0  0  0  0  0  0  0
   -0.7500    7.2990    0.0000 C   0  0  0  0  0  0  0  0  0  0  0  0
    0.5490    6.5490    0.0000 C   0  0  0  0  0  0  0  0  0  0  0  0
   -2.0490    6.5490    0.0000 C   0  0  0  0  0  0  0  0  0  0  0  0
    0.5490    5.0490    0.0000 C   0  0  0  0  0  0  0  0  0  0  0  0
   -2.0490    5.0490    0.0000 C   0  0  0  0  0  0  0  0  0  0  0  0
   -0.7500    4.2990    0.0000 C   0  0  0  0  0  0  0  0  0  0  0  0
   -3.3481    4.2990    0.0000 N   0  0  0  0  0  0  0  0  0  0  0  0
   -0.7500    2.7990    0.0000 S   0  0  0  0  0  0  0  0  0  0  0  0
   -2.2500    2.7990    0.0000 O   0  0  0  0  0  0  0  0  0  0  0  0
   -0.7500    1.2990    0.0000 O   0  0  0  0  0  0  0  0  0  0  0  0
    0.7500    2.7990    0.0000 N   0  0  0  0  0  0  0  0  0  0  0  0
    1.8481    7.2990    0.0000 S   0  0  0  0  0  0  0  0  0  0  0  0
    1.0981    8.5981    0.0000 O   0  0  0  0  0  0  0  0  0  0  0  0
    2.5981    6.0000    0.0000 O   0  0  0  0  0  0  0  0  0  0  0  0
    3.1471    8.0490    0.0000 N   0  0  0  0  0  0  0  0  0  0  0  0
  1  4  1  0  0  0  0
  2  4  2  0  0  0  0
  2  3  1  0  0  0  0
  3  5  2  0  0  0  0
  3 13  1  0  0  0  0
  4  6  1  0  0  0  0
  5  7  1  0  0  0  0
  6  7  2  0  0  0  0
  6  8  1  0  0  0  0
  7  9  1  0  0  0  0
  9 10  2  0  0  0  0
  9 11  2  0  0  0  0
  9 12  1  0  0  0  0
 13 14  2  0  0  0  0
 13 15  2  0  0  0  0
 13 16  1  0  0  0  0
M  END
