120913
 OpenBabel03021519512D

 21 22  0  0  0  0  0  0  0  0999 V2000
   -1.4283    3.9738    0.0000 O   0  0  0  0  0  0  0  0  0  0  0  0
   -1.4283    6.9738    0.0000 H   0  0  0  0  0  0  0  0  0  0  0  0
   -0.1292    6.2238    0.0000 N   0  0  0  0  0  0  0  0  0  0  0  0
    1.1698    3.9738    0.0000 N   0  0  0  0  0  0  0  0  0  0  0  0
    1.1698    8.4738    0.0000 O   0  0  0  0  0  0  0  0  0  0  0  0
    1.1698    2.4738    0.0000 H   0  0  0  0  0  0  0  0  0  0  0  0
    3.7679    3.9738    0.0000 O   0  0  0  0  0  0  0  0  0  0  0  0
    1.1698    6.9738    0.0000 C   0  0  0  0  0  0  0  0  0  0  0  0
    2.4689    6.2238    0.0000 C   0  0  0  0  0  0  0  0  0  0  0  0
    2.4689    4.7238    0.0000 C   0  0  0  0  0  0  0  0  0  0  0  0
    3.9461    5.9633    0.0000 C   0  0  0  0  0  0  0  0  0  0  0  0
    4.9103    7.1124    0.0000 C   0  0  0  0  0  0  0  0  0  0  0  0
    6.3875    6.8519    0.0000 C   0  0  0  0  0  0  0  0  0  0  0  0
    6.9005    5.4424    0.0000 C   0  0  0  0  0  0  0  0  0  0  0  0
    4.4591    4.5538    0.0000 C   0  0  0  0  0  0  0  0  0  0  0  0
    5.9363    4.2933    0.0000 C   0  0  0  0  0  0  0  0  0  0  0  0
   -0.1292    4.7238    0.0000 C   0  0  0  0  0  0  0  0  0  0  0  0
    2.9819    7.6334    0.0000 C   0  0  0  0  0  0  0  0  0  0  0  0
    4.4591    7.8938    0.0000 C   0  0  0  0  0  0  0  0  0  0  0  0
    4.9721    9.3034    0.0000 C   0  0  0  0  0  0  0  0  0  0  0  0
    4.0080   10.4524    0.0000 C   0  0  0  0  0  0  0  0  0  0  0  0
  1 17  2  0  0  0  0
  2  3  1  0  0  0  0
  3  8  1  0  0  0  0
  3 17  1  0  0  0  0
  4 10  1  0  0  0  0
  4 17  1  0  0  0  0
  4  6  1  0  0  0  0
  5  8  2  0  0  0  0
  7 10  2  0  0  0  0
  8  9  1  0  0  0  0
  9 10  1  0  0  0  0
  9 11  1  0  0  0  0
  9 18  1  0  0  0  0
 11 15  2  0  0  0  0
 11 12  1  0  0  0  0
 12 13  1  0  0  0  0
 13 14  1  0  0  0  0
 14 16  1  0  0  0  0
 15 16  1  0  0  0  0
 18 19  1  0  0  0  0
 19 20  1  0  0  0  0
 20 21  2  0  0  0  0
M  END
