16873
 OpenBabel03021519512D

 14 15  0  0  0  0  0  0  0  0999 V2000
   -9.6192   -3.3319    0.0000 O   0  0  0  0  0  0  0  0  0  0  0  0
   -8.9274   -0.7500    0.0000 O   0  0  0  0  0  0  0  0  0  0  0  0
   -8.6155   -2.2172    0.0000 C   0  0  0  0  0  0  0  0  0  0  0  0
   -7.2452   -2.8273    0.0000 C   0  0  0  0  0  0  0  0  0  0  0  0
   -7.4020   -4.3191    0.0000 C   0  0  0  0  0  0  0  0  0  0  0  0
   -8.8692   -4.6310    0.0000 C   0  0  0  0  0  0  0  0  0  0  0  0
   -3.3481   -2.0773    0.0000 C   0  0  0  0  0  0  0  0  0  0  0  0
   -2.0490   -2.8273    0.0000 C   0  0  0  0  0  0  0  0  0  0  0  0
   -4.6471   -2.8273    0.0000 C   0  0  0  0  0  0  0  0  0  0  0  0
   -2.0490   -4.3273    0.0000 C   0  0  0  0  0  0  0  0  0  0  0  0
   -4.6471   -4.3273    0.0000 C   0  0  0  0  0  0  0  0  0  0  0  0
   -3.3481   -5.0773    0.0000 C   0  0  0  0  0  0  0  0  0  0  0  0
   -5.9462   -2.0773    0.0000 C   0  0  0  0  0  0  0  0  0  0  0  0
   -0.7500   -5.0773    0.0000 O   0  0  0  0  0  0  0  0  0  0  0  0
  1  3  1  0  0  0  0
  1  6  1  0  0  0  0
  2  3  2  0  0  0  0
  3  4  1  0  0  0  0
  4  5  1  0  0  0  0
  4 13  2  0  0  0  0
  5  6  1  0  0  0  0
  7  8  2  0  0  0  0
  7  9  1  0  0  0  0
  8 10  1  0  0  0  0
  9 11  2  0  0  0  0
  9 13  1  0  0  0  0
 10 12  2  0  0  0  0
 10 14  1  0  0  0  0
 11 12  1  0  0  0  0
M  END
