170578
 OpenBabel03021519512D

 17 19  0  0  0  0  0  0  0  0999 V2000
   -6.9732   -2.2489    0.0000 O   0  0  0  0  0  0  0  0  0  0  0  0
   -6.5097   -3.6755    0.0000 S   0  0  3  0  0  0  0  0  0  0  0  0
   -3.7841   -3.3891    0.0000 C   0  0  0  0  0  0  0  0  0  0  0  0
   -5.0831   -4.1391    0.0000 C   0  0  0  0  0  0  0  0  0  0  0  0
   -2.4851   -4.1391    0.0000 C   0  0  0  0  0  0  0  0  0  0  0  0
   -2.4851   -5.6391    0.0000 C   0  0  0  0  0  0  0  0  0  0  0  0
   -5.0831   -5.6391    0.0000 C   0  0  0  0  0  0  0  0  0  0  0  0
   -3.7841   -6.3891    0.0000 C   0  0  0  0  0  0  0  0  0  0  0  0
   -6.5097   -6.1026    0.0000 C   0  0  0  0  0  0  0  0  0  0  0  0
   -8.8832   -5.0459    0.0000 C   0  0  0  0  0  0  0  0  0  0  0  0
   -7.3914   -4.8891    0.0000 C   0  0  0  0  0  0  0  0  0  0  0  0
   -9.4933   -6.4162    0.0000 C   0  0  0  0  0  0  0  0  0  0  0  0
   -8.6116   -7.6297    0.0000 C   0  0  0  0  0  0  0  0  0  0  0  0
   -7.1198   -7.4729    0.0000 C   0  0  0  0  0  0  0  0  0  0  0  0
   -1.1860   -3.3891    0.0000 N   0  3  0  0  0  0  0  0  0  0  0  0
    0.1130   -4.1391    0.0000 O   0  5  0  0  0  0  0  0  0  0  0  0
   -1.1860   -1.8891    0.0000 O   0  0  0  0  0  0  0  0  0  0  0  0
  1  2  2  0  0  0  0
  2  4  1  0  0  0  0
  2 11  1  0  0  0  0
  3  5  2  0  0  0  0
  3  4  1  0  0  0  0
  4  7  2  0  0  0  0
  5  6  1  0  0  0  0
  5 15  1  0  0  0  0
  6  8  2  0  0  0  0
  7  8  1  0  0  0  0
  7  9  1  0  0  0  0
  9 11  2  0  0  0  0
  9 14  1  0  0  0  0
 10 12  2  0  0  0  0
 10 11  1  0  0  0  0
 12 13  1  0  0  0  0
 13 14  2  0  0  0  0
 15 16  1  0  0  0  0
 15 17  2  0  0  0  0
M  CHG  2  15   1  16  -1
M  END
