65537
 OpenBabel03021519512D

 25 27  0  0  0  0  0  0  0  0999 V2000
   -6.1471   -6.7500    0.0000 N   0  0  0  0  0  0  0  0  0  0  0  0
   -4.8481   -7.5000    0.0000 N   0  0  0  0  0  0  0  0  0  0  0  0
  -10.0442   -9.0000    0.0000 C   0  0  0  0  0  0  0  0  0  0  0  0
  -10.0442   -7.5000    0.0000 C   0  0  0  0  0  0  0  0  0  0  0  0
   -8.7452   -9.7500    0.0000 C   0  0  0  0  0  0  0  0  0  0  0  0
   -8.7452  -11.2500    0.0000 C   0  0  0  0  0  0  0  0  0  0  0  0
   -7.4462  -12.0000    0.0000 C   0  0  0  0  0  0  0  0  0  0  0  0
   -8.7452   -6.7500    0.0000 C   0  0  0  0  0  0  0  0  0  0  0  0
   -7.4462   -9.0000    0.0000 C   0  0  0  0  0  0  0  0  0  0  0  0
   -6.1471  -11.2500    0.0000 C   0  0  0  0  0  0  0  0  0  0  0  0
   -7.4462   -7.5000    0.0000 C   0  0  0  0  0  0  0  0  0  0  0  0
   -6.1471   -9.7500    0.0000 C   0  0  0  0  0  0  0  0  0  0  0  0
   -3.5490   -6.7500    0.0000 C   0  0  0  0  0  0  0  0  0  0  0  0
   -3.5490   -5.2500    0.0000 C   0  0  0  0  0  0  0  0  0  0  0  0
   -2.2500   -7.5000    0.0000 C   0  0  0  0  0  0  0  0  0  0  0  0
   -0.9510   -6.7500    0.0000 C   0  0  0  0  0  0  0  0  0  0  0  0
   -2.2500   -4.5000    0.0000 C   0  0  0  0  0  0  0  0  0  0  0  0
   -0.9510   -5.2500    0.0000 C   0  0  0  0  0  0  0  0  0  0  0  0
  -11.3433   -9.7500    0.0000 N   0  0  0  0  0  0  0  0  0  0  0  0
  -11.3433   -6.7500    0.0000 O   0  0  0  0  0  0  0  0  0  0  0  0
  -11.3433   -5.2500    0.0000 C   0  0  0  0  0  0  0  0  0  0  0  0
    0.3481   -7.5000    0.0000 S   0  0  0  0  0  0  0  0  0  0  0  0
    1.0981   -6.2010    0.0000 O   0  0  0  0  0  0  0  0  0  0  0  0
   -0.4019   -8.7990    0.0000 O   0  0  0  0  0  0  0  0  0  0  0  0
    1.6471   -8.2500    0.0000 N   0  0  0  0  0  0  0  0  0  0  0  0
  1  2  2  0  0  0  0
  1 11  1  0  0  0  0
  2 13  1  0  0  0  0
  3  4  2  0  0  0  0
  3  5  1  0  0  0  0
  3 19  1  0  0  0  0
  4  8  1  0  0  0  0
  4 20  1  0  0  0  0
  5  9  2  0  0  0  0
  5  6  1  0  0  0  0
  6  7  2  0  0  0  0
  7 10  1  0  0  0  0
  8 11  2  0  0  0  0
  9 11  1  0  0  0  0
  9 12  1  0  0  0  0
 10 12  2  0  0  0  0
 13 15  2  0  0  0  0
 13 14  1  0  0  0  0
 14 17  2  0  0  0  0
 15 16  1  0  0  0  0
 16 18  2  0  0  0  0
 16 22  1  0  0  0  0
 17 18  1  0  0  0  0
 20 21  1  0  0  0  0
 22 23  2  0  0  0  0
 22 24  2  0  0  0  0
 22 25  1  0  0  0  0
M  END
