335504
 OpenBabel03021519512D

 23 24  0  0  1  0  0  0  0  0999 V2000
   -2.8111    0.9784    0.0000 N   0  0  0  0  0  0  0  0  0  0  0  0
   -0.5820   -3.7153    0.0000 O   0  0  0  0  0  0  0  0  0  0  0  0
    2.7289    5.0475    0.0000 Cl  0  0  0  0  0  0  0  0  0  0  0  0
    1.2538    2.9089    0.0000 C   0  0  0  0  0  0  0  0  0  0  0  0
   -0.1012    2.2654    0.0000 C   0  0  0  0  0  0  0  0  0  0  0  0
    1.3740    4.4041    0.0000 C   0  0  0  0  0  0  0  0  0  0  0  0
   -1.3359    3.1171    0.0000 C   0  0  0  0  0  0  0  0  0  0  0  0
    0.1392    5.2557    0.0000 C   0  0  0  0  0  0  0  0  0  0  0  0
   -1.2157    4.6123    0.0000 C   0  0  0  0  0  0  0  0  0  0  0  0
   -4.1661    0.3349    0.0000 C   0  0  0  0  0  0  0  0  0  0  0  0
   -4.2863   -1.1603    0.0000 C   0  0  0  0  0  0  0  0  0  0  0  0
   -3.0515   -2.0119    0.0000 C   0  0  0  0  0  0  0  0  0  0  0  0
   -1.6966   -1.3684    0.0000 C   0  0  0  0  0  0  0  0  0  0  0  0
   -1.5764    0.1267    0.0000 C   0  0  0  0  0  0  0  0  0  0  0  0
   -0.4618   -2.2201    0.0000 C   0  0  0  0  0  0  0  0  0  0  0  0
    0.8932   -1.5766    0.0000 O   0  0  0  0  0  0  0  0  0  0  0  0
   -0.2214    0.7702    0.0000 N   0  0  0  0  0  0  0  0  0  0  0  0
    0.6528   -4.5670    0.0000 C   0  0  0  0  0  0  0  0  0  0  0  0
    2.4885    2.0572    0.0000 C   0  0  0  0  0  0  0  0  0  0  0  0
    2.0077   -3.9235    0.0000 C   0  0  3  0  0  0  0  0  0  0  0  0
    2.1279   -2.4283    0.0000 O   0  0  0  0  0  0  0  0  0  0  0  0
    3.2425   -4.7752    0.0000 C   0  0  0  0  0  0  0  0  0  0  0  0
    4.5974   -4.1317    0.0000 O   0  0  0  0  0  0  0  0  0  0  0  0
  1 14  2  0  0  0  0
  1 10  1  0  0  0  0
  2 15  1  0  0  0  0
  2 18  1  0  0  0  0
  3  6  1  0  0  0  0
  4  6  2  0  0  0  0
  4  5  1  0  0  0  0
  4 19  1  0  0  0  0
  5  7  2  0  0  0  0
  5 17  1  0  0  0  0
  6  8  1  0  0  0  0
  7  9  1  0  0  0  0
  8  9  2  0  0  0  0
 10 11  2  0  0  0  0
 11 12  1  0  0  0  0
 12 13  2  0  0  0  0
 13 14  1  0  0  0  0
 13 15  1  0  0  0  0
 14 17  1  0  0  0  0
 15 16  2  0  0  0  0
 18 20  1  0  0  0  0
 20 21  1  0  0  0  0
 20 22  1  0  0  0  0
 22 23  1  0  0  0  0
M  END
