146771
 OpenBabel03021519512D

 36 40  0  0  0  0  0  0  0  0999 V2000
    4.2721    2.8995    0.0000 C   0  0  0  0  0  0  0  0  0  0  0  0
    4.2721    1.3995    0.0000 C   0  0  0  0  0  0  0  0  0  0  0  0
    5.5712    0.6495    0.0000 C   0  0  0  0  0  0  0  0  0  0  0  0
    6.8702    1.3995    0.0000 C   0  0  0  0  0  0  0  0  0  0  0  0
    6.8702    2.8995    0.0000 C   0  0  0  0  0  0  0  0  0  0  0  0
    5.5711    3.6495    0.0000 C   0  0  0  0  0  0  0  0  0  0  0  0
    8.1692    0.6495    0.0000 C   0  0  0  0  0  0  0  0  0  0  0  0
    9.4683    1.3995    0.0000 C   0  0  0  0  0  0  0  0  0  0  0  0
    9.4683    2.8995    0.0000 C   0  0  0  0  0  0  0  0  0  0  0  0
    8.1692    3.6495    0.0000 N   0  0  0  0  0  0  0  0  0  0  0  0
    2.9731    0.6495    0.0000 N   0  3  0  0  0  0  0  0  0  0  0  0
    1.6740    1.3995    0.0000 O   0  5  0  0  0  0  0  0  0  0  0  0
    2.9731   -0.8505    0.0000 O   0  0  0  0  0  0  0  0  0  0  0  0
    9.4683   -1.6005    0.0000 C   0  0  0  0  0  0  0  0  0  0  0  0
    9.4683   -3.1005    0.0000 C   0  0  0  0  0  0  0  0  0  0  0  0
   10.7673   -3.8505    0.0000 C   0  0  0  0  0  0  0  0  0  0  0  0
   12.0663   -3.1005    0.0000 C   0  0  0  0  0  0  0  0  0  0  0  0
   12.0664   -1.6005    0.0000 C   0  0  0  0  0  0  0  0  0  0  0  0
   10.7673   -0.8505    0.0000 C   0  0  0  0  0  0  0  0  0  0  0  0
    8.1692   -0.8505    0.0000 N   0  0  0  0  0  0  0  0  0  0  0  0
   13.3654   -3.8505    0.0000 C   0  0  0  0  0  0  0  0  0  0  0  0
   13.3654   -5.3505    0.0000 O   0  0  0  0  0  0  0  0  0  0  0  0
   15.9635   -3.8505    0.0000 C   0  0  0  0  0  0  0  0  0  0  0  0
   15.9635   -5.3505    0.0000 C   0  0  0  0  0  0  0  0  0  0  0  0
   17.2625   -6.1005    0.0000 C   0  0  0  0  0  0  0  0  0  0  0  0
   18.5615   -5.3505    0.0000 C   0  0  0  0  0  0  0  0  0  0  0  0
   18.5615   -3.8505    0.0000 C   0  0  0  0  0  0  0  0  0  0  0  0
   17.2625   -3.1005    0.0000 C   0  0  0  0  0  0  0  0  0  0  0  0
   14.6644   -3.1005    0.0000 N   0  0  0  0  0  0  0  0  0  0  0  0
   21.1596   -5.3505    0.0000 C   0  0  0  0  0  0  0  0  0  0  0  0
   22.4586   -6.1005    0.0000 C   0  0  0  0  0  0  0  0  0  0  0  0
   23.7577   -5.3505    0.0000 C   0  0  0  0  0  0  0  0  0  0  0  0
   23.7577   -3.8505    0.0000 N   0  0  0  0  0  0  0  0  0  0  0  0
   22.4587   -3.1005    0.0000 C   0  0  0  0  0  0  0  0  0  0  0  0
   21.1596   -3.8505    0.0000 C   0  0  0  0  0  0  0  0  0  0  0  0
   19.8606   -6.1005    0.0000 N   0  0  0  0  0  0  0  0  0  0  0  0
  1  2  2  0  0  0  0
  1  6  1  0  0  0  0
  2  3  1  0  0  0  0
  2 11  1  0  0  0  0
  3  4  2  0  0  0  0
  4  5  1  0  0  0  0
  4  7  1  0  0  0  0
  5  6  2  0  0  0  0
  5 10  1  0  0  0  0
  7  8  2  0  0  0  0
  7 20  1  0  0  0  0
  8  9  1  0  0  0  0
  9 10  2  0  0  0  0
 11 12  1  0  0  0  0
 11 13  2  0  0  0  0
 14 15  2  0  0  0  0
 14 19  1  0  0  0  0
 14 20  1  0  0  0  0
 15 16  1  0  0  0  0
 16 17  2  0  0  0  0
 17 18  1  0  0  0  0
 17 21  1  0  0  0  0
 18 19  2  0  0  0  0
 21 22  2  0  0  0  0
 21 29  1  0  0  0  0
 23 24  2  0  0  0  0
 23 28  1  0  0  0  0
 23 29  1  0  0  0  0
 24 25  1  0  0  0  0
 25 26  2  0  0  0  0
 26 27  1  0  0  0  0
 26 36  1  0  0  0  0
 27 28  2  0  0  0  0
 30 31  2  0  0  0  0
 30 35  1  0  0  0  0
 30 36  1  0  0  0  0
 31 32  1  0  0  0  0
 32 33  2  0  0  0  0
 33 34  1  0  0  0  0
 34 35  2  0  0  0  0
M  CHG  2  11   1  12  -1
M  END
