165701
 OpenBabel03021519512D

 21 24  0  0  0  0  0  0  0  0999 V2000
  -11.6240    4.9413    0.0000 C   0  0  0  0  0  0  0  0  0  0  0  0
  -13.1240    4.9413    0.0000 C   0  0  0  0  0  0  0  0  0  0  0  0
  -13.8740    3.6423    0.0000 C   0  0  0  0  0  0  0  0  0  0  0  0
  -13.1240    2.3433    0.0000 C   0  0  0  0  0  0  0  0  0  0  0  0
  -13.8740    1.0442    0.0000 C   0  0  0  0  0  0  0  0  0  0  0  0
  -13.1240   -0.2548    0.0000 C   0  0  0  0  0  0  0  0  0  0  0  0
  -11.6240   -0.2548    0.0000 C   0  0  0  0  0  0  0  0  0  0  0  0
  -11.6240    2.3433    0.0000 C   0  0  0  0  0  0  0  0  0  0  0  0
  -10.8740    1.0442    0.0000 N   0  0  0  0  0  0  0  0  0  0  0  0
   -9.4251    1.7541    0.0000 C   0  0  0  0  0  0  0  0  0  0  0  0
   -9.4251    3.2541    0.0000 N   0  0  0  0  0  0  0  0  0  0  0  0
  -10.8740    3.6423    0.0000 C   0  0  0  0  0  0  0  0  0  0  0  0
   -8.1523    0.9603    0.0000 C   0  0  0  0  0  0  0  0  0  0  0  0
   -6.8285    1.6657    0.0000 S   0  0  0  0  0  0  0  0  0  0  0  0
   -5.5558    0.8719    0.0000 C   0  0  0  0  0  0  0  0  0  0  0  0
   -5.6068   -0.6272    0.0000 C   0  0  0  0  0  0  0  0  0  0  0  0
   -4.3340   -1.4210    0.0000 C   0  0  0  0  0  0  0  0  0  0  0  0
   -3.0102   -0.7156    0.0000 C   0  0  0  0  0  0  0  0  0  0  0  0
   -2.9592    0.7836    0.0000 C   0  0  0  0  0  0  0  0  0  0  0  0
   -4.2320    1.5773    0.0000 C   0  0  0  0  0  0  0  0  0  0  0  0
   -1.7374   -1.5093    0.0000 N   0  0  0  0  0  0  0  0  0  0  0  0
  1  2  2  0  0  0  0
  1 12  1  0  0  0  0
  2  3  1  0  0  0  0
  3  4  2  0  0  0  0
  4  5  1  0  0  0  0
  4  8  1  0  0  0  0
  5  6  1  0  0  0  0
  6  7  1  0  0  0  0
  7  9  1  0  0  0  0
  8  9  1  0  0  0  0
  8 12  2  0  0  0  0
  9 10  1  0  0  0  0
 10 11  2  0  0  0  0
 10 13  1  0  0  0  0
 11 12  1  0  0  0  0
 13 14  1  0  0  0  0
 14 15  1  0  0  0  0
 15 16  2  0  0  0  0
 15 20  1  0  0  0  0
 16 17  1  0  0  0  0
 17 18  2  0  0  0  0
 18 19  1  0  0  0  0
 18 21  1  0  0  0  0
 19 20  2  0  0  0  0
M  END
