112203
 OpenBabel03021519512D

 22 23  0  0  1  0  0  0  0  0999 V2000
    3.0451   -9.9892    0.0000 O   0  0  0  0  0  0  0  0  0  0  0  0
   -1.0089   -7.7474    0.0000 C   0  0  0  0  0  0  0  0  0  0  0  0
    0.2902   -8.4974    0.0000 C   0  0  0  0  0  0  0  0  0  0  0  0
   -2.3079   -8.4974    0.0000 C   0  0  0  0  0  0  0  0  0  0  0  0
    0.2902   -9.9974    0.0000 C   0  0  0  0  0  0  0  0  0  0  0  0
   -2.3079   -9.9974    0.0000 C   0  0  0  0  0  0  0  0  0  0  0  0
   -1.0088  -10.7474    0.0000 C   0  0  0  0  0  0  0  0  0  0  0  0
    4.5123  -10.3010    0.0000 C   0  0  3  0  0  0  0  0  0  0  0  0
    5.2623   -9.0020    0.0000 C   0  0  3  0  0  0  0  0  0  0  0  0
    4.2586   -7.8873    0.0000 C   0  0  3  0  0  0  0  0  0  0  0  0
    2.8883   -8.4974    0.0000 C   0  0  3  0  0  0  0  0  0  0  0  0
   -3.6069  -10.7474    0.0000 C   0  0  0  0  0  0  0  0  0  0  0  0
   -1.0089   -6.2474    0.0000 C   0  0  0  0  0  0  0  0  0  0  0  0
    0.2902   -5.4974    0.0000 O   0  0  0  0  0  0  0  0  0  0  0  0
   -2.3079   -5.4974    0.0000 O   0  0  0  0  0  0  0  0  0  0  0  0
   -3.6069   -6.2474    0.0000 C   0  0  0  0  0  0  0  0  0  0  0  0
   -1.0088  -12.2474    0.0000 C   0  0  0  0  0  0  0  0  0  0  0  0
    1.5892   -7.7474    0.0000 N   0  0  0  0  0  0  0  0  0  0  0  0
    4.5704   -6.4201    0.0000 O   0  0  0  0  0  0  0  0  0  0  0  0
    6.7541   -8.8452    0.0000 O   0  0  0  0  0  0  0  0  0  0  0  0
    5.1224  -11.6714    0.0000 C   0  0  0  0  0  0  0  0  0  0  0  0
    6.6142  -11.8281    0.0000 O   0  0  0  0  0  0  0  0  0  0  0  0
  1  8  1  0  0  0  0
  1 11  1  0  0  0  0
  2  3  2  0  0  0  0
  2  4  1  0  0  0  0
  2 13  1  0  0  0  0
  3  5  1  0  0  0  0
  3 18  1  0  0  0  0
  4  6  2  0  0  0  0
  5  7  2  0  0  0  0
  6  7  1  0  0  0  0
  6 12  1  0  0  0  0
  7 17  1  0  0  0  0
  8  9  1  0  0  0  0
  8 21  1  0  0  0  0
  9 10  1  0  0  0  0
  9 20  1  0  0  0  0
 10 11  1  0  0  0  0
 10 19  1  0  0  0  0
 11 18  1  0  0  0  0
 13 14  2  0  0  0  0
 13 15  1  0  0  0  0
 15 16  1  0  0  0  0
 21 22  1  0  0  0  0
M  END
