18415
 OpenBabel03021519512D

 14 14  0  0  0  0  0  0  0  0999 V2000
   -1.7273    1.0165    0.0000 C   0  0  0  0  0  0  0  0  0  0  0  0
   -3.2270    0.9852    0.0000 C   0  0  0  0  0  0  0  0  0  0  0  0
   -0.9503   -0.2666    0.0000 C   0  0  0  0  0  0  0  0  0  0  0  0
   -1.6730   -1.5810    0.0000 C   0  0  0  0  0  0  0  0  0  0  0  0
   -3.9497   -0.3293    0.0000 C   0  0  0  0  0  0  0  0  0  0  0  0
   -3.1727   -1.6123    0.0000 C   0  0  0  0  0  0  0  0  0  0  0  0
    0.5493   -0.2353    0.0000 N   0  0  0  0  0  0  0  0  0  0  0  0
    1.0328    1.1847    0.0000 C   0  0  0  0  0  0  0  0  0  0  0  0
    0.0449    2.3133    0.0000 C   0  0  0  0  0  0  0  0  0  0  0  0
   -0.8961   -2.8641    0.0000 O   0  0  0  0  0  0  0  0  0  0  0  0
    2.5043    1.4759    0.0000 C   0  0  0  0  0  0  0  0  0  0  0  0
    2.9878    2.8959    0.0000 C   0  0  0  0  0  0  0  0  0  0  0  0
    1.9998    4.0246    0.0000 O   0  0  0  0  0  0  0  0  0  0  0  0
    4.4592    3.1871    0.0000 C   0  0  0  0  0  0  0  0  0  0  0  0
  1  2  2  0  0  0  0
  1  3  1  0  0  0  0
  2  5  1  0  0  0  0
  3  4  2  0  0  0  0
  3  7  1  0  0  0  0
  4  6  1  0  0  0  0
  4 10  1  0  0  0  0
  5  6  2  0  0  0  0
  7  8  1  0  0  0  0
  8  9  1  0  0  0  0
  8 11  2  0  0  0  0
 11 12  1  0  0  0  0
 12 13  2  0  0  0  0
 12 14  1  0  0  0  0
M  END
