3391
 OpenBabel03021519512D

 40 45  0  0  1  0  0  0  0  0999 V2000
   11.8220    7.2992    0.0000 C   0  0  0  0  0  0  0  0  0  0  0  0
   11.9431    5.8760    0.0000 C   0  0  0  0  0  0  0  0  0  0  0  0
   13.9789    6.7674    0.0000 C   0  0  3  0  0  0  0  0  0  0  0  0
   10.3659    6.0521    0.0000 C   0  0  0  0  0  0  0  0  0  0  0  0
   15.3215    6.7233    0.0000 C   0  0  0  0  0  0  0  0  0  0  0  0
   13.3003    5.5386    0.0000 C   0  0  3  0  0  0  0  0  0  0  0  0
   11.7414    5.2525    0.0000 C   0  0  0  0  0  0  0  0  0  0  0  0
    8.9903    5.2525    0.0000 C   0  0  0  0  0  0  0  0  0  0  0  0
   15.9854    8.1943    0.0000 C   0  0  0  0  0  0  0  0  0  0  0  0
   16.0147    5.5129    0.0000 C   0  0  3  0  0  0  0  0  0  0  0  0
   13.8945    4.4418    0.0000 C   0  0  3  0  0  0  0  0  0  0  0  0
   11.7414    3.6898    0.0000 C   0  0  0  0  0  0  0  0  0  0  0  0
    8.9903    3.6898    0.0000 C   0  0  0  0  0  0  0  0  0  0  0  0
   17.2545    5.6853    0.0000 C   0  0  0  0  0  0  0  0  0  0  0  0
   15.2848    4.3721    0.0000 C   0  0  3  0  0  0  0  0  0  0  0  0
   10.3659    2.8865    0.0000 C   0  0  0  0  0  0  0  0  0  0  0  0
   15.9340    3.2093    0.0000 C   0  0  3  0  0  0  0  0  0  0  0  0
   13.8762    2.0245    0.0000 C   0  0  0  0  0  0  0  0  0  0  0  0
   18.1863    3.7302    0.0000 C   0  0  0  0  0  0  0  0  0  0  0  0
   15.2260    1.9768    0.0000 C   0  0  0  0  0  0  0  0  0  0  0  0
    7.6853    2.9407    0.0000 O   0  0  0  0  0  0  0  0  0  0  0  0
    7.6860    6.0030    0.0000 O   0  0  0  0  0  0  0  0  0  0  0  0
   13.0725    0.7524    0.0000 O   0  0  0  0  0  0  0  0  0  0  0  0
   13.2453    3.2387    0.0000 N   0  0  0  0  0  0  0  0  0  0  0  0
   17.1995    2.9378    0.0000 O   0  0  0  0  0  0  0  0  0  0  0  0
   13.0985    7.8238    0.0000 N   0  0  3  0  0  0  0  0  0  0  0  0
    0.9102    5.9650    0.0000 C   0  0  0  0  0  0  0  0  0  0  0  0
    0.9102    3.3587    0.0000 C   0  0  0  0  0  0  0  0  0  0  0  0
    1.6626    4.6618    0.0000 C   0  0  0  0  0  0  0  0  0  0  0  0
    3.1673    4.6618    0.0000 C   0  0  0  0  0  0  0  0  0  0  0  0
    3.1673    2.0555    0.0000 N   0  0  0  0  0  0  0  0  0  0  0  0
    3.9197    3.3587    0.0000 C   0  0  3  0  0  0  0  0  0  0  0  0
    1.6626    2.0555    0.0000 C   0  0  0  0  0  0  0  0  0  0  0  0
    0.9102    0.7524    0.0000 O   0  0  0  0  0  0  0  0  0  0  0  0
    5.4244    3.3587    0.0000 C   0  0  0  0  0  0  0  0  0  0  0  0
    6.1768    2.0555    0.0000 O   0  0  0  0  0  0  0  0  0  0  0  0
    6.1768    4.6618    0.0000 O   0  0  0  0  0  0  0  0  0  0  0  0
    7.6838    7.5077    0.0000 C   0  0  0  0  0  0  0  0  0  0  0  0
    7.6816    1.4359    0.0000 C   0  0  0  0  0  0  0  0  0  0  0  0
   18.1899    4.9333    0.0000 C   0  0  0  0  0  0  0  0  0  0  0  0
  1  2  1  0  0  0  0
  1 26  1  0  0  0  0
  2  6  1  0  0  0  0
  3 26  1  0  0  0  0
  3  5  1  0  0  0  0
  3  6  1  0  0  0  0
  4  8  2  0  0  0  0
  4  7  1  0  0  0  0
  5 10  1  0  0  0  0
  6  7  1  0  0  0  0
  6 11  1  0  0  0  0
  7 12  2  0  0  0  0
  8 22  1  0  0  0  0
  8 13  1  0  0  0  0
  9 26  1  0  0  0  0
  9 14  1  0  0  0  0
 10 14  1  0  0  0  0
 10 15  1  0  0  0  0
 11 15  1  0  0  0  0
 11 24  1  0  0  0  0
 12 24  1  0  0  0  0
 12 16  1  0  0  0  0
 13 16  2  0  0  0  0
 13 21  1  0  0  0  0
 14 40  2  0  0  0  0
 15 17  1  0  0  0  0
 17 25  1  0  0  0  0
 17 20  1  0  0  0  0
 18 24  1  0  0  0  0
 18 23  2  0  0  0  0
 18 20  1  0  0  0  0
 19 25  1  0  0  0  0
 19 40  1  0  0  0  0
 21 39  1  0  0  0  0
 22 38  1  0  0  0  0
 27 29  1  0  0  0  0
 28 29  1  0  0  0  0
 29 30  1  0  0  0  0
 30 32  1  0  0  0  0
 31 32  1  0  0  0  0
 31 33  1  0  0  0  0
 32 35  1  0  0  0  0
 33 34  2  0  0  0  0
 35 36  2  0  0  0  0
 35 37  1  0  0  0  0
M  END
