114414
 OpenBabel03021519512D

 25 27  0  0  1  0  0  0  0  0999 V2000
   -6.3137   -3.6321    0.0000 N   0  0  0  0  0  0  0  0  0  0  0  0
   -7.1954   -4.8456    0.0000 N   0  0  0  0  0  0  0  0  0  0  0  0
   -4.0034   -5.5241    0.0000 O   0  0  0  0  0  0  0  0  0  0  0  0
   -6.3316   -8.6297    0.0000 N   0  0  0  0  0  0  0  0  0  0  0  0
   -4.9613   -8.0195    0.0000 N   0  0  0  0  0  0  0  0  0  0  0  0
   -5.1181   -6.5278    0.0000 C   0  0  0  0  0  0  0  0  0  0  0  0
   -6.5853   -6.2159    0.0000 C   0  0  3  0  0  0  0  0  0  0  0  0
   -7.3353   -7.5149    0.0000 C   0  0  0  0  0  0  0  0  0  0  0  0
   -2.3632   -8.0195    0.0000 C   0  0  0  0  0  0  0  0  0  0  0  0
   -3.6623   -8.7695    0.0000 C   0  0  0  0  0  0  0  0  0  0  0  0
   -1.0642   -8.7695    0.0000 C   0  0  0  0  0  0  0  0  0  0  0  0
   -1.0642  -10.2695    0.0000 C   0  0  0  0  0  0  0  0  0  0  0  0
   -3.6623  -10.2695    0.0000 C   0  0  0  0  0  0  0  0  0  0  0  0
   -2.3632  -11.0195    0.0000 C   0  0  0  0  0  0  0  0  0  0  0  0
   -6.0422   -1.0482    0.0000 C   0  0  0  0  0  0  0  0  0  0  0  0
   -6.9239   -2.2617    0.0000 C   0  0  0  0  0  0  0  0  0  0  0  0
   -6.6523    0.3221    0.0000 C   0  0  0  0  0  0  0  0  0  0  0  0
   -8.4156   -2.1049    0.0000 C   0  0  0  0  0  0  0  0  0  0  0  0
   -8.1441    0.4789    0.0000 C   0  0  0  0  0  0  0  0  0  0  0  0
   -9.0257   -0.7346    0.0000 C   0  0  0  0  0  0  0  0  0  0  0  0
   -9.3643    3.2195    0.0000 N   0  0  0  0  0  0  0  0  0  0  0  0
   -8.7542    1.8492    0.0000 S   0  0  0  0  0  0  0  0  0  0  0  0
   -7.3839    2.4593    0.0000 O   0  0  0  0  0  0  0  0  0  0  0  0
  -10.1245    1.2391    0.0000 O   0  0  0  0  0  0  0  0  0  0  0  0
   -8.8271   -7.6717    0.0000 C   0  0  0  0  0  0  0  0  0  0  0  0
  1 16  1  0  0  0  0
  1  2  2  0  0  0  0
  2  7  1  0  0  0  0
  3  6  2  0  0  0  0
  4  5  1  0  0  0  0
  4  8  2  0  0  0  0
  5  6  1  0  0  0  0
  5 10  1  0  0  0  0
  6  7  1  0  0  0  0
  7  8  1  0  0  0  0
  8 25  1  0  0  0  0
  9 11  2  0  0  0  0
  9 10  1  0  0  0  0
 10 13  2  0  0  0  0
 11 12  1  0  0  0  0
 12 14  2  0  0  0  0
 13 14  1  0  0  0  0
 15 17  2  0  0  0  0
 15 16  1  0  0  0  0
 16 18  2  0  0  0  0
 17 19  1  0  0  0  0
 18 20  1  0  0  0  0
 19 20  2  0  0  0  0
 19 22  1  0  0  0  0
 21 22  1  0  0  0  0
 22 23  2  0  0  0  0
 22 24  2  0  0  0  0
M  END
