220030
 OpenBabel03021519512D

 16 16  0  0  1  0  0  0  0  0999 V2000
    2.1226    2.3236    0.0000 N   0  0  0  0  0  0  0  0  0  0  0  0
    4.7207    5.3236    0.0000 C   0  0  0  0  0  0  0  0  0  0  0  0
    2.1226    5.3236    0.0000 C   0  0  0  0  0  0  0  0  0  0  0  0
    0.8236    4.5736    0.0000 C   0  0  0  0  0  0  0  0  0  0  0  0
    3.4216    4.5736    0.0000 C   0  0  0  0  0  0  0  0  0  0  0  0
    0.8236    3.0736    0.0000 C   0  0  0  0  0  0  0  0  0  0  0  0
    3.4216    3.0736    0.0000 C   0  0  0  0  0  0  0  0  0  0  0  0
   -0.4755    2.3236    0.0000 C   0  0  0  0  0  0  0  0  0  0  0  0
    6.0197    6.0736    0.0000 C   0  0  0  0  0  0  0  0  0  0  0  0
    7.3187    6.8236    0.0000 C   0  0  3  0  0  0  0  0  0  0  0  0
    6.5687    8.1226    0.0000 C   0  0  0  0  0  0  0  0  0  0  0  0
    8.0688    5.5245    0.0000 O   0  0  0  0  0  0  0  0  0  0  0  0
    8.6178    7.5736    0.0000 C   0  0  0  0  0  0  0  0  0  0  0  0
    9.3678    6.2745    0.0000 C   0  0  0  0  0  0  0  0  0  0  0  0
    7.8678    8.8726    0.0000 C   0  0  0  0  0  0  0  0  0  0  0  0
    9.9168    8.3236    0.0000 C   0  0  0  0  0  0  0  0  0  0  0  0
  1  6  2  0  0  0  0
  1  7  1  0  0  0  0
  2  5  1  0  0  0  0
  2  9  3  0  0  0  0
  3  4  2  0  0  0  0
  3  5  1  0  0  0  0
  4  6  1  0  0  0  0
  5  7  2  0  0  0  0
  6  8  1  0  0  0  0
  9 10  1  0  0  0  0
 10 11  1  0  0  0  0
 10 12  1  0  0  0  0
 10 13  1  0  0  0  0
 13 14  1  0  0  0  0
 13 15  1  0  0  0  0
 13 16  1  0  0  0  0
M  END
