126757
 OpenBabel03021519512D

 16 17  0  0  0  0  0  0  0  0999 V2000
   -4.4064   -4.9101    0.0000 C   0  0  0  0  0  0  0  0  0  0  0  0
   -4.4064   -6.4101    0.0000 C   0  0  0  0  0  0  0  0  0  0  0  0
   -5.7055   -7.1601    0.0000 C   0  0  0  0  0  0  0  0  0  0  0  0
   -7.0045   -6.4101    0.0000 C   0  0  0  0  0  0  0  0  0  0  0  0
   -7.0045   -4.9101    0.0000 C   0  0  0  0  0  0  0  0  0  0  0  0
   -5.7055   -4.1601    0.0000 C   0  0  0  0  0  0  0  0  0  0  0  0
   -2.0982   -5.6601    0.0000 C   0  0  0  0  0  0  0  0  0  0  0  0
   -2.9798   -6.8736    0.0000 N   0  0  0  0  0  0  0  0  0  0  0  0
   -2.9798   -4.4466    0.0000 N   0  0  0  0  0  0  0  0  0  0  0  0
    0.1518   -4.3610    0.0000 C   0  0  0  0  0  0  0  0  0  0  0  0
   -0.5982   -5.6601    0.0000 N   0  0  0  0  0  0  0  0  0  0  0  0
    1.6518   -4.3610    0.0000 N   0  0  0  0  0  0  0  0  0  0  0  0
   -0.5982   -3.0620    0.0000 N   0  0  0  0  0  0  0  0  0  0  0  0
   -8.3035   -7.1601    0.0000 N   0  3  0  0  0  0  0  0  0  0  0  0
   -9.6026   -6.4101    0.0000 O   0  5  0  0  0  0  0  0  0  0  0  0
   -8.3035   -8.6601    0.0000 O   0  0  0  0  0  0  0  0  0  0  0  0
  1  2  2  0  0  0  0
  1  6  1  0  0  0  0
  1  9  1  0  0  0  0
  2  3  1  0  0  0  0
  2  8  1  0  0  0  0
  3  4  2  0  0  0  0
  4  5  1  0  0  0  0
  4 14  1  0  0  0  0
  5  6  2  0  0  0  0
  7  8  2  0  0  0  0
  7  9  1  0  0  0  0
  7 11  1  0  0  0  0
 10 11  1  0  0  0  0
 10 12  2  0  0  0  0
 10 13  1  0  0  0  0
 14 15  1  0  0  0  0
 14 16  2  0  0  0  0
M  CHG  2  14   1  15  -1
M  END
