169409
 OpenBabel03021519512D

 24 25  0  0  1  0  0  0  0  0999 V2000
    8.8188   -1.2255    0.0000 O   0  0  0  0  0  0  0  0  0  0  0  0
   11.4168   -4.2255    0.0000 N   0  0  0  0  0  0  0  0  0  0  0  0
   14.0149   -5.7255    0.0000 O   0  0  0  0  0  0  0  0  0  0  0  0
   12.7159   -3.4755    0.0000 C   0  0  0  0  0  0  0  0  0  0  0  0
   14.0149   -4.2255    0.0000 C   0  0  0  0  0  0  0  0  0  0  0  0
    7.5197    2.5245    0.0000 C   0  0  0  0  0  0  0  0  0  0  0  0
    7.5197    1.0245    0.0000 C   0  0  0  0  0  0  0  0  0  0  0  0
    6.2207    3.2745    0.0000 C   0  0  0  0  0  0  0  0  0  0  0  0
    6.2207    0.2745    0.0000 C   0  0  0  0  0  0  0  0  0  0  0  0
    4.9216    2.5245    0.0000 C   0  0  0  0  0  0  0  0  0  0  0  0
    4.9216    1.0245    0.0000 C   0  0  0  0  0  0  0  0  0  0  0  0
   11.4169   -5.7255    0.0000 C   0  0  0  0  0  0  0  0  0  0  0  0
   12.7159   -6.4755    0.0000 C   0  0  0  0  0  0  0  0  0  0  0  0
    6.2206    4.7745    0.0000 O   0  0  0  0  0  0  0  0  0  0  0  0
    4.9216    5.5245    0.0000 C   0  0  0  0  0  0  0  0  0  0  0  0
    3.6226    3.2745    0.0000 O   0  0  0  0  0  0  0  0  0  0  0  0
    3.6226    4.7745    0.0000 C   0  0  0  0  0  0  0  0  0  0  0  0
    3.6226    0.2745    0.0000 O   0  0  0  0  0  0  0  0  0  0  0  0
    2.3236    1.0245    0.0000 C   0  0  0  0  0  0  0  0  0  0  0  0
    8.8187    0.2745    0.0000 C   0  0  0  0  0  0  0  0  0  0  0  0
   10.1178    1.0245    0.0000 O   0  0  0  0  0  0  0  0  0  0  0  0
   10.1178   -1.9755    0.0000 C   0  0  3  0  0  0  0  0  0  0  0  0
   11.4168   -1.2255    0.0000 C   0  0  0  0  0  0  0  0  0  0  0  0
   10.1178   -3.4755    0.0000 C   0  0  0  0  0  0  0  0  0  0  0  0
  1 20  1  0  0  0  0
  1 22  1  0  0  0  0
  2  4  1  0  0  0  0
  2 12  1  0  0  0  0
  2 24  1  0  0  0  0
  3  5  1  0  0  0  0
  3 13  1  0  0  0  0
  4  5  1  0  0  0  0
  6  8  2  0  0  0  0
  6  7  1  0  0  0  0
  7  9  2  0  0  0  0
  7 20  1  0  0  0  0
  8 10  1  0  0  0  0
  8 14  1  0  0  0  0
  9 11  1  0  0  0  0
 10 11  2  0  0  0  0
 10 16  1  0  0  0  0
 11 18  1  0  0  0  0
 12 13  1  0  0  0  0
 14 15  1  0  0  0  0
 16 17  1  0  0  0  0
 18 19  1  0  0  0  0
 20 21  2  0  0  0  0
 22 23  1  0  0  0  0
 22 24  1  0  0  0  0
M  END
