150982
 OpenBabel03021519512D

 15 16  0  0  0  0  0  0  0  0999 V2000
   -2.1846   -5.2838    0.0000 H   0  0  0  0  0  0  0  0  0  0  0  0
   -1.1809   -6.3985    0.0000 N   0  0  0  0  0  0  0  0  0  0  0  0
   -2.7918   -8.6157    0.0000 C   0  0  0  0  0  0  0  0  0  0  0  0
   -1.4927   -7.8657    0.0000 C   0  0  0  0  0  0  0  0  0  0  0  0
   -2.7918  -10.1157    0.0000 C   0  0  0  0  0  0  0  0  0  0  0  0
   -0.1937   -8.6157    0.0000 C   0  0  0  0  0  0  0  0  0  0  0  0
   -1.4927  -10.8657    0.0000 C   0  0  0  0  0  0  0  0  0  0  0  0
    0.9210   -7.6120    0.0000 C   0  0  0  0  0  0  0  0  0  0  0  0
    0.3109   -6.2417    0.0000 C   0  0  0  0  0  0  0  0  0  0  0  0
   -0.1937  -10.1157    0.0000 C   0  0  0  0  0  0  0  0  0  0  0  0
    1.0609   -4.9427    0.0000 C   0  0  0  0  0  0  0  0  0  0  0  0
    2.5609   -4.9427    0.0000 C   0  0  0  0  0  0  0  0  0  0  0  0
    3.3109   -3.6436    0.0000 N   0  3  0  0  0  0  0  0  0  0  0  0
    4.8109   -3.6436    0.0000 O   0  5  0  0  0  0  0  0  0  0  0  0
    2.5609   -2.3446    0.0000 O   0  0  0  0  0  0  0  0  0  0  0  0
  1  2  1  0  0  0  0
  2  4  1  0  0  0  0
  2  9  1  0  0  0  0
  3  5  2  0  0  0  0
  3  4  1  0  0  0  0
  4  6  2  0  0  0  0
  5  7  1  0  0  0  0
  6  8  1  0  0  0  0
  6 10  1  0  0  0  0
  7 10  2  0  0  0  0
  8  9  2  0  0  0  0
  9 11  1  0  0  0  0
 11 12  2  0  0  0  0
 12 13  1  0  0  0  0
 13 14  1  0  0  0  0
 13 15  2  0  0  0  0
M  CHG  2  13   1  14  -1
M  END
