47680
 OpenBabel03021519512D

 19 20  0  0  0  0  0  0  0  0999 V2000
   -7.4192   -6.6495    0.0000 N   0  0  0  0  0  0  0  0  0  0  0  0
   -7.4192   -5.1495    0.0000 H   0  0  0  0  0  0  0  0  0  0  0  0
   -7.4192  -11.1495    0.0000 O   0  0  0  0  0  0  0  0  0  0  0  0
   -6.1202   -8.8995    0.0000 N   0  0  0  0  0  0  0  0  0  0  0  0
   -2.2231   -6.6495    0.0000 Cl  0  0  0  0  0  0  0  0  0  0  0  0
    0.3750   -2.1495    0.0000 Cl  0  0  0  0  0  0  0  0  0  0  0  0
   -3.5221   -2.8995    0.0000 C   0  0  0  0  0  0  0  0  0  0  0  0
   -2.2231   -2.1495    0.0000 C   0  0  0  0  0  0  0  0  0  0  0  0
   -3.5221   -4.3995    0.0000 C   0  0  0  0  0  0  0  0  0  0  0  0
   -0.9240   -2.8995    0.0000 C   0  0  0  0  0  0  0  0  0  0  0  0
   -2.2231   -5.1495    0.0000 C   0  0  0  0  0  0  0  0  0  0  0  0
   -0.9240   -4.3995    0.0000 C   0  0  0  0  0  0  0  0  0  0  0  0
   -6.1202   -7.3995    0.0000 C   0  0  0  0  0  0  0  0  0  0  0  0
   -8.7183   -7.3995    0.0000 C   0  0  0  0  0  0  0  0  0  0  0  0
   -8.7183   -8.8995    0.0000 C   0  0  0  0  0  0  0  0  0  0  0  0
   -7.4192   -9.6495    0.0000 C   0  0  0  0  0  0  0  0  0  0  0  0
  -10.0173   -9.6495    0.0000 C   0  0  0  0  0  0  0  0  0  0  0  0
   -4.8211   -6.6495    0.0000 S   0  0  0  0  0  0  0  0  0  0  0  0
   -4.8211   -5.1495    0.0000 C   0  0  0  0  0  0  0  0  0  0  0  0
  1 13  1  0  0  0  0
  1 14  1  0  0  0  0
  1  2  1  0  0  0  0
  3 16  2  0  0  0  0
  4 13  2  0  0  0  0
  4 16  1  0  0  0  0
  5 11  1  0  0  0  0
  6 10  1  0  0  0  0
  7  8  2  0  0  0  0
  7  9  1  0  0  0  0
  8 10  1  0  0  0  0
  9 11  2  0  0  0  0
  9 19  1  0  0  0  0
 10 12  2  0  0  0  0
 11 12  1  0  0  0  0
 13 18  1  0  0  0  0
 14 15  2  0  0  0  0
 15 16  1  0  0  0  0
 15 17  1  0  0  0  0
 18 19  1  0  0  0  0
M  END
