3001
 OpenBabel03021519512D

 15 15  0  0  1  0  0  0  0  0999 V2000
    1.1698    5.4738    0.0000 C   0  0  0  0  0  0  0  0  0  0  0  0
   -0.1292    6.2238    0.0000 C   0  0  0  0  0  0  0  0  0  0  0  0
   -1.4283    5.4738    0.0000 C   0  0  0  0  0  0  0  0  0  0  0  0
    1.1698    3.9738    0.0000 C   0  0  0  0  0  0  0  0  0  0  0  0
   -1.4283    3.9738    0.0000 C   0  0  0  0  0  0  0  0  0  0  0  0
   -0.1292    3.2238    0.0000 C   0  0  3  0  0  0  0  0  0  0  0  0
   -0.1292    1.7238    0.0000 C   0  0  0  0  0  0  0  0  0  0  0  0
    1.6828    6.8834    0.0000 C   0  0  0  0  0  0  0  0  0  0  0  0
    3.1600    7.1439    0.0000 C   0  0  0  0  0  0  0  0  0  0  0  0
    3.6731    8.5534    0.0000 O   0  0  0  0  0  0  0  0  0  0  0  0
    4.1242    5.9948    0.0000 O   0  0  0  0  0  0  0  0  0  0  0  0
    2.6470    5.2134    0.0000 C   0  0  0  0  0  0  0  0  0  0  0  0
    3.1600    3.8038    0.0000 C   0  0  0  0  0  0  0  0  0  0  0  0
    4.6373    3.5434    0.0000 O   0  0  0  0  0  0  0  0  0  0  0  0
    2.1959    2.6548    0.0000 O   0  0  0  0  0  0  0  0  0  0  0  0
  1  2  1  0  0  0  0
  1  4  1  0  0  0  0
  1  8  1  0  0  0  0
  1 12  1  0  0  0  0
  2  3  1  0  0  0  0
  3  5  1  0  0  0  0
  4  6  1  0  0  0  0
  5  6  1  0  0  0  0
  6  7  1  0  0  0  0
  8  9  1  0  0  0  0
  9 10  2  0  0  0  0
  9 11  1  0  0  0  0
 12 13  1  0  0  0  0
 13 14  2  0  0  0  0
 13 15  1  0  0  0  0
M  END
