120290
 OpenBabel03021519512D

 22 24  0  0  0  0  0  0  0  0999 V2000
   -1.9779    4.9258    0.0000 N   0  0  0  0  0  0  0  0  0  0  0  0
   -1.2279    3.6268    0.0000 N   0  0  0  0  0  0  0  0  0  0  0  0
   -0.9742    6.0405    0.0000 S   0  0  0  0  0  0  0  0  0  0  0  0
    5.7490    9.9222    0.0000 S   0  0  0  0  0  0  0  0  0  0  0  0
    7.9663    8.9351    0.0000 N   0  0  0  0  0  0  0  0  0  0  0  0
    7.2163   10.2341    0.0000 N   0  0  0  0  0  0  0  0  0  0  0  0
    5.5923    8.4304    0.0000 C   0  0  0  0  0  0  0  0  0  0  0  0
    6.9626    7.8203    0.0000 C   0  0  0  0  0  0  0  0  0  0  0  0
    4.2932    7.6804    0.0000 C   0  0  0  0  0  0  0  0  0  0  0  0
    2.9942    8.4304    0.0000 C   0  0  0  0  0  0  0  0  0  0  0  0
    1.6951    7.6804    0.0000 C   0  0  0  0  0  0  0  0  0  0  0  0
    4.2932    6.1804    0.0000 C   0  0  0  0  0  0  0  0  0  0  0  0
    1.6951    6.1804    0.0000 C   0  0  0  0  0  0  0  0  0  0  0  0
    2.9942    5.4304    0.0000 C   0  0  0  0  0  0  0  0  0  0  0  0
    0.3961    5.4304    0.0000 C   0  0  0  0  0  0  0  0  0  0  0  0
    0.2393    3.9387    0.0000 C   0  0  0  0  0  0  0  0  0  0  0  0
    1.3540    2.9350    0.0000 C   0  0  0  0  0  0  0  0  0  0  0  0
    1.0422    1.4677    0.0000 O   0  0  0  0  0  0  0  0  0  0  0  0
    2.7806    3.3985    0.0000 N   0  0  0  0  0  0  0  0  0  0  0  0
    6.1597    5.3494    0.0000 N   0  0  0  0  0  0  0  0  0  0  0  0
    7.2744    6.3531    0.0000 C   0  0  0  0  0  0  0  0  0  0  0  0
    8.7010    5.8896    0.0000 O   0  0  0  0  0  0  0  0  0  0  0  0
  1  3  1  0  0  0  0
  1  2  2  0  0  0  0
  2 16  1  0  0  0  0
  3 15  1  0  0  0  0
  4  6  1  0  0  0  0
  4  7  1  0  0  0  0
  5  6  2  0  0  0  0
  5  8  1  0  0  0  0
  7  8  2  0  0  0  0
  7  9  1  0  0  0  0
  8 21  1  0  0  0  0
  9 10  2  0  0  0  0
  9 12  1  0  0  0  0
 10 11  1  0  0  0  0
 11 13  2  0  0  0  0
 12 14  2  0  0  0  0
 13 14  1  0  0  0  0
 13 15  1  0  0  0  0
 15 16  2  0  0  0  0
 16 17  1  0  0  0  0
 17 18  2  0  0  0  0
 17 19  1  0  0  0  0
 20 21  1  0  0  0  0
 21 22  2  0  0  0  0
M  END
