37219
 OpenBabel03021519512D

 27 30  0  0  0  0  0  0  0  0999 V2000
    1.0245   -4.7745    0.0000 C   0  0  0  0  0  0  0  0  0  0  0  0
   -0.2745   -5.5245    0.0000 C   0  0  0  0  0  0  0  0  0  0  0  0
    2.3236   -5.5245    0.0000 C   0  0  0  0  0  0  0  0  0  0  0  0
   -1.5736   -4.7745    0.0000 C   0  0  0  0  0  0  0  0  0  0  0  0
   -2.8726   -5.5245    0.0000 C   0  0  0  0  0  0  0  0  0  0  0  0
    2.3236   -7.0245    0.0000 C   0  0  0  0  0  0  0  0  0  0  0  0
   -0.2745   -7.0245    0.0000 C   0  0  0  0  0  0  0  0  0  0  0  0
   -2.8726   -7.0245    0.0000 C   0  0  0  0  0  0  0  0  0  0  0  0
    1.0245   -7.7745    0.0000 C   0  0  0  0  0  0  0  0  0  0  0  0
   -1.5735   -7.7745    0.0000 C   0  0  0  0  0  0  0  0  0  0  0  0
  -11.9659   -9.2745    0.0000 C   0  0  0  0  0  0  0  0  0  0  0  0
  -10.6668  -10.0245    0.0000 C   0  0  0  0  0  0  0  0  0  0  0  0
  -13.2649  -10.0246    0.0000 C   0  0  0  0  0  0  0  0  0  0  0  0
  -14.5639   -9.2746    0.0000 C   0  0  0  0  0  0  0  0  0  0  0  0
  -15.8630  -10.0246    0.0000 C   0  0  0  0  0  0  0  0  0  0  0  0
  -10.6668  -11.5245    0.0000 C   0  0  0  0  0  0  0  0  0  0  0  0
  -13.2649  -11.5246    0.0000 C   0  0  0  0  0  0  0  0  0  0  0  0
  -15.8630  -11.5246    0.0000 C   0  0  0  0  0  0  0  0  0  0  0  0
  -11.9658  -12.2746    0.0000 C   0  0  0  0  0  0  0  0  0  0  0  0
  -14.5639  -12.2746    0.0000 C   0  0  0  0  0  0  0  0  0  0  0  0
   -9.3678   -9.2745    0.0000 O   0  0  0  0  0  0  0  0  0  0  0  0
   -9.3678   -7.7745    0.0000 C   0  0  0  0  0  0  0  0  0  0  0  0
   -8.0687   -7.0245    0.0000 C   0  0  0  0  0  0  0  0  0  0  0  0
   -8.0687   -5.5245    0.0000 O   0  0  0  0  0  0  0  0  0  0  0  0
   -6.7697   -4.7745    0.0000 C   0  0  0  0  0  0  0  0  0  0  0  0
   -5.4707   -5.5245    0.0000 C   0  0  0  0  0  0  0  0  0  0  0  0
   -4.1716   -4.7745    0.0000 O   0  0  0  0  0  0  0  0  0  0  0  0
  1  3  2  0  0  0  0
  1  2  1  0  0  0  0
  2  7  2  0  0  0  0
  2  4  1  0  0  0  0
  3  6  1  0  0  0  0
  4  5  2  0  0  0  0
  5  8  1  0  0  0  0
  5 27  1  0  0  0  0
  6  9  2  0  0  0  0
  7 10  1  0  0  0  0
  7  9  1  0  0  0  0
  8 10  2  0  0  0  0
 11 12  2  0  0  0  0
 11 13  1  0  0  0  0
 12 16  1  0  0  0  0
 12 21  1  0  0  0  0
 13 17  2  0  0  0  0
 13 14  1  0  0  0  0
 14 15  2  0  0  0  0
 15 18  1  0  0  0  0
 16 19  2  0  0  0  0
 17 19  1  0  0  0  0
 17 20  1  0  0  0  0
 18 20  2  0  0  0  0
 21 22  1  0  0  0  0
 22 23  1  0  0  0  0
 23 24  1  0  0  0  0
 24 25  1  0  0  0  0
 25 26  1  0  0  0  0
 26 27  1  0  0  0  0
M  END
