12544
 OpenBabel03021519512D

 21 23  0  0  0  0  0  0  0  0999 V2000
   -8.8188    7.7745    0.0000 Cl  0  0  0  0  0  0  0  0  0  0  0  0
   -8.8188    1.7745    0.0000 O   0  0  0  0  0  0  0  0  0  0  0  0
   -4.9216    2.5245    0.0000 N   0  0  0  0  0  0  0  0  0  0  0  0
   -8.8188    6.2745    0.0000 C   0  0  0  0  0  0  0  0  0  0  0  0
  -10.1178    5.5245    0.0000 C   0  0  0  0  0  0  0  0  0  0  0  0
   -7.5197    5.5245    0.0000 C   0  0  0  0  0  0  0  0  0  0  0  0
   -7.5197    4.0245    0.0000 C   0  0  0  0  0  0  0  0  0  0  0  0
  -10.1178    4.0245    0.0000 C   0  0  0  0  0  0  0  0  0  0  0  0
   -8.8188    3.2745    0.0000 C   0  0  0  0  0  0  0  0  0  0  0  0
   -6.2207    0.2745    0.0000 C   0  0  0  0  0  0  0  0  0  0  0  0
   -4.9216    1.0245    0.0000 C   0  0  0  0  0  0  0  0  0  0  0  0
   -6.2207   -1.2255    0.0000 C   0  0  0  0  0  0  0  0  0  0  0  0
   -3.6226    0.2745    0.0000 C   0  0  0  0  0  0  0  0  0  0  0  0
   -4.9216   -1.9755    0.0000 C   0  0  0  0  0  0  0  0  0  0  0  0
   -2.3236    1.0245    0.0000 C   0  0  0  0  0  0  0  0  0  0  0  0
   -3.6226    3.2745    0.0000 C   0  0  0  0  0  0  0  0  0  0  0  0
   -2.3236    2.5245    0.0000 C   0  0  0  0  0  0  0  0  0  0  0  0
   -3.6226   -1.2255    0.0000 C   0  0  0  0  0  0  0  0  0  0  0  0
   -7.5197    1.0245    0.0000 S   0  0  0  0  0  0  0  0  0  0  0  0
   -8.2697   -0.2745    0.0000 O   0  0  0  0  0  0  0  0  0  0  0  0
   -6.7697    2.3235    0.0000 O   0  0  0  0  0  0  0  0  0  0  0  0
  1  4  1  0  0  0  0
  2  9  1  0  0  0  0
  2 19  1  0  0  0  0
  3 16  2  0  0  0  0
  3 11  1  0  0  0  0
  4  6  2  0  0  0  0
  4  5  1  0  0  0  0
  5  8  2  0  0  0  0
  6  7  1  0  0  0  0
  7  9  2  0  0  0  0
  8  9  1  0  0  0  0
 10 12  2  0  0  0  0
 10 11  1  0  0  0  0
 10 19  1  0  0  0  0
 11 13  2  0  0  0  0
 12 14  1  0  0  0  0
 13 15  1  0  0  0  0
 13 18  1  0  0  0  0
 14 18  2  0  0  0  0
 15 17  2  0  0  0  0
 16 17  1  0  0  0  0
 19 20  2  0  0  0  0
 19 21  2  0  0  0  0
M  END
