4426
 OpenBabel03021519512D

 14 15  0  0  1  0  0  0  0  0999 V2000
   -5.4707   -7.0245    0.0000 N   0  0  0  0  0  0  0  0  0  0  0  0
   -4.1716   -4.7745    0.0000 N   0  0  0  0  0  0  0  0  0  0  0  0
   -2.8726   -7.0245    0.0000 N   0  0  0  0  0  0  0  0  0  0  0  0
   -1.5736   -3.2745    0.0000 C   0  0  0  0  0  0  0  0  0  0  0  0
   -0.2745   -2.5245    0.0000 C   0  0  0  0  0  0  0  0  0  0  0  0
   -1.5736   -4.7745    0.0000 C   0  0  3  0  0  0  0  0  0  0  0  0
    1.0245   -3.2745    0.0000 C   0  0  0  0  0  0  0  0  0  0  0  0
   -0.2745   -5.5245    0.0000 C   0  0  0  0  0  0  0  0  0  0  0  0
   -2.8726   -5.5245    0.0000 C   0  0  0  0  0  0  0  0  0  0  0  0
    1.0245   -4.7745    0.0000 C   0  0  0  0  0  0  0  0  0  0  0  0
   -5.4707   -5.5245    0.0000 C   0  0  0  0  0  0  0  0  0  0  0  0
   -4.1716   -7.7745    0.0000 C   0  0  0  0  0  0  0  0  0  0  0  0
   -6.7697   -4.7745    0.0000 N   0  0  0  0  0  0  0  0  0  0  0  0
   -4.1716   -9.2745    0.0000 N   0  0  0  0  0  0  0  0  0  0  0  0
  1 11  2  0  0  0  0
  1 12  1  0  0  0  0
  2  9  2  0  0  0  0
  2 11  1  0  0  0  0
  3 12  2  0  0  0  0
  3  9  1  0  0  0  0
  4  5  1  0  0  0  0
  4  6  1  0  0  0  0
  5  7  1  0  0  0  0
  6  8  1  0  0  0  0
  6  9  1  0  0  0  0
  7 10  1  0  0  0  0
  8 10  2  0  0  0  0
 11 13  1  0  0  0  0
 12 14  1  0  0  0  0
M  END
