46212
 OpenBabel03021519512D

 22 23  0  0  0  0  0  0  0  0999 V2000
    2.0490   -7.5000    0.0000 C   0  0  0  0  0  0  0  0  0  0  0  0
    0.7500   -8.2500    0.0000 C   0  0  0  0  0  0  0  0  0  0  0  0
    3.3481   -8.2500    0.0000 C   0  0  0  0  0  0  0  0  0  0  0  0
    3.3481   -9.7500    0.0000 C   0  0  0  0  0  0  0  0  0  0  0  0
    0.7500   -9.7500    0.0000 C   0  0  0  0  0  0  0  0  0  0  0  0
    2.0491  -10.5000    0.0000 C   0  0  0  0  0  0  0  0  0  0  0  0
    5.0181   -3.2597    0.0000 C   0  0  0  0  0  0  0  0  0  0  0  0
    3.6086   -3.7728    0.0000 C   0  0  0  0  0  0  0  0  0  0  0  0
    5.2786   -1.7825    0.0000 C   0  0  0  0  0  0  0  0  0  0  0  0
    4.1295   -0.8184    0.0000 C   0  0  0  0  0  0  0  0  0  0  0  0
    2.4595   -2.8086    0.0000 C   0  0  0  0  0  0  0  0  0  0  0  0
    2.7200   -1.3314    0.0000 C   0  0  0  0  0  0  0  0  0  0  0  0
    2.0490   -6.0000    0.0000 C   0  0  0  0  0  0  0  0  0  0  0  0
    2.0491  -12.0000    0.0000 C   0  0  0  0  0  0  0  0  0  0  0  0
    0.7500  -12.7500    0.0000 C   0  0  0  0  0  0  0  0  0  0  0  0
    3.3481  -12.7500    0.0000 C   0  0  0  0  0  0  0  0  0  0  0  0
    4.6471   -7.5000    0.0000 N   0  0  0  0  0  0  0  0  0  0  0  0
    4.6471   -6.0000    0.0000 C   0  0  0  0  0  0  0  0  0  0  0  0
    5.9462   -5.2500    0.0000 O   0  0  0  0  0  0  0  0  0  0  0  0
    3.3481   -5.2500    0.0000 N   0  0  0  0  0  0  0  0  0  0  0  0
    1.0499   -3.3216    0.0000 O   0  0  0  0  0  0  0  0  0  0  0  0
    0.7895   -4.7988    0.0000 C   0  0  0  0  0  0  0  0  0  0  0  0
  1  3  2  0  0  0  0
  1  2  1  0  0  0  0
  1 13  1  0  0  0  0
  2  5  2  0  0  0  0
  3  4  1  0  0  0  0
  3 17  1  0  0  0  0
  4  6  2  0  0  0  0
  5  6  1  0  0  0  0
  6 14  1  0  0  0  0
  7  9  2  0  0  0  0
  7  8  1  0  0  0  0
  8 11  2  0  0  0  0
  8 20  1  0  0  0  0
  9 10  1  0  0  0  0
 10 12  2  0  0  0  0
 11 12  1  0  0  0  0
 11 21  1  0  0  0  0
 14 15  1  0  0  0  0
 14 16  1  0  0  0  0
 17 18  1  0  0  0  0
 18 19  2  0  0  0  0
 18 20  1  0  0  0  0
 21 22  1  0  0  0  0
M  END
