112677
 OpenBabel03021519512D

 19 21  0  0  0  0  0  0  0  0999 V2000
   -2.0409   -5.0138    0.0000 H   0  0  0  0  0  0  0  0  0  0  0  0
   -1.5774   -6.4404    0.0000 N   0  0  0  0  0  0  0  0  0  0  0  0
    2.4473   -6.9040    0.0000 N   0  0  0  0  0  0  0  0  0  0  0  0
    1.1483   -6.1540    0.0000 C   0  0  0  0  0  0  0  0  0  0  0  0
   -0.1508   -6.9040    0.0000 C   0  0  0  0  0  0  0  0  0  0  0  0
   -0.1508   -8.4040    0.0000 C   0  0  0  0  0  0  0  0  0  0  0  0
    1.1483   -9.1540    0.0000 C   0  0  0  0  0  0  0  0  0  0  0  0
    2.4473   -8.4040    0.0000 C   0  0  0  0  0  0  0  0  0  0  0  0
   -1.5774   -8.8675    0.0000 C   0  0  0  0  0  0  0  0  0  0  0  0
   -3.9508   -7.8108    0.0000 C   0  0  0  0  0  0  0  0  0  0  0  0
   -2.4590   -7.6540    0.0000 C   0  0  0  0  0  0  0  0  0  0  0  0
   -4.5609   -9.1811    0.0000 C   0  0  0  0  0  0  0  0  0  0  0  0
   -3.6792  -10.3946    0.0000 C   0  0  0  0  0  0  0  0  0  0  0  0
   -2.1875  -10.2378    0.0000 C   0  0  0  0  0  0  0  0  0  0  0  0
    1.1483   -4.6540    0.0000 C   0  0  0  0  0  0  0  0  0  0  0  0
    2.4473   -3.9040    0.0000 C   0  0  0  0  0  0  0  0  0  0  0  0
    3.7463   -4.6539    0.0000 C   0  0  0  0  0  0  0  0  0  0  0  0
    5.0454   -3.9039    0.0000 C   0  0  0  0  0  0  0  0  0  0  0  0
    6.3444   -4.6539    0.0000 O   0  0  0  0  0  0  0  0  0  0  0  0
  1  2  1  0  0  0  0
  2  5  1  0  0  0  0
  2 11  1  0  0  0  0
  3  4  2  0  0  0  0
  3  8  1  0  0  0  0
  4  5  1  0  0  0  0
  4 15  1  0  0  0  0
  5  6  2  0  0  0  0
  6  7  1  0  0  0  0
  6  9  1  0  0  0  0
  7  8  2  0  0  0  0
  9 11  2  0  0  0  0
  9 14  1  0  0  0  0
 10 12  2  0  0  0  0
 10 11  1  0  0  0  0
 12 13  1  0  0  0  0
 13 14  2  0  0  0  0
 15 16  1  0  0  0  0
 16 17  1  0  0  0  0
 17 18  1  0  0  0  0
 18 19  1  0  0  0  0
M  END
