11881
 OpenBabel03021519512D

 28 31  0  0  0  0  0  0  0  0999 V2000
    5.4707   10.0245    0.0000 C   0  0  0  0  0  0  0  0  0  0  0  0
    0.2745   10.0245    0.0000 C   0  0  0  0  0  0  0  0  0  0  0  0
    6.7697    9.2745    0.0000 C   0  0  0  0  0  0  0  0  0  0  0  0
    4.1716    9.2745    0.0000 C   0  0  0  0  0  0  0  0  0  0  0  0
    1.5736    9.2745    0.0000 C   0  0  0  0  0  0  0  0  0  0  0  0
   -1.0245    9.2745    0.0000 C   0  0  0  0  0  0  0  0  0  0  0  0
    6.7697    7.7745    0.0000 C   0  0  0  0  0  0  0  0  0  0  0  0
    4.1716    7.7745    0.0000 C   0  0  0  0  0  0  0  0  0  0  0  0
    1.5736    7.7745    0.0000 C   0  0  0  0  0  0  0  0  0  0  0  0
   -1.0245    7.7745    0.0000 C   0  0  0  0  0  0  0  0  0  0  0  0
    5.4707    7.0245    0.0000 C   0  0  0  0  0  0  0  0  0  0  0  0
    0.2745    7.0245    0.0000 C   0  0  0  0  0  0  0  0  0  0  0  0
   -2.3236    7.0245    0.0000 N   0  0  0  0  0  0  0  0  0  0  0  0
    2.8726    7.0245    0.0000 S   0  0  0  0  0  0  0  0  0  0  0  0
    1.5736   12.2745    0.0000 O   0  0  0  0  0  0  0  0  0  0  0  0
    2.8726   10.0245    0.0000 N   0  0  0  0  0  0  0  0  0  0  0  0
    2.8726   11.5245    0.0000 C   0  0  0  0  0  0  0  0  0  0  0  0
    8.0688    7.0245    0.0000 N   0  0  0  0  0  0  0  0  0  0  0  0
   -3.6226    7.7745    0.0000 C   0  0  0  0  0  0  0  0  0  0  0  0
   -2.3236    5.5245    0.0000 C   0  0  0  0  0  0  0  0  0  0  0  0
    4.1716   12.2745    0.0000 C   0  0  0  0  0  0  0  0  0  0  0  0
    4.1716   13.7745    0.0000 C   0  0  0  0  0  0  0  0  0  0  0  0
    5.4707   14.5245    0.0000 C   0  0  0  0  0  0  0  0  0  0  0  0
    6.7697   13.7745    0.0000 C   0  0  0  0  0  0  0  0  0  0  0  0
    6.7697   12.2745    0.0000 C   0  0  0  0  0  0  0  0  0  0  0  0
    5.4707   11.5245    0.0000 C   0  0  0  0  0  0  0  0  0  0  0  0
    8.0688    5.5245    0.0000 C   0  0  0  0  0  0  0  0  0  0  0  0
    9.3678    7.7745    0.0000 C   0  0  0  0  0  0  0  0  0  0  0  0
  1  4  2  0  0  0  0
  1  3  1  0  0  0  0
  2  5  2  0  0  0  0
  2  6  1  0  0  0  0
  3  7  2  0  0  0  0
  4 16  1  0  0  0  0
  4  8  1  0  0  0  0
  5 16  1  0  0  0  0
  5  9  1  0  0  0  0
  6 10  2  0  0  0  0
  7 18  1  0  0  0  0
  7 11  1  0  0  0  0
  8 11  2  0  0  0  0
  8 14  1  0  0  0  0
  9 12  2  0  0  0  0
  9 14  1  0  0  0  0
 10 12  1  0  0  0  0
 10 13  1  0  0  0  0
 13 19  1  0  0  0  0
 13 20  1  0  0  0  0
 15 17  2  0  0  0  0
 16 17  1  0  0  0  0
 17 21  1  0  0  0  0
 18 27  1  0  0  0  0
 18 28  1  0  0  0  0
 21 22  2  0  0  0  0
 21 26  1  0  0  0  0
 22 23  1  0  0  0  0
 23 24  2  0  0  0  0
 24 25  1  0  0  0  0
 25 26  2  0  0  0  0
M  END
