294161
 OpenBabel03021519512D

 19 21  0  0  0  0  0  0  0  0999 V2000
    2.8928   -1.5946    0.0000 N   0  0  0  0  0  0  0  0  0  0  0  0
    3.3109   -4.2347    0.0000 H   0  0  0  0  0  0  0  0  0  0  0  0
    3.7744   -0.3811    0.0000 C   0  0  0  0  0  0  0  0  0  0  0  0
    3.7744   -2.8081    0.0000 N   0  0  0  0  0  0  0  0  0  0  0  0
    5.2010   -0.8446    0.0000 C   0  0  0  0  0  0  0  0  0  0  0  0
    5.2010   -2.3446    0.0000 C   0  0  0  0  0  0  0  0  0  0  0  0
    6.5001   -0.0946    0.0000 C   0  0  0  0  0  0  0  0  0  0  0  0
    6.5001   -3.0946    0.0000 C   0  0  0  0  0  0  0  0  0  0  0  0
    7.7991   -0.8446    0.0000 N   0  0  0  0  0  0  0  0  0  0  0  0
    7.7991   -2.3446    0.0000 N   0  0  0  0  0  0  0  0  0  0  0  0
    3.3109    1.0455    0.0000 C   0  0  0  0  0  0  0  0  0  0  0  0
    6.5001   -4.5946    0.0000 C   0  0  0  0  0  0  0  0  0  0  0  0
    6.5001    1.4054    0.0000 C   0  0  0  0  0  0  0  0  0  0  0  0
    7.7991   -5.3446    0.0000 C   0  0  0  0  0  0  0  0  0  0  0  0
    9.0982   -4.5946    0.0000 C   0  0  0  0  0  0  0  0  0  0  0  0
   10.3972   -5.3446    0.0000 C   0  0  0  0  0  0  0  0  0  0  0  0
   10.3972   -6.8446    0.0000 C   0  0  0  0  0  0  0  0  0  0  0  0
    9.0982   -7.5946    0.0000 C   0  0  0  0  0  0  0  0  0  0  0  0
    7.7991   -6.8446    0.0000 C   0  0  0  0  0  0  0  0  0  0  0  0
  1  3  2  0  0  0  0
  1  4  1  0  0  0  0
  2  4  1  0  0  0  0
  3  5  1  0  0  0  0
  3 11  1  0  0  0  0
  4  6  1  0  0  0  0
  5  7  1  0  0  0  0
  5  6  2  0  0  0  0
  6  8  1  0  0  0  0
  7  9  2  0  0  0  0
  7 13  1  0  0  0  0
  8 10  2  0  0  0  0
  8 12  1  0  0  0  0
  9 10  1  0  0  0  0
 12 14  1  0  0  0  0
 14 15  2  0  0  0  0
 14 19  1  0  0  0  0
 15 16  1  0  0  0  0
 16 17  2  0  0  0  0
 17 18  1  0  0  0  0
 18 19  2  0  0  0  0
M  END
