515893
 OpenBabel03021519512D

 18 20  0  0  0  0  0  0  0  0999 V2000
   -2.1495    0.3750    0.0000 C   0  0  0  0  0  0  0  0  0  0  0  0
   -3.6495    0.3750    0.0000 C   0  0  0  0  0  0  0  0  0  0  0  0
   -6.5510    1.3177    0.0000 C   0  0  0  0  0  0  0  0  0  0  0  0
   -7.7645    2.1994    0.0000 C   0  0  0  0  0  0  0  0  0  0  0  0
   -1.3995   -0.9240    0.0000 C   0  0  0  0  0  0  0  0  0  0  0  0
   -4.3995   -0.9240    0.0000 C   0  0  0  0  0  0  0  0  0  0  0  0
   -6.7078   -0.1740    0.0000 C   0  0  0  0  0  0  0  0  0  0  0  0
   -9.1348    1.5893    0.0000 C   0  0  0  0  0  0  0  0  0  0  0  0
   -2.1495   -2.2231    0.0000 C   0  0  0  0  0  0  0  0  0  0  0  0
   -3.6495   -2.2231    0.0000 C   0  0  0  0  0  0  0  0  0  0  0  0
   -6.7078   -1.6740    0.0000 C   0  0  0  0  0  0  0  0  0  0  0  0
   -8.0781   -0.7842    0.0000 C   0  0  0  0  0  0  0  0  0  0  0  0
   -9.2916    0.0975    0.0000 C   0  0  0  0  0  0  0  0  0  0  0  0
   -7.9213   -2.5557    0.0000 S   0  0  0  0  0  0  0  0  0  0  0  0
   -5.2812    0.2895    0.0000 N   0  0  0  0  0  0  0  0  0  0  0  0
   -4.8177    1.7161    0.0000 H   0  0  0  0  0  0  0  0  0  0  0  0
   -5.2812   -2.1376    0.0000 N   0  0  0  0  0  0  0  0  0  0  0  0
   -4.8177   -3.5642    0.0000 H   0  0  0  0  0  0  0  0  0  0  0  0
  1  2  1  0  0  0  0
  1  5  1  0  0  0  0
  2  6  1  0  0  0  0
  3  4  1  0  0  0  0
  3  7  1  0  0  0  0
  4  8  1  0  0  0  0
  5  9  1  0  0  0  0
  6 15  1  0  0  0  0
  6 10  1  0  0  0  0
  6 17  1  0  0  0  0
  7 15  1  0  0  0  0
  7 12  1  0  0  0  0
  7 11  1  0  0  0  0
  8 13  1  0  0  0  0
  9 10  1  0  0  0  0
 11 17  1  0  0  0  0
 11 14  2  0  0  0  0
 12 13  1  0  0  0  0
 15 16  1  0  0  0  0
 17 18  1  0  0  0  0
M  END
