408734
 OpenBabel03021519512D

 20 21  0  0  0  0  0  0  0  0999 V2000
   -4.6006    4.6078    0.0000 N   0  0  0  0  0  0  0  0  0  0  0  0
   -2.5007    6.1375    0.0000 N   0  0  0  0  0  0  0  0  0  0  0  0
   -1.3427    2.3416    0.0000 N   0  0  0  0  0  0  0  0  0  0  0  0
    0.1489    2.5003    0.0000 N   0  0  0  0  0  0  0  0  0  0  0  0
   -3.7174    3.3954    0.0000 C   0  0  0  0  0  0  0  0  0  0  0  0
   -2.2259    3.5540    0.0000 C   0  0  0  0  0  0  0  0  0  0  0  0
   -1.6175    4.9251    0.0000 C   0  0  0  0  0  0  0  0  0  0  0  0
    0.8682    0.0037    0.0000 C   0  0  0  0  0  0  0  0  0  0  0  0
    1.9485   -1.0369    0.0000 C   0  0  0  0  0  0  0  0  0  0  0  0
    1.2292    1.4596    0.0000 C   0  0  0  0  0  0  0  0  0  0  0  0
    3.3899   -0.6216    0.0000 C   0  0  0  0  0  0  0  0  0  0  0  0
    2.6706    1.8749    0.0000 C   0  0  0  0  0  0  0  0  0  0  0  0
    3.7509    0.8343    0.0000 C   0  0  0  0  0  0  0  0  0  0  0  0
   -3.9922    5.9789    0.0000 C   0  0  0  0  0  0  0  0  0  0  0  0
   -4.8754    7.1913    0.0000 N   0  0  0  0  0  0  0  0  0  0  0  0
   -4.3258    2.0243    0.0000 N   0  0  0  0  0  0  0  0  0  0  0  0
   -0.1259    5.0838    0.0000 N   0  0  0  0  0  0  0  0  0  0  0  0
    4.4702   -1.6623    0.0000 C   0  0  0  0  0  0  0  0  0  0  0  0
    4.1091   -3.1182    0.0000 O   0  0  0  0  0  0  0  0  0  0  0  0
    5.9115   -1.2470    0.0000 O   0  0  0  0  0  0  0  0  0  0  0  0
  1  5  2  0  0  0  0
  1 14  1  0  0  0  0
  2 14  2  0  0  0  0
  2  7  1  0  0  0  0
  3  6  1  0  0  0  0
  3  4  2  0  0  0  0
  4 10  1  0  0  0  0
  5  6  1  0  0  0  0
  5 16  1  0  0  0  0
  6  7  2  0  0  0  0
  7 17  1  0  0  0  0
  8  9  2  0  0  0  0
  8 10  1  0  0  0  0
  9 11  1  0  0  0  0
 10 12  2  0  0  0  0
 11 13  2  0  0  0  0
 11 18  1  0  0  0  0
 12 13  1  0  0  0  0
 14 15  1  0  0  0  0
 18 19  2  0  0  0  0
 18 20  1  0  0  0  0
M  END
