146554
 OpenBabel03021519512D

 24 25  0  0  0  0  0  0  0  0999 V2000
   -0.9240    7.3995    0.0000 C   0  0  0  0  0  0  0  0  0  0  0  0
    0.3750    6.6495    0.0000 C   0  0  0  0  0  0  0  0  0  0  0  0
   -2.2231    6.6495    0.0000 C   0  0  0  0  0  0  0  0  0  0  0  0
    0.3750    5.1495    0.0000 C   0  0  0  0  0  0  0  0  0  0  0  0
   -2.2231    5.1495    0.0000 C   0  0  0  0  0  0  0  0  0  0  0  0
   -0.9240    4.3995    0.0000 C   0  0  0  0  0  0  0  0  0  0  0  0
    1.6740   11.8995    0.0000 C   0  0  0  0  0  0  0  0  0  0  0  0
    2.9731   11.1495    0.0000 C   0  0  0  0  0  0  0  0  0  0  0  0
    1.6740   13.3995    0.0000 C   0  0  0  0  0  0  0  0  0  0  0  0
    2.9731   14.1495    0.0000 C   0  0  0  0  0  0  0  0  0  0  0  0
    4.2721   11.8995    0.0000 C   0  0  0  0  0  0  0  0  0  0  0  0
    4.2721   13.3995    0.0000 C   0  0  0  0  0  0  0  0  0  0  0  0
   -0.9240    8.8995    0.0000 C   0  0  0  0  0  0  0  0  0  0  0  0
   -0.9240    2.8995    0.0000 N   0  3  0  0  0  0  0  0  0  0  0  0
   -2.2231    2.1495    0.0000 O   0  5  0  0  0  0  0  0  0  0  0  0
    0.3750    2.1495    0.0000 O   0  0  0  0  0  0  0  0  0  0  0  0
    1.6740    7.3995    0.0000 N   0  0  0  0  0  0  0  0  0  0  0  0
    1.6740    8.8995    0.0000 C   0  0  0  0  0  0  0  0  0  0  0  0
    0.3750    9.6495    0.0000 O   0  0  0  0  0  0  0  0  0  0  0  0
    2.9731    9.6495    0.0000 N   0  0  0  0  0  0  0  0  0  0  0  0
    2.9731   15.6495    0.0000 S   0  0  0  0  0  0  0  0  0  0  0  0
    4.4731   15.6495    0.0000 O   0  0  0  0  0  0  0  0  0  0  0  0
    1.4731   15.6495    0.0000 O   0  0  0  0  0  0  0  0  0  0  0  0
    2.9731   17.1495    0.0000 N   0  0  0  0  0  0  0  0  0  0  0  0
  1  2  2  0  0  0  0
  1  3  1  0  0  0  0
  1 13  1  0  0  0  0
  2  4  1  0  0  0  0
  2 17  1  0  0  0  0
  3  5  2  0  0  0  0
  4  6  2  0  0  0  0
  5  6  1  0  0  0  0
  6 14  1  0  0  0  0
  7  9  2  0  0  0  0
  7  8  1  0  0  0  0
  8 11  2  0  0  0  0
  8 20  1  0  0  0  0
  9 10  1  0  0  0  0
 10 12  2  0  0  0  0
 10 21  1  0  0  0  0
 11 12  1  0  0  0  0
 14 15  1  0  0  0  0
 14 16  2  0  0  0  0
 17 18  1  0  0  0  0
 18 19  2  0  0  0  0
 18 20  1  0  0  0  0
 21 22  2  0  0  0  0
 21 23  2  0  0  0  0
 21 24  1  0  0  0  0
M  CHG  2  14   1  15  -1
M  END
