87352
 OpenBabel03021519512D

 14 14  0  0  0  0  0  0  0  0999 V2000
   -2.1226   -3.8236    0.0000 O   0  0  0  0  0  0  0  0  0  0  0  0
   -4.7207   -3.8236    0.0000 C   0  0  0  0  0  0  0  0  0  0  0  0
   -6.0197   -4.5736    0.0000 C   0  0  0  0  0  0  0  0  0  0  0  0
   -3.4216   -4.5736    0.0000 C   0  0  0  0  0  0  0  0  0  0  0  0
   -3.4216   -6.0736    0.0000 C   0  0  0  0  0  0  0  0  0  0  0  0
   -6.0197   -6.0736    0.0000 C   0  0  0  0  0  0  0  0  0  0  0  0
   -4.7207   -6.8236    0.0000 C   0  0  0  0  0  0  0  0  0  0  0  0
   -8.6178   -7.5736    0.0000 C   0  0  0  0  0  0  0  0  0  0  0  0
   -7.3187   -6.8236    0.0000 S   0  0  0  0  0  0  0  0  0  0  0  0
   -8.0687   -5.5245    0.0000 O   0  0  0  0  0  0  0  0  0  0  0  0
   -6.5687   -8.1226    0.0000 O   0  0  0  0  0  0  0  0  0  0  0  0
   -0.8236   -4.5736    0.0000 C   0  0  0  0  0  0  0  0  0  0  0  0
    0.4755   -3.8236    0.0000 C   0  0  0  0  0  0  0  0  0  0  0  0
    0.4755   -2.3236    0.0000 C   0  0  0  0  0  0  0  0  0  0  0  0
  1  4  1  0  0  0  0
  1 12  1  0  0  0  0
  2  4  2  0  0  0  0
  2  3  1  0  0  0  0
  3  6  2  0  0  0  0
  4  5  1  0  0  0  0
  5  7  2  0  0  0  0
  6  7  1  0  0  0  0
  6  9  1  0  0  0  0
  8  9  1  0  0  0  0
  9 10  2  0  0  0  0
  9 11  2  0  0  0  0
 12 13  1  0  0  0  0
 13 14  2  0  0  0  0
M  END
