129260
 OpenBabel03021519512D

 16 17  0  0  0  0  0  0  0  0999 V2000
   -3.6069   -7.7474    0.0000 F   0  0  0  0  0  0  0  0  0  0  0  0
    2.8027   -5.3657    0.0000 N   0  0  0  0  0  0  0  0  0  0  0  0
    0.3757   -5.3657    0.0000 S   0  0  0  0  0  0  0  0  0  0  0  0
    2.3392   -3.9391    0.0000 N   0  0  0  0  0  0  0  0  0  0  0  0
    3.2209   -2.7256    0.0000 H   0  0  0  0  0  0  0  0  0  0  0  0
   -0.0425   -2.7256    0.0000 S   0  0  0  0  0  0  0  0  0  0  0  0
   -1.0089   -7.7474    0.0000 C   0  0  0  0  0  0  0  0  0  0  0  0
   -2.3079   -8.4974    0.0000 C   0  0  0  0  0  0  0  0  0  0  0  0
    0.2902   -8.4974    0.0000 C   0  0  0  0  0  0  0  0  0  0  0  0
    0.2902   -9.9974    0.0000 C   0  0  0  0  0  0  0  0  0  0  0  0
   -2.3079   -9.9974    0.0000 C   0  0  0  0  0  0  0  0  0  0  0  0
   -1.0088  -10.7474    0.0000 C   0  0  0  0  0  0  0  0  0  0  0  0
    1.5892   -6.2474    0.0000 C   0  0  0  0  0  0  0  0  0  0  0  0
    0.8392   -3.9391    0.0000 C   0  0  0  0  0  0  0  0  0  0  0  0
   -3.6069  -10.7474    0.0000 C   0  0  0  0  0  0  0  0  0  0  0  0
    1.5892   -7.7474    0.0000 N   0  0  0  0  0  0  0  0  0  0  0  0
  1  8  1  0  0  0  0
  2 13  2  0  0  0  0
  2  4  1  0  0  0  0
  3 13  1  0  0  0  0
  3 14  1  0  0  0  0
  4 14  1  0  0  0  0
  4  5  1  0  0  0  0
  6 14  2  0  0  0  0
  7  9  2  0  0  0  0
  7  8  1  0  0  0  0
  8 11  2  0  0  0  0
  9 10  1  0  0  0  0
  9 16  1  0  0  0  0
 10 12  2  0  0  0  0
 11 12  1  0  0  0  0
 11 15  1  0  0  0  0
 13 16  1  0  0  0  0
M  END
