375981
 OpenBabel03021519512D

 25 27  0  0  0  0  0  0  0  0999 V2000
    2.2500    3.3481    0.0000 C   0  0  0  0  0  0  0  0  0  0  0  0
    3.0000    4.6471    0.0000 C   0  0  0  0  0  0  0  0  0  0  0  0
    3.0000    2.0490    0.0000 C   0  0  0  0  0  0  0  0  0  0  0  0
    4.5000    4.6471    0.0000 C   0  0  0  0  0  0  0  0  0  0  0  0
    4.5000    2.0490    0.0000 C   0  0  0  0  0  0  0  0  0  0  0  0
    5.2500    3.3481    0.0000 C   0  0  0  0  0  0  0  0  0  0  0  0
    6.7500    3.3481    0.0000 C   0  0  0  0  0  0  0  0  0  0  0  0
    7.5000    4.6471    0.0000 O   0  0  0  0  0  0  0  0  0  0  0  0
    9.0000    2.0490    0.0000 C   0  0  0  0  0  0  0  0  0  0  0  0
    9.7500    3.3481    0.0000 C   0  0  0  0  0  0  0  0  0  0  0  0
    9.7500    0.7500    0.0000 C   0  0  0  0  0  0  0  0  0  0  0  0
   11.2500    0.7500    0.0000 C   0  0  0  0  0  0  0  0  0  0  0  0
   11.2500    3.3481    0.0000 C   0  0  0  0  0  0  0  0  0  0  0  0
   12.0000    2.0490    0.0000 C   0  0  0  0  0  0  0  0  0  0  0  0
   13.5000    4.6471    0.0000 O   0  0  0  0  0  0  0  0  0  0  0  0
   14.2500    3.3481    0.0000 C   0  0  0  0  0  0  0  0  0  0  0  0
   15.7500    3.3481    0.0000 C   0  0  0  0  0  0  0  0  0  0  0  0
   16.6317    2.1346    0.0000 O   0  0  0  0  0  0  0  0  0  0  0  0
   16.6317    4.5616    0.0000 C   0  0  0  0  0  0  0  0  0  0  0  0
   18.0583    2.5981    0.0000 C   0  0  0  0  0  0  0  0  0  0  0  0
   18.0583    4.0981    0.0000 C   0  0  0  0  0  0  0  0  0  0  0  0
    0.7500    3.3481    0.0000 N   0  0  0  0  0  0  0  0  0  0  0  0
    7.5000    2.0490    0.0000 N   0  0  0  0  0  0  0  0  0  0  0  0
   12.0000    4.6471    0.0000 O   0  0  0  0  0  0  0  0  0  0  0  0
   13.5000    2.0490    0.0000 N   0  0  0  0  0  0  0  0  0  0  0  0
  1  2  2  0  0  0  0
  1  3  1  0  0  0  0
  1 22  1  0  0  0  0
  2  4  1  0  0  0  0
  3  5  2  0  0  0  0
  4  6  2  0  0  0  0
  5  6  1  0  0  0  0
  6  7  1  0  0  0  0
  7  8  2  0  0  0  0
  7 23  1  0  0  0  0
  9 10  2  0  0  0  0
  9 11  1  0  0  0  0
  9 23  1  0  0  0  0
 10 13  1  0  0  0  0
 11 12  2  0  0  0  0
 12 14  1  0  0  0  0
 13 14  2  0  0  0  0
 13 24  1  0  0  0  0
 14 25  1  0  0  0  0
 15 16  2  0  0  0  0
 16 17  1  0  0  0  0
 16 25  1  0  0  0  0
 17 19  2  0  0  0  0
 17 18  1  0  0  0  0
 18 20  1  0  0  0  0
 19 21  1  0  0  0  0
 20 21  2  0  0  0  0
M  END
