623638
 OpenBabel03021519512D

 26 28  0  0  1  0  0  0  0  0999 V2000
   -1.9327   -1.3374    0.0000 C   0  0  0  0  0  0  0  0  0  0  0  0
   -1.4777    0.0920    0.0000 C   0  0  0  0  0  0  0  0  0  0  0  0
   -2.4880    1.2007    0.0000 C   0  0  0  0  0  0  0  0  0  0  0  0
   -3.9533    0.8801    0.0000 C   0  0  0  0  0  0  0  0  0  0  0  0
   -4.4083   -0.5492    0.0000 C   0  0  0  0  0  0  0  0  0  0  0  0
   -3.3980   -1.6580    0.0000 C   0  0  0  0  0  0  0  0  0  0  0  0
   -0.7139   -2.2118    0.0000 N   0  0  0  0  0  0  0  0  0  0  0  0
   -0.7050   -3.7118    0.0000 C   0  0  0  0  0  0  0  0  0  0  0  0
    0.4943   -1.3229    0.0000 C   0  0  0  0  0  0  0  0  0  0  0  0
    1.9237   -1.7779    0.0000 C   0  0  3  0  0  0  0  0  0  0  0  0
    0.0223    0.1009    0.0000 C   0  0  0  0  0  0  0  0  0  0  0  0
    0.2785    2.6863    0.0000 C   0  0  0  0  0  0  0  0  0  0  0  0
   -1.2142    2.8342    0.0000 C   0  0  0  0  0  0  0  0  0  0  0  0
   -1.8325    4.2009    0.0000 N   0  0  0  0  0  0  0  0  0  0  0  0
   -0.9580    5.4196    0.0000 C   0  0  0  0  0  0  0  0  0  0  0  0
    0.5347    5.2717    0.0000 C   0  0  0  0  0  0  0  0  0  0  0  0
    1.1529    3.9051    0.0000 C   0  0  0  0  0  0  0  0  0  0  0  0
   -1.5763    6.7863    0.0000 C   0  0  0  0  0  0  0  0  0  0  0  0
    3.0324   -0.7676    0.0000 C   0  0  0  0  0  0  0  0  0  0  0  0
    2.2443   -3.2433    0.0000 C   0  0  0  0  0  0  0  0  0  0  0  0
    3.6736   -3.6983    0.0000 O   0  0  0  0  0  0  0  0  0  0  0  0
    3.9942   -5.1636    0.0000 C   0  0  0  0  0  0  0  0  0  0  0  0
    2.8855   -6.1739    0.0000 C   0  0  0  0  0  0  0  0  0  0  0  0
    0.8967    1.3197    0.0000 C   0  0  0  0  0  0  0  0  0  0  0  0
    2.3894    1.1718    0.0000 O   0  0  0  0  0  0  0  0  0  0  0  0
    1.1355   -4.2536    0.0000 O   0  0  0  0  0  0  0  0  0  0  0  0
  1  2  2  0  0  0  0
  1  6  1  0  0  0  0
  1  7  1  0  0  0  0
  2  3  1  0  0  0  0
  2 11  1  0  0  0  0
  3  4  2  0  0  0  0
  4  5  1  0  0  0  0
  5  6  2  0  0  0  0
  7  8  1  0  0  0  0
  7  9  1  0  0  0  0
  9 10  1  0  0  0  0
  9 11  2  0  0  0  0
 10 19  1  0  0  0  0
 10 20  1  0  0  0  0
 11 24  1  0  0  0  0
 12 13  1  0  0  0  0
 12 17  2  0  0  0  0
 12 24  1  0  0  0  0
 13 14  2  0  0  0  0
 14 15  1  0  0  0  0
 15 16  2  0  0  0  0
 15 18  1  0  0  0  0
 16 17  1  0  0  0  0
 20 21  1  0  0  0  0
 20 26  2  0  0  0  0
 21 22  1  0  0  0  0
 22 23  1  0  0  0  0
 24 25  2  0  0  0  0
M  END
