186067
 OpenBabel03021519512D

 26 29  0  0  1  0  0  0  0  0999 V2000
    4.6471    2.2500    0.0000 N   0  0  0  0  0  0  0  0  0  0  0  0
   10.9039    4.1893    0.0000 N   0  0  0  0  0  0  0  0  0  0  0  0
   12.3911    4.3851    0.0000 H   0  0  0  0  0  0  0  0  0  0  0  0
    8.5442    7.5000    0.0000 C   0  0  0  0  0  0  0  0  0  0  0  0
    7.2452    6.7500    0.0000 C   0  0  0  0  0  0  0  0  0  0  0  0
    9.8433    6.7500    0.0000 C   0  0  0  0  0  0  0  0  0  0  0  0
    7.2452    5.2500    0.0000 C   0  0  0  0  0  0  0  0  0  0  0  0
    9.8433    5.2500    0.0000 C   0  0  0  0  0  0  0  0  0  0  0  0
    5.9462    4.5000    0.0000 C   0  0  0  0  0  0  0  0  0  0  0  0
    4.6471    5.2500    0.0000 C   0  0  0  0  0  0  0  0  0  0  0  0
    3.3481    4.5000    0.0000 C   0  0  3  0  0  0  0  0  0  0  0  0
    8.5442    4.5000    0.0000 C   0  0  0  0  0  0  0  0  0  0  0  0
    3.3481    3.0000    0.0000 C   0  0  0  0  0  0  0  0  0  0  0  0
    5.9462    3.0000    0.0000 C   0  0  3  0  0  0  0  0  0  0  0  0
    8.5442    3.0000    0.0000 C   0  0  0  0  0  0  0  0  0  0  0  0
    7.2452    2.2500    0.0000 C   0  0  0  0  0  0  0  0  0  0  0  0
   10.1539    2.8903    0.0000 C   0  0  0  0  0  0  0  0  0  0  0  0
    4.6471    9.7500    0.0000 O   0  0  0  0  0  0  0  0  0  0  0  0
    3.3481    9.0000    0.0000 C   0  0  0  0  0  0  0  0  0  0  0  0
    3.3481    7.5000    0.0000 C   0  0  3  0  0  0  0  0  0  0  0  0
    4.6471    6.7500    0.0000 C   0  0  0  0  0  0  0  0  0  0  0  0
    5.9461    7.5000    0.0000 C   0  0  0  0  0  0  0  0  0  0  0  0
    2.0490    6.7500    0.0000 N   0  0  0  0  0  0  0  0  0  0  0  0
    2.0490    5.2500    0.0000 C   0  0  0  0  0  0  0  0  0  0  0  0
    0.7500    4.5000    0.0000 O   0  0  0  0  0  0  0  0  0  0  0  0
    4.6471    0.7500    0.0000 C   0  0  0  0  0  0  0  0  0  0  0  0
  1 13  1  0  0  0  0
  1 14  1  0  0  0  0
  1 26  1  0  0  0  0
  2  8  1  0  0  0  0
  2 17  1  0  0  0  0
  2  3  1  0  0  0  0
  4  5  2  0  0  0  0
  4  6  1  0  0  0  0
  5  7  1  0  0  0  0
  6  8  2  0  0  0  0
  7 12  2  0  0  0  0
  7  9  1  0  0  0  0
  8 12  1  0  0  0  0
  9 10  2  0  0  0  0
  9 14  1  0  0  0  0
 10 11  1  0  0  0  0
 11 13  1  0  0  0  0
 11 24  1  0  0  0  0
 12 15  1  0  0  0  0
 14 16  1  0  0  0  0
 15 17  2  0  0  0  0
 15 16  1  0  0  0  0
 18 19  1  0  0  0  0
 19 20  1  0  0  0  0
 20 21  1  0  0  0  0
 20 23  1  0  0  0  0
 21 22  1  0  0  0  0
 23 24  1  0  0  0  0
 24 25  2  0  0  0  0
M  END
