679525
 OpenBabel03021519512D

 38 42  0  0  0  0  0  0  0  0999 V2000
   -7.8101   -7.5100    0.0000 C   0  0  0  0  0  0  0  0  0  0  0  0
   -7.4982   -8.9772    0.0000 C   0  0  0  0  0  0  0  0  0  0  0  0
   -8.6129   -9.9809    0.0000 C   0  0  0  0  0  0  0  0  0  0  0  0
  -10.0395   -9.5174    0.0000 C   0  0  0  0  0  0  0  0  0  0  0  0
  -10.3514   -8.0502    0.0000 C   0  0  0  0  0  0  0  0  0  0  0  0
   -9.2367   -7.0465    0.0000 C   0  0  0  0  0  0  0  0  0  0  0  0
  -11.3386  -10.2674    0.0000 N   0  0  0  0  0  0  0  0  0  0  0  0
  -12.4533   -9.2637    0.0000 C   0  0  0  0  0  0  0  0  0  0  0  0
  -11.8432   -7.8934    0.0000 C   0  0  0  0  0  0  0  0  0  0  0  0
   -6.0716   -9.4407    0.0000 O   0  0  0  0  0  0  0  0  0  0  0  0
   -8.3011  -11.4481    0.0000 O   0  0  0  0  0  0  0  0  0  0  0  0
   -6.9284   -6.2965    0.0000 N   0  0  0  0  0  0  0  0  0  0  0  0
   -7.8101   -5.0829    0.0000 C   0  0  0  0  0  0  0  0  0  0  0  0
   -9.2367   -5.5465    0.0000 C   0  0  0  0  0  0  0  0  0  0  0  0
  -12.5932   -6.5943    0.0000 C   0  0  0  0  0  0  0  0  0  0  0  0
  -11.8432   -5.2953    0.0000 O   0  0  0  0  0  0  0  0  0  0  0  0
  -14.0932   -6.5943    0.0000 O   0  0  0  0  0  0  0  0  0  0  0  0
  -14.8432   -7.8934    0.0000 C   0  0  0  0  0  0  0  0  0  0  0  0
   -5.4284   -6.2965    0.0000 S   0  0  0  0  0  0  0  0  0  0  0  0
   -5.4284   -7.7965    0.0000 O   0  0  0  0  0  0  0  0  0  0  0  0
   -5.4284   -4.7965    0.0000 O   0  0  0  0  0  0  0  0  0  0  0  0
   -3.9284   -6.2965    0.0000 C   0  0  0  0  0  0  0  0  0  0  0  0
   -3.1784   -7.5955    0.0000 C   0  0  0  0  0  0  0  0  0  0  0  0
   -1.6784   -7.5955    0.0000 C   0  0  0  0  0  0  0  0  0  0  0  0
   -0.9284   -6.2965    0.0000 C   0  0  0  0  0  0  0  0  0  0  0  0
   -1.6784   -4.9974    0.0000 C   0  0  0  0  0  0  0  0  0  0  0  0
   -3.1784   -4.9974    0.0000 C   0  0  0  0  0  0  0  0  0  0  0  0
    0.5716   -6.2965    0.0000 C   0  0  0  0  0  0  0  0  0  0  0  0
   -7.3466   -3.6564    0.0000 C   0  0  0  0  0  0  0  0  0  0  0  0
   -5.8793   -3.3445    0.0000 O   0  0  0  0  0  0  0  0  0  0  0  0
   -8.3503   -2.5416    0.0000 O   0  0  0  0  0  0  0  0  0  0  0  0
   -9.8175   -2.8535    0.0000 C   0  0  0  0  0  0  0  0  0  0  0  0
  -16.3432   -7.8934    0.0000 C   0  0  0  0  0  0  0  0  0  0  0  0
  -17.0932   -9.1924    0.0000 C   0  0  0  0  0  0  0  0  0  0  0  0
  -18.5932   -9.1924    0.0000 C   0  0  0  0  0  0  0  0  0  0  0  0
  -19.3432   -7.8934    0.0000 C   0  0  0  0  0  0  0  0  0  0  0  0
  -18.5932   -6.5943    0.0000 C   0  0  0  0  0  0  0  0  0  0  0  0
  -17.0932   -6.5943    0.0000 C   0  0  0  0  0  0  0  0  0  0  0  0
  1  2  1  0  0  0  0
  1  6  2  0  0  0  0
  1 12  1  0  0  0  0
  2  3  1  0  0  0  0
  2 10  2  0  0  0  0
  3  4  1  0  0  0  0
  3 11  2  0  0  0  0
  4  5  2  0  0  0  0
  4  7  1  0  0  0  0
  5  6  1  0  0  0  0
  5  9  1  0  0  0  0
  6 14  1  0  0  0  0
  7  8  1  0  0  0  0
  8  9  2  0  0  0  0
  9 15  1  0  0  0  0
 12 13  1  0  0  0  0
 12 19  1  0  0  0  0
 13 14  2  0  0  0  0
 13 29  1  0  0  0  0
 15 16  2  0  0  0  0
 15 17  1  0  0  0  0
 17 18  1  0  0  0  0
 18 33  1  0  0  0  0
 19 20  2  0  0  0  0
 19 21  2  0  0  0  0
 19 22  1  0  0  0  0
 22 23  2  0  0  0  0
 22 27  1  0  0  0  0
 23 24  1  0  0  0  0
 24 25  2  0  0  0  0
 25 26  1  0  0  0  0
 25 28  1  0  0  0  0
 26 27  2  0  0  0  0
 29 30  2  0  0  0  0
 29 31  1  0  0  0  0
 31 32  1  0  0  0  0
 33 34  2  0  0  0  0
 33 38  1  0  0  0  0
 34 35  1  0  0  0  0
 35 36  2  0  0  0  0
 36 37  1  0  0  0  0
 37 38  2  0  0  0  0
M  END
