84100
 OpenBabel03021519512D

 32 37  0  0  1  0  0  0  0  0999 V2000
  -11.9351   -1.0365    0.0000 O   0  0  0  0  0  0  0  0  0  0  0  0
  -11.9351   -3.4636    0.0000 N   0  0  0  0  0  0  0  0  0  0  0  0
  -11.4716   -4.8901    0.0000 H   0  0  0  0  0  0  0  0  0  0  0  0
   -9.1353   -4.8901    0.0000 H   0  0  0  0  0  0  0  0  0  0  0  0
   -8.6718   -3.4635    0.0000 N   0  0  0  0  0  0  0  0  0  0  0  0
   -8.6718   -1.0365    0.0000 O   0  0  0  0  0  0  0  0  0  0  0  0
   -5.9462   -0.7500    0.0000 C   0  0  0  0  0  0  0  0  0  0  0  0
   -4.6471   -1.5000    0.0000 C   0  0  0  0  0  0  0  0  0  0  0  0
   -7.2452   -1.5000    0.0000 C   0  0  0  0  0  0  0  0  0  0  0  0
   -4.6471   -3.0000    0.0000 C   0  0  0  0  0  0  0  0  0  0  0  0
   -7.2452   -3.0000    0.0000 C   0  0  0  0  0  0  0  0  0  0  0  0
   -3.3481   -3.7500    0.0000 C   0  0  0  0  0  0  0  0  0  0  0  0
   -2.0490   -3.0000    0.0000 C   0  0  0  0  0  0  0  0  0  0  0  0
   -0.7500   -3.7500    0.0000 C   0  0  0  0  0  0  0  0  0  0  0  0
   -0.7500   -5.2500    0.0000 C   0  0  0  0  0  0  0  0  0  0  0  0
   -3.3481   -5.2500    0.0000 C   0  0  0  0  0  0  0  0  0  0  0  0
   -5.9462   -3.7500    0.0000 C   0  0  0  0  0  0  0  0  0  0  0  0
   -2.0490   -6.0000    0.0000 C   0  0  0  0  0  0  0  0  0  0  0  0
  -14.6608   -0.7500    0.0000 C   0  0  0  0  0  0  0  0  0  0  0  0
  -13.3617   -1.5000    0.0000 C   0  0  0  0  0  0  0  0  0  0  0  0
  -15.9598   -1.5000    0.0000 C   0  0  0  0  0  0  0  0  0  0  0  0
  -13.3617   -3.0000    0.0000 C   0  0  0  0  0  0  0  0  0  0  0  0
  -15.9598   -3.0000    0.0000 C   0  0  0  0  0  0  0  0  0  0  0  0
  -14.6608   -3.7500    0.0000 C   0  0  0  0  0  0  0  0  0  0  0  0
  -17.2588   -3.7500    0.0000 C   0  0  0  0  0  0  0  0  0  0  0  0
  -18.5579   -3.0000    0.0000 C   0  0  0  0  0  0  0  0  0  0  0  0
  -19.8569   -3.7500    0.0000 C   0  0  0  0  0  0  0  0  0  0  0  0
  -17.2588   -5.2500    0.0000 C   0  0  0  0  0  0  0  0  0  0  0  0
  -19.8569   -5.2500    0.0000 C   0  0  0  0  0  0  0  0  0  0  0  0
  -18.5579   -6.0000    0.0000 C   0  0  0  0  0  0  0  0  0  0  0  0
   -9.5535   -2.2500    0.0000 C   0  0  3  0  0  0  0  0  0  0  0  0
  -11.0535   -2.2500    0.0000 C   0  0  3  0  0  0  0  0  0  0  0  0
  1 20  1  0  0  0  0
  1 32  1  0  0  0  0
  2 22  1  0  0  0  0
  2 32  1  0  0  0  0
  2  3  1  0  0  0  0
  4  5  1  0  0  0  0
  5 11  1  0  0  0  0
  5 31  1  0  0  0  0
  6  9  1  0  0  0  0
  6 31  1  0  0  0  0
  7  8  2  0  0  0  0
  7  9  1  0  0  0  0
  8 10  1  0  0  0  0
  9 11  2  0  0  0  0
 10 17  2  0  0  0  0
 10 12  1  0  0  0  0
 11 17  1  0  0  0  0
 12 16  2  0  0  0  0
 12 13  1  0  0  0  0
 13 14  2  0  0  0  0
 14 15  1  0  0  0  0
 15 18  2  0  0  0  0
 16 18  1  0  0  0  0
 19 21  2  0  0  0  0
 19 20  1  0  0  0  0
 20 22  2  0  0  0  0
 21 23  1  0  0  0  0
 22 24  1  0  0  0  0
 23 24  2  0  0  0  0
 23 25  1  0  0  0  0
 25 28  2  0  0  0  0
 25 26  1  0  0  0  0
 26 27  2  0  0  0  0
 27 29  1  0  0  0  0
 28 30  1  0  0  0  0
 29 30  2  0  0  0  0
 31 32  1  0  0  0  0
M  END
