75786
 OpenBabel03021519512D

 12 13  0  0  0  0  0  0  0  0999 V2000
   -3.2626    2.1766    0.0000 C   0  0  0  0  0  0  0  0  0  0  0  0
   -1.2990    0.7500    0.0000 C   0  0  0  0  0  0  0  0  0  0  0  0
   -2.7990    0.7500    0.0000 C   0  0  0  0  0  0  0  0  0  0  0  0
   -2.0490    3.0583    0.0000 N   0  0  0  0  0  0  0  0  0  0  0  0
   -0.8355    2.1766    0.0000 N   0  0  0  0  0  0  0  0  0  0  0  0
   -4.6891    2.6401    0.0000 N   0  0  0  0  0  0  0  0  0  0  0  0
   -2.0490    4.5583    0.0000 C   0  0  0  0  0  0  0  0  0  0  0  0
   -3.3481    5.3083    0.0000 C   0  0  0  0  0  0  0  0  0  0  0  0
   -3.3481    6.8083    0.0000 C   0  0  0  0  0  0  0  0  0  0  0  0
   -2.0490    7.5583    0.0000 C   0  0  0  0  0  0  0  0  0  0  0  0
   -0.7500    6.8083    0.0000 C   0  0  0  0  0  0  0  0  0  0  0  0
   -0.7500    5.3083    0.0000 C   0  0  0  0  0  0  0  0  0  0  0  0
  1  4  1  0  0  0  0
  1  3  2  0  0  0  0
  1  6  1  0  0  0  0
  2  5  2  0  0  0  0
  2  3  1  0  0  0  0
  4  5  1  0  0  0  0
  4  7  1  0  0  0  0
  7  8  2  0  0  0  0
  7 12  1  0  0  0  0
  8  9  1  0  0  0  0
  9 10  2  0  0  0  0
 10 11  1  0  0  0  0
 11 12  2  0  0  0  0
M  END
