45384
 OpenBabel03021519512D

 38 41  0  0  0  0  0  0  0  0999 V2000
    4.8211    6.6495    0.0000 N   0  0  0  0  0  0  0  0  0  0  0  0
    6.1202   10.3995    0.0000 N   0  0  0  0  0  0  0  0  0  0  0  0
    6.1202   13.3995    0.0000 O   0  0  0  0  0  0  0  0  0  0  0  0
   11.3163   10.3995    0.0000 O   0  0  0  0  0  0  0  0  0  0  0  0
    7.4192   12.6495    0.0000 C   0  0  0  0  0  0  0  0  0  0  0  0
    8.7183   13.3995    0.0000 C   0  0  0  0  0  0  0  0  0  0  0  0
    7.4192   11.1495    0.0000 C   0  0  0  0  0  0  0  0  0  0  0  0
   10.0173   12.6495    0.0000 C   0  0  0  0  0  0  0  0  0  0  0  0
    8.7183   10.3995    0.0000 C   0  0  0  0  0  0  0  0  0  0  0  0
   10.0173   11.1495    0.0000 C   0  0  0  0  0  0  0  0  0  0  0  0
    8.7183    8.8995    0.0000 C   0  0  0  0  0  0  0  0  0  0  0  0
    7.4192    8.1495    0.0000 C   0  0  0  0  0  0  0  0  0  0  0  0
    3.5221    8.8995    0.0000 C   0  0  0  0  0  0  0  0  0  0  0  0
    2.2231    8.1495    0.0000 C   0  0  0  0  0  0  0  0  0  0  0  0
    4.8211    8.1495    0.0000 C   0  0  0  0  0  0  0  0  0  0  0  0
    6.1202    8.8995    0.0000 C   0  0  0  0  0  0  0  0  0  0  0  0
    2.2231    6.6495    0.0000 C   0  0  0  0  0  0  0  0  0  0  0  0
    0.9240    8.8995    0.0000 C   0  0  0  0  0  0  0  0  0  0  0  0
    0.9240   10.3995    0.0000 C   0  0  0  0  0  0  0  0  0  0  0  0
   -0.3750   11.1495    0.0000 C   0  0  0  0  0  0  0  0  0  0  0  0
   -0.3750    8.1495    0.0000 C   0  0  0  0  0  0  0  0  0  0  0  0
   -1.6740   10.3995    0.0000 C   0  0  0  0  0  0  0  0  0  0  0  0
    3.5221    5.8995    0.0000 C   0  0  0  0  0  0  0  0  0  0  0  0
   -1.6740    8.8995    0.0000 C   0  0  0  0  0  0  0  0  0  0  0  0
   -2.9731   11.1495    0.0000 O   0  0  0  0  0  0  0  0  0  0  0  0
   -2.9731   12.6495    0.0000 C   0  0  0  0  0  0  0  0  0  0  0  0
   -2.9731    8.1495    0.0000 O   0  0  0  0  0  0  0  0  0  0  0  0
   -4.2721    8.8995    0.0000 C   0  0  0  0  0  0  0  0  0  0  0  0
   -0.3750    6.6495    0.0000 O   0  0  0  0  0  0  0  0  0  0  0  0
    0.9240    5.8995    0.0000 C   0  0  0  0  0  0  0  0  0  0  0  0
    3.5221    4.3995    0.0000 C   0  0  0  0  0  0  0  0  0  0  0  0
    2.2231    3.6495    0.0000 O   0  0  0  0  0  0  0  0  0  0  0  0
    4.8211    3.6495    0.0000 O   0  0  0  0  0  0  0  0  0  0  0  0
    6.1202    4.3995    0.0000 C   0  0  0  0  0  0  0  0  0  0  0  0
    3.5221   10.3995    0.0000 N   0  0  0  0  0  0  0  0  0  0  0  0
    8.7183   14.8995    0.0000 N   0  0  0  0  0  0  0  0  0  0  0  0
   11.3163   13.3995    0.0000 O   0  0  0  0  0  0  0  0  0  0  0  0
   11.3163   14.8995    0.0000 C   0  0  0  0  0  0  0  0  0  0  0  0
  1 23  2  0  0  0  0
  1 15  1  0  0  0  0
  2 16  2  0  0  0  0
  2  7  1  0  0  0  0
  3  5  2  0  0  0  0
  4 10  2  0  0  0  0
  5  6  1  0  0  0  0
  5  7  1  0  0  0  0
  6  8  2  0  0  0  0
  6 36  1  0  0  0  0
  7  9  2  0  0  0  0
  8 10  1  0  0  0  0
  8 37  1  0  0  0  0
  9 10  1  0  0  0  0
  9 11  1  0  0  0  0
 11 12  2  0  0  0  0
 12 16  1  0  0  0  0
 13 15  2  0  0  0  0
 13 14  1  0  0  0  0
 13 35  1  0  0  0  0
 14 17  2  0  0  0  0
 14 18  1  0  0  0  0
 15 16  1  0  0  0  0
 17 23  1  0  0  0  0
 17 30  1  0  0  0  0
 18 21  2  0  0  0  0
 18 19  1  0  0  0  0
 19 20  2  0  0  0  0
 20 22  1  0  0  0  0
 21 24  1  0  0  0  0
 21 29  1  0  0  0  0
 22 24  2  0  0  0  0
 22 25  1  0  0  0  0
 23 31  1  0  0  0  0
 24 27  1  0  0  0  0
 25 26  1  0  0  0  0
 27 28  1  0  0  0  0
 31 32  2  0  0  0  0
 31 33  1  0  0  0  0
 33 34  1  0  0  0  0
 37 38  1  0  0  0  0
M  END
