170001
 OpenBabel03021519512D

 15 16  0  0  0  0  0  0  0  0999 V2000
    4.6795    4.3946    0.0000 O   0  0  0  0  0  0  0  0  0  0  0  0
    6.8175    4.2470    0.0000 O   0  0  0  0  0  0  0  0  0  0  0  0
    8.1165    1.9970    0.0000 O   0  0  0  0  0  0  0  0  0  0  0  0
    9.4156   -0.2530    0.0000 O   0  0  0  0  0  0  0  0  0  0  0  0
    6.8175    2.7470    0.0000 C   0  0  0  0  0  0  0  0  0  0  0  0
    5.5185    1.9970    0.0000 C   0  0  0  0  0  0  0  0  0  0  0  0
    4.3457    2.9322    0.0000 C   0  0  0  0  0  0  0  0  0  0  0  0
    2.8833    2.5984    0.0000 C   0  0  0  0  0  0  0  0  0  0  0  0
    5.5185    0.4970    0.0000 C   0  0  0  0  0  0  0  0  0  0  0  0
    2.2325    1.2469    0.0000 C   0  0  0  0  0  0  0  0  0  0  0  0
    4.3457   -0.4383    0.0000 C   0  0  0  0  0  0  0  0  0  0  0  0
    6.8175   -0.2530    0.0000 C   0  0  0  0  0  0  0  0  0  0  0  0
    8.1166    0.4970    0.0000 C   0  0  0  0  0  0  0  0  0  0  0  0
    2.8833   -0.1045    0.0000 C   0  0  0  0  0  0  0  0  0  0  0  0
    1.9481    3.7711    0.0000 O   0  0  0  0  0  0  0  0  0  0  0  0
  1  7  2  0  0  0  0
  2  5  2  0  0  0  0
  3  5  1  0  0  0  0
  3 13  1  0  0  0  0
  4 13  2  0  0  0  0
  5  6  1  0  0  0  0
  6  9  2  0  0  0  0
  6  7  1  0  0  0  0
  7  8  1  0  0  0  0
  8 10  2  0  0  0  0
  8 15  1  0  0  0  0
  9 11  1  0  0  0  0
  9 12  1  0  0  0  0
 10 14  1  0  0  0  0
 11 14  2  0  0  0  0
 12 13  1  0  0  0  0
M  END
