159031
 OpenBabel03021519512D

 18 20  0  0  0  0  0  0  0  0999 V2000
    8.1168   -0.6868    0.0000 N   0  0  0  0  0  0  0  0  0  0  0  0
    9.2315    0.3169    0.0000 H   0  0  0  0  0  0  0  0  0  0  0  0
   10.8716   -2.1786    0.0000 C   0  0  0  0  0  0  0  0  0  0  0  0
    9.5726   -2.9286    0.0000 C   0  0  0  0  0  0  0  0  0  0  0  0
   12.1707   -2.9286    0.0000 C   0  0  0  0  0  0  0  0  0  0  0  0
   12.1707   -4.4286    0.0000 C   0  0  0  0  0  0  0  0  0  0  0  0
    9.5726   -4.4286    0.0000 C   0  0  0  0  0  0  0  0  0  0  0  0
    8.2735   -2.1786    0.0000 C   0  0  0  0  0  0  0  0  0  0  0  0
    6.9032   -2.7887    0.0000 C   0  0  0  0  0  0  0  0  0  0  0  0
   10.8716   -5.1786    0.0000 C   0  0  0  0  0  0  0  0  0  0  0  0
    5.8995   -1.6740    0.0000 C   0  0  0  0  0  0  0  0  0  0  0  0
    5.8995    0.9241    0.0000 C   0  0  0  0  0  0  0  0  0  0  0  0
    4.3995    0.9241    0.0000 C   0  0  0  0  0  0  0  0  0  0  0  0
    6.6495   -0.3750    0.0000 C   0  0  0  0  0  0  0  0  0  0  0  0
    3.6495   -0.3750    0.0000 C   0  0  0  0  0  0  0  0  0  0  0  0
    4.3995   -1.6740    0.0000 C   0  0  0  0  0  0  0  0  0  0  0  0
    2.1495   -0.3750    0.0000 O   0  0  0  0  0  0  0  0  0  0  0  0
    1.3995    0.9240    0.0000 C   0  0  0  0  0  0  0  0  0  0  0  0
  1  8  1  0  0  0  0
  1 14  1  0  0  0  0
  1  2  1  0  0  0  0
  3  5  2  0  0  0  0
  3  4  1  0  0  0  0
  4  7  2  0  0  0  0
  4  8  1  0  0  0  0
  5  6  1  0  0  0  0
  6 10  2  0  0  0  0
  7 10  1  0  0  0  0
  8  9  2  0  0  0  0
  9 11  1  0  0  0  0
 11 14  2  0  0  0  0
 11 16  1  0  0  0  0
 12 13  2  0  0  0  0
 12 14  1  0  0  0  0
 13 15  1  0  0  0  0
 15 16  2  0  0  0  0
 15 17  1  0  0  0  0
 17 18  1  0  0  0  0
M  END
