13176
 OpenBabel03021519512D

 24 26  0  0  1  0  0  0  0  0999 V2000
    8.8416    3.9119    0.0000 N   0  0  0  0  0  0  0  0  0  0  0  0
    9.3626    6.8663    0.0000 C   0  0  0  0  0  0  0  0  0  0  0  0
   10.5116    5.9021    0.0000 C   0  0  0  0  0  0  0  0  0  0  0  0
    7.9530    6.3533    0.0000 C   0  0  0  0  0  0  0  0  0  0  0  0
    7.6926    4.8761    0.0000 C   0  0  0  0  0  0  0  0  0  0  0  0
   10.2512    4.4249    0.0000 C   0  0  0  0  0  0  0  0  0  0  0  0
    9.0197    0.6226    0.0000 C   0  0  0  0  0  0  0  0  0  0  0  0
   10.3187   -0.1274    0.0000 C   0  0  0  0  0  0  0  0  0  0  0  0
    7.7207   -0.1274    0.0000 C   0  0  0  0  0  0  0  0  0  0  0  0
   10.3188   -1.6274    0.0000 C   0  0  0  0  0  0  0  0  0  0  0  0
    7.7207   -1.6274    0.0000 C   0  0  0  0  0  0  0  0  0  0  0  0
    9.0197   -2.3774    0.0000 C   0  0  0  0  0  0  0  0  0  0  0  0
    5.1226    2.8726    0.0000 C   0  0  0  0  0  0  0  0  0  0  0  0
    3.8236    3.6226    0.0000 C   0  0  0  0  0  0  0  0  0  0  0  0
    5.1226    1.3726    0.0000 C   0  0  0  0  0  0  0  0  0  0  0  0
    3.8236    0.6226    0.0000 C   0  0  0  0  0  0  0  0  0  0  0  0
    2.5245    2.8726    0.0000 C   0  0  0  0  0  0  0  0  0  0  0  0
    2.5245    1.3726    0.0000 C   0  0  0  0  0  0  0  0  0  0  0  0
    8.5812    2.4347    0.0000 C   0  0  3  0  0  0  0  0  0  0  0  0
    9.7302    1.4705    0.0000 C   0  0  0  0  0  0  0  0  0  0  0  0
    7.1716    1.9216    0.0000 C   0  0  0  0  0  0  0  0  0  0  0  0
    6.4216    0.6226    0.0000 C   0  0  3  0  0  0  0  0  0  0  0  0
    5.6716   -0.6764    0.0000 C   0  0  0  0  0  0  0  0  0  0  0  0
    4.9216   -1.9755    0.0000 N   0  0  0  0  0  0  0  0  0  0  0  0
  1  5  1  0  0  0  0
  1  6  1  0  0  0  0
  1 19  1  0  0  0  0
  2  3  1  0  0  0  0
  2  4  1  0  0  0  0
  3  6  1  0  0  0  0
  4  5  1  0  0  0  0
  7  8  2  0  0  0  0
  7  9  1  0  0  0  0
  8 10  1  0  0  0  0
  9 11  2  0  0  0  0
  9 22  1  0  0  0  0
 10 12  2  0  0  0  0
 11 12  1  0  0  0  0
 13 14  2  0  0  0  0
 13 15  1  0  0  0  0
 14 17  1  0  0  0  0
 15 16  2  0  0  0  0
 15 22  1  0  0  0  0
 16 18  1  0  0  0  0
 17 18  2  0  0  0  0
 19 20  1  0  0  0  0
 19 21  1  0  0  0  0
 21 22  1  0  0  0  0
 22 23  1  0  0  0  0
 23 24  3  0  0  0  0
M  END
