70799
 OpenBabel03021519512D

 31 34  0  0  1  0  0  0  0  0999 V2000
   -7.2204  -11.2405    0.0000 H   0  0  0  0  0  0  0  0  0  0  0  0
   -5.9213   -8.9904    0.0000 H   0  0  0  0  0  0  0  0  0  0  0  0
   -4.6223   -6.7404    0.0000 H   0  0  0  0  0  0  0  0  0  0  0  0
   -3.1664   -8.9822    0.0000 H   0  0  0  0  0  0  0  0  0  0  0  0
   -1.8967   -5.5269    0.0000 C   0  0  1  0  0  0  0  0  0  0  0  0
   -1.0150   -6.7404    0.0000 C   0  0  0  0  0  0  0  0  0  0  0  0
   -3.3232   -5.9904    0.0000 C   0  0  1  0  0  0  0  0  0  0  0  0
   -4.6223   -5.2404    0.0000 C   0  0  0  0  0  0  0  0  0  0  0  0
   -5.9213   -5.9904    0.0000 C   0  0  2  0  0  0  0  0  0  0  0  0
   -1.8967   -7.9540    0.0000 C   0  0  0  0  0  0  0  0  0  0  0  0
   -3.3232   -7.4904    0.0000 C   0  0  1  0  0  0  0  0  0  0  0  0
   -5.9213   -7.4904    0.0000 C   0  0  1  0  0  0  0  0  0  0  0  0
   -4.6223   -8.2404    0.0000 C   0  0  1  0  0  0  0  0  0  0  0  0
   -7.2204   -8.2405    0.0000 C   0  0  1  0  0  0  0  0  0  0  0  0
   -8.5194   -7.4905    0.0000 C   0  0  0  0  0  0  0  0  0  0  0  0
   -9.8184   -8.2405    0.0000 C   0  0  0  0  0  0  0  0  0  0  0  0
   -4.6223   -9.7404    0.0000 C   0  0  0  0  0  0  0  0  0  0  0  0
   -7.2204   -9.7405    0.0000 C   0  0  2  0  0  0  0  0  0  0  0  0
   -9.8184   -9.7405    0.0000 C   0  0  0  0  0  0  0  0  0  0  0  0
   -5.9213  -10.4904    0.0000 C   0  0  0  0  0  0  0  0  0  0  0  0
   -8.5194  -10.4905    0.0000 C   0  0  0  0  0  0  0  0  0  0  0  0
  -11.1175  -10.4905    0.0000 N   0  0  0  0  0  0  0  0  0  0  0  0
  -12.4165   -9.7404    0.0000 O   0  0  0  0  0  0  0  0  0  0  0  0
   -7.4213   -5.9904    0.0000 C   0  0  0  0  0  0  0  0  0  0  0  0
   -7.2204   -6.7405    0.0000 C   0  0  0  0  0  0  0  0  0  0  0  0
   -6.4344   -4.5809    0.0000 O   0  0  0  0  0  0  0  0  0  0  0  0
   -3.1665   -4.4987    0.0000 C   0  0  0  0  0  0  0  0  0  0  0  0
   -1.4331   -4.1003    0.0000 C   0  0  0  0  0  0  0  0  0  0  0  0
   -2.4368   -2.9856    0.0000 C   0  0  0  0  0  0  0  0  0  0  0  0
    0.0341   -3.7885    0.0000 N   0  0  0  0  0  0  0  0  0  0  0  0
    0.4976   -2.3619    0.0000 O   0  0  0  0  0  0  0  0  0  0  0  0
  5  6  1  0  0  0  0
  5  7  1  0  0  0  0
  5 28  1  1  0  0  0
  6 10  1  0  0  0  0
  7  8  1  0  0  0  0
  7 11  1  0  0  0  0
  7 27  1  1  0  0  0
  8  9  1  0  0  0  0
  9 12  1  0  0  0  0
  9 24  1  6  0  0  0
  9 26  1  0  0  0  0
 10 11  1  0  0  0  0
 11  4  1  6  0  0  0
 11 13  1  0  0  0  0
 12  2  1  6  0  0  0
 12 13  1  0  0  0  0
 12 14  1  0  0  0  0
 13  3  1  1  0  0  0
 13 17  1  0  0  0  0
 14 15  1  0  0  0  0
 14 18  1  0  0  0  0
 14 25  1  1  0  0  0
 15 16  1  0  0  0  0
 16 19  1  0  0  0  0
 17 20  1  0  0  0  0
 18  1  1  1  0  0  0
 18 20  1  0  0  0  0
 18 21  1  0  0  0  0
 19 21  1  0  0  0  0
 19 22  2  0  0  0  0
 22 23  1  0  0  0  0
 28 29  1  0  0  0  0
 28 30  2  0  0  0  0
 30 31  1  0  0  0  0
M  END
