133071
 OpenBabel03021519512D

 34 35  0  0  0  0  0  0  0  0999 V2000
   -3.4438   10.3543    0.0000 Cl  0  0  0  0  0  0  0  0  0  0  0  0
   -2.1447    3.6043    0.0000 N   0  0  0  0  0  0  0  0  0  0  0  0
   -0.8457   11.8543    0.0000 O   0  0  0  0  0  0  0  0  0  0  0  0
   -0.8457    5.8543    0.0000 N   0  0  0  0  0  0  0  0  0  0  0  0
    0.4533    3.6043    0.0000 N   0  0  0  0  0  0  0  0  0  0  0  0
   -0.8457   10.3543    0.0000 C   0  0  0  0  0  0  0  0  0  0  0  0
    0.4533    9.6043    0.0000 C   0  0  0  0  0  0  0  0  0  0  0  0
   -2.1447    9.6043    0.0000 C   0  0  0  0  0  0  0  0  0  0  0  0
    0.4533    8.1043    0.0000 C   0  0  0  0  0  0  0  0  0  0  0  0
   -2.1447    8.1043    0.0000 C   0  0  0  0  0  0  0  0  0  0  0  0
   -0.8457    7.3543    0.0000 C   0  0  0  0  0  0  0  0  0  0  0  0
    0.4533    5.1043    0.0000 C   0  0  0  0  0  0  0  0  0  0  0  0
   -2.1447    5.1043    0.0000 C   0  0  0  0  0  0  0  0  0  0  0  0
   -0.8457    2.8543    0.0000 C   0  0  0  0  0  0  0  0  0  0  0  0
   -3.4438    5.8543    0.0000 N   0  0  0  0  0  0  0  0  0  0  0  0
   -0.8457    1.3543    0.0000 N   0  0  0  0  0  0  0  0  0  0  0  0
    0.4533   12.6043    0.0000 C   0  0  0  0  0  0  0  0  0  0  0  0
    0.4533   14.1043    0.0000 C   0  0  0  0  0  0  0  0  0  0  0  0
    1.7524   14.8543    0.0000 C   0  0  0  0  0  0  0  0  0  0  0  0
    1.9306    4.8438    0.0000 C   0  0  0  0  0  0  0  0  0  0  0  0
    0.9664    6.5138    0.0000 C   0  0  0  0  0  0  0  0  0  0  0  0
    3.0514   14.1043    0.0000 O   0  0  0  0  0  0  0  0  0  0  0  0
    4.3504   14.8543    0.0000 C   0  0  0  0  0  0  0  0  0  0  0  0
    4.3504   16.3543    0.0000 C   0  0  0  0  0  0  0  0  0  0  0  0
    5.6495   17.1043    0.0000 C   0  0  0  0  0  0  0  0  0  0  0  0
    6.9485   16.3543    0.0000 C   0  0  0  0  0  0  0  0  0  0  0  0
    6.9485   14.8543    0.0000 C   0  0  0  0  0  0  0  0  0  0  0  0
    5.6495   14.1043    0.0000 C   0  0  0  0  0  0  0  0  0  0  0  0
   -5.2183   14.3788    0.0000 C   0  0  0  0  0  0  0  0  0  0  0  0
   -3.9193   15.1288    0.0000 C   0  0  0  0  0  0  0  0  0  0  0  0
   -5.2183   12.8788    0.0000 S   0  0  0  0  0  0  0  0  0  0  0  0
   -6.7183   12.8788    0.0000 O   0  0  0  0  0  0  0  0  0  0  0  0
   -3.7183   12.8788    0.0000 O   0  0  0  0  0  0  0  0  0  0  0  0
   -5.2183   11.3788    0.0000 O   0  0  0  0  0  0  0  0  0  0  0  0
  1  8  1  0  0  0  0
  2 13  2  0  0  0  0
  2 14  1  0  0  0  0
  3  6  1  0  0  0  0
  3 17  1  0  0  0  0
  4 11  1  0  0  0  0
  4 12  1  0  0  0  0
  4 13  1  0  0  0  0
  5 14  2  0  0  0  0
  5 12  1  0  0  0  0
  6  8  2  0  0  0  0
  6  7  1  0  0  0  0
  7  9  2  0  0  0  0
  8 10  1  0  0  0  0
  9 11  1  0  0  0  0
 10 11  2  0  0  0  0
 12 20  1  0  0  0  0
 12 21  1  0  0  0  0
 13 15  1  0  0  0  0
 14 16  1  0  0  0  0
 17 18  1  0  0  0  0
 18 19  1  0  0  0  0
 19 22  1  0  0  0  0
 22 23  1  0  0  0  0
 23 24  2  0  0  0  0
 23 28  1  0  0  0  0
 24 25  1  0  0  0  0
 25 26  2  0  0  0  0
 26 27  1  0  0  0  0
 27 28  2  0  0  0  0
 29 30  1  0  0  0  0
 29 31  1  0  0  0  0
 31 32  2  0  0  0  0
 31 33  2  0  0  0  0
 31 34  1  0  0  0  0
M  END
