209901
 OpenBabel03021519512D

 19 21  0  0  0  0  0  0  0  0999 V2000
   -0.3801    0.9902    0.0000 Cl  0  0  0  0  0  0  0  0  0  0  0  0
   -0.6517    6.0011    0.0000 S   0  0  0  0  0  0  0  0  0  0  0  0
    0.7749    4.0376    0.0000 N   0  0  0  0  0  0  0  0  0  0  0  0
    1.9884    6.4193    0.0000 O   0  0  0  0  0  0  0  0  0  0  0  0
    1.3613   12.3864    0.0000 Cl  0  0  0  0  0  0  0  0  0  0  0  0
   -1.0658   10.6230    0.0000 Cl  0  0  0  0  0  0  0  0  0  0  0  0
   -3.0251    4.6308    0.0000 C   0  0  0  0  0  0  0  0  0  0  0  0
   -3.6352    3.2605    0.0000 C   0  0  0  0  0  0  0  0  0  0  0  0
   -1.5333    4.7876    0.0000 C   0  0  0  0  0  0  0  0  0  0  0  0
   -2.7536    2.0470    0.0000 C   0  0  0  0  0  0  0  0  0  0  0  0
   -0.6517    3.5741    0.0000 C   0  0  0  0  0  0  0  0  0  0  0  0
   -1.2618    2.2037    0.0000 C   0  0  0  0  0  0  0  0  0  0  0  0
    0.4613    8.5211    0.0000 C   0  0  0  0  0  0  0  0  0  0  0  0
    1.8317    7.9110    0.0000 C   0  0  0  0  0  0  0  0  0  0  0  0
    0.3045   10.0129    0.0000 C   0  0  0  0  0  0  0  0  0  0  0  0
    3.0452    8.7927    0.0000 C   0  0  0  0  0  0  0  0  0  0  0  0
    1.5181   10.8946    0.0000 C   0  0  0  0  0  0  0  0  0  0  0  0
    2.8884   10.2845    0.0000 C   0  0  0  0  0  0  0  0  0  0  0  0
    0.7749    5.5376    0.0000 C   0  0  0  0  0  0  0  0  0  0  0  0
  1 12  1  0  0  0  0
  2  9  1  0  0  0  0
  2 19  1  0  0  0  0
  3 19  2  0  0  0  0
  3 11  1  0  0  0  0
  4 14  1  0  0  0  0
  4 19  1  0  0  0  0
  5 17  1  0  0  0  0
  6 15  1  0  0  0  0
  7  8  2  0  0  0  0
  7  9  1  0  0  0  0
  8 10  1  0  0  0  0
  9 11  2  0  0  0  0
 10 12  2  0  0  0  0
 11 12  1  0  0  0  0
 13 14  2  0  0  0  0
 13 15  1  0  0  0  0
 14 16  1  0  0  0  0
 15 17  2  0  0  0  0
 16 18  2  0  0  0  0
 17 18  1  0  0  0  0
M  END
