127947
 OpenBabel03021519512D

 14 14  0  0  1  0  0  0  0  0999 V2000
    0.2461   -4.4888    0.0000 C   0  0  3  0  0  0  0  0  0  0  0  0
    0.2461   -5.9888    0.0000 C   0  0  0  0  0  0  0  0  0  0  0  0
   -1.2539   -4.4888    0.0000 C   0  0  0  0  0  0  0  0  0  0  0  0
   -1.2539   -5.9888    0.0000 C   0  0  3  0  0  0  0  0  0  0  0  0
   -3.7634   -6.6612    0.0000 C   0  0  0  0  0  0  0  0  0  0  0  0
   -4.1516   -5.2123    0.0000 O   0  0  0  0  0  0  0  0  0  0  0  0
   -4.8241   -7.7219    0.0000 O   0  0  0  0  0  0  0  0  0  0  0  0
   -2.3145   -7.0494    0.0000 C   0  0  0  0  0  0  0  0  0  0  0  0
    0.2461   -7.4888    0.0000 C   0  0  0  0  0  0  0  0  0  0  0  0
    1.3068   -3.4281    0.0000 C   0  0  0  0  0  0  0  0  0  0  0  0
    2.7557   -3.8163    0.0000 C   0  0  0  0  0  0  0  0  0  0  0  0
    1.7461   -5.9888    0.0000 C   0  0  0  0  0  0  0  0  0  0  0  0
    0.9186   -1.9792    0.0000 N   0  0  0  0  0  0  0  0  0  0  0  0
    1.9792   -0.9186    0.0000 O   0  0  0  0  0  0  0  0  0  0  0  0
  1  2  1  0  0  0  0
  1  3  1  0  0  0  0
  1 10  1  0  0  0  0
  2  4  1  0  0  0  0
  2  9  1  0  0  0  0
  2 12  1  0  0  0  0
  3  4  1  0  0  0  0
  4  8  1  0  0  0  0
  5  6  2  0  0  0  0
  5  7  1  0  0  0  0
  5  8  1  0  0  0  0
 10 11  1  0  0  0  0
 10 13  2  0  0  0  0
 13 14  1  0  0  0  0
M  END
