173101
 OpenBabel03021519512D

 15 16  0  0  0  0  0  0  0  0999 V2000
   -4.6471   -2.2500    0.0000 N   0  0  0  0  0  0  0  0  0  0  0  0
   -4.6471   -5.2500    0.0000 N   0  0  0  0  0  0  0  0  0  0  0  0
   -4.6471   -6.7500    0.0000 H   0  0  0  0  0  0  0  0  0  0  0  0
   -2.0490   -5.2500    0.0000 O   0  0  0  0  0  0  0  0  0  0  0  0
   -7.2452   -2.2500    0.0000 C   0  0  0  0  0  0  0  0  0  0  0  0
   -5.9462   -3.0000    0.0000 C   0  0  0  0  0  0  0  0  0  0  0  0
   -8.5442   -3.0000    0.0000 C   0  0  0  0  0  0  0  0  0  0  0  0
   -5.9461   -4.5000    0.0000 C   0  0  0  0  0  0  0  0  0  0  0  0
   -8.5442   -4.5000    0.0000 C   0  0  0  0  0  0  0  0  0  0  0  0
   -7.2452   -5.2500    0.0000 C   0  0  0  0  0  0  0  0  0  0  0  0
   -3.3481   -3.0000    0.0000 C   0  0  0  0  0  0  0  0  0  0  0  0
   -3.3481   -4.5000    0.0000 C   0  0  0  0  0  0  0  0  0  0  0  0
   -2.0490   -2.2500    0.0000 C   0  0  0  0  0  0  0  0  0  0  0  0
   -0.7500   -3.0000    0.0000 O   0  0  0  0  0  0  0  0  0  0  0  0
   -2.0490   -0.7500    0.0000 N   0  0  0  0  0  0  0  0  0  0  0  0
  1 11  2  0  0  0  0
  1  6  1  0  0  0  0
  2  8  1  0  0  0  0
  2 12  1  0  0  0  0
  2  3  1  0  0  0  0
  4 12  2  0  0  0  0
  5  6  1  0  0  0  0
  5  7  1  0  0  0  0
  6  8  2  0  0  0  0
  7  9  1  0  0  0  0
  8 10  1  0  0  0  0
  9 10  1  0  0  0  0
 11 12  1  0  0  0  0
 11 13  1  0  0  0  0
 13 14  2  0  0  0  0
 13 15  1  0  0  0  0
M  END
