75071
 OpenBabel03021519512D

  8  8  0  0  0  0  0  0  0  0999 V2000
   -3.5221   -2.8995    0.0000 C   0  0  0  0  0  0  0  0  0  0  0  0
   -3.5221   -4.3995    0.0000 C   0  0  0  0  0  0  0  0  0  0  0  0
   -2.2231   -2.1495    0.0000 C   0  0  0  0  0  0  0  0  0  0  0  0
   -2.2231   -5.1495    0.0000 N   0  0  0  0  0  0  0  0  0  0  0  0
   -0.9240   -2.8995    0.0000 C   0  0  0  0  0  0  0  0  0  0  0  0
   -0.9240   -4.3995    0.0000 N   0  0  0  0  0  0  0  0  0  0  0  0
    0.3750   -2.1495    0.0000 Cl  0  0  0  0  0  0  0  0  0  0  0  0
   -4.8212   -5.1495    0.0000 O   0  0  0  0  0  0  0  0  0  0  0  0
  1  3  2  0  0  0  0
  1  2  1  0  0  0  0
  2  4  2  0  0  0  0
  2  8  1  0  0  0  0
  3  5  1  0  0  0  0
  4  6  1  0  0  0  0
  5  7  1  0  0  0  0
  5  6  2  0  0  0  0
M  END
