245091
 OpenBabel03021519512D

 24 29  0  0  1  0  0  0  0  0999 V2000
    1.3995    0.9240    0.0000 C   0  0  0  0  0  0  0  0  0  0  0  0
    2.1495   -0.3750    0.0000 C   0  0  0  0  0  0  0  0  0  0  0  0
    2.4032    2.0388    0.0000 C   0  0  0  0  0  0  0  0  0  0  0  0
    3.6167   -0.0631    0.0000 C   0  0  0  0  0  0  0  0  0  0  0  0
    3.7735    1.4287    0.0000 C   0  0  3  0  0  0  0  0  0  0  0  0
    4.5235    2.7277    0.0000 O   0  0  0  0  0  0  0  0  0  0  0  0
    5.2735    1.4287    0.0000 C   0  0  3  0  0  0  0  0  0  0  0  0
    5.2735   -0.0713    0.0000 C   0  0  0  0  0  0  0  0  0  0  0  0
    6.5726    2.1787    0.0000 C   0  0  0  0  0  0  0  0  0  0  0  0
    7.8716    1.4287    0.0000 C   0  0  0  0  0  0  0  0  0  0  0  0
    6.5726   -0.8213    0.0000 C   0  0  0  0  0  0  0  0  0  0  0  0
    7.8716   -0.0713    0.0000 C   0  0  3  0  0  0  0  0  0  0  0  0
    8.0284   -1.5631    0.0000 C   0  0  0  0  0  0  0  0  0  0  0  0
    9.2419    0.5388    0.0000 C   0  0  0  0  0  0  0  0  0  0  0  0
   10.2456   -0.5759    0.0000 C   0  0  3  0  0  0  0  0  0  0  0  0
    9.4956   -1.8750    0.0000 C   0  0  0  0  0  0  0  0  0  0  0  0
   11.4591    0.3057    0.0000 O   0  0  0  0  0  0  0  0  0  0  0  0
   11.8875   -3.7699    0.0000 C   0  0  0  0  0  0  0  0  0  0  0  0
   12.7692   -4.9834    0.0000 C   0  0  0  0  0  0  0  0  0  0  0  0
   12.4976   -2.3996    0.0000 C   0  0  0  0  0  0  0  0  0  0  0  0
   11.6159   -1.1861    0.0000 C   0  0  3  0  0  0  0  0  0  0  0  0
   14.2610   -4.8266    0.0000 C   0  0  0  0  0  0  0  0  0  0  0  0
   13.9894   -2.2428    0.0000 C   0  0  0  0  0  0  0  0  0  0  0  0
   14.8711   -3.4563    0.0000 C   0  0  0  0  0  0  0  0  0  0  0  0
  1  3  2  0  0  0  0
  1  2  1  0  0  0  0
  2  4  2  0  0  0  0
  3  5  1  0  0  0  0
  4  5  1  0  0  0  0
  5  6  1  0  0  0  0
  5  7  1  0  0  0  0
  6  7  1  0  0  0  0
  7  9  1  0  0  0  0
  7  8  1  0  0  0  0
  8 11  1  0  0  0  0
  9 10  1  0  0  0  0
 10 12  1  0  0  0  0
 11 12  1  0  0  0  0
 12 14  1  0  0  0  0
 12 13  1  0  0  0  0
 13 16  2  0  0  0  0
 14 15  1  0  0  0  0
 15 17  1  0  0  0  0
 15 21  1  0  0  0  0
 15 16  1  0  0  0  0
 17 21  1  0  0  0  0
 18 20  1  0  0  0  0
 18 19  1  0  0  0  0
 19 22  1  0  0  0  0
 20 21  1  0  0  0  0
 20 23  1  0  0  0  0
 22 24  1  0  0  0  0
 23 24  1  0  0  0  0
M  END
