28341
 OpenBabel03021519512D

 16 18  0  0  0  0  0  0  0  0999 V2000
   -0.8760    6.0768    0.0000 N   0  0  0  0  0  0  0  0  0  0  0  0
    0.3375    5.1951    0.0000 N   0  0  0  0  0  0  0  0  0  0  0  0
   -0.1260    3.7685    0.0000 N   0  0  0  0  0  0  0  0  0  0  0  0
   -0.8761   10.5768    0.0000 C   0  0  0  0  0  0  0  0  0  0  0  0
   -2.1751    9.8268    0.0000 C   0  0  0  0  0  0  0  0  0  0  0  0
    0.4230    9.8268    0.0000 C   0  0  0  0  0  0  0  0  0  0  0  0
    0.4230    8.3268    0.0000 C   0  0  0  0  0  0  0  0  0  0  0  0
   -2.1751    8.3268    0.0000 C   0  0  0  0  0  0  0  0  0  0  0  0
   -0.8760    7.5768    0.0000 C   0  0  0  0  0  0  0  0  0  0  0  0
   -3.5568    5.5069    0.0000 C   0  0  0  0  0  0  0  0  0  0  0  0
   -2.0896    5.1951    0.0000 C   0  0  0  0  0  0  0  0  0  0  0  0
   -4.5605    4.3922    0.0000 C   0  0  0  0  0  0  0  0  0  0  0  0
   -1.6260    3.7685    0.0000 C   0  0  0  0  0  0  0  0  0  0  0  0
   -4.0970    2.9656    0.0000 C   0  0  0  0  0  0  0  0  0  0  0  0
   -2.6297    2.6538    0.0000 C   0  0  0  0  0  0  0  0  0  0  0  0
   -5.1007    1.8509    0.0000 N   0  0  0  0  0  0  0  0  0  0  0  0
  1  2  1  0  0  0  0
  1  9  1  0  0  0  0
  1 11  1  0  0  0  0
  2  3  2  0  0  0  0
  3 13  1  0  0  0  0
  4  6  2  0  0  0  0
  4  5  1  0  0  0  0
  5  8  2  0  0  0  0
  6  7  1  0  0  0  0
  7  9  2  0  0  0  0
  8  9  1  0  0  0  0
 10 12  2  0  0  0  0
 10 11  1  0  0  0  0
 11 13  2  0  0  0  0
 12 14  1  0  0  0  0
 13 15  1  0  0  0  0
 14 15  2  0  0  0  0
 14 16  1  0  0  0  0
M  END
