88349
 OpenBabel03021519512D

 17 17  0  0  0  0  0  0  0  0999 V2000
   -2.5868  -10.0959    0.0000 O   0  0  0  0  0  0  0  0  0  0  0  0
   -4.0426   -7.8541    0.0000 O   0  0  0  0  0  0  0  0  0  0  0  0
   -3.7307   -6.3869    0.0000 N   0  0  0  0  0  0  0  0  0  0  0  0
   -4.7344   -5.2721    0.0000 H   0  0  0  0  0  0  0  0  0  0  0  0
   -1.6289   -7.6004    0.0000 N   0  0  0  0  0  0  0  0  0  0  0  0
   -2.2390   -6.2301    0.0000 C   0  0  0  0  0  0  0  0  0  0  0  0
   -2.7436   -8.6041    0.0000 C   0  0  0  0  0  0  0  0  0  0  0  0
   -1.4890   -4.9310    0.0000 C   0  0  0  0  0  0  0  0  0  0  0  0
   -2.7880   -4.1810    0.0000 F   0  0  0  0  0  0  0  0  0  0  0  0
   -0.1899   -5.6810    0.0000 F   0  0  0  0  0  0  0  0  0  0  0  0
   -0.7390   -3.6320    0.0000 C   0  0  0  0  0  0  0  0  0  0  0  0
   -2.0380   -2.8820    0.0000 F   0  0  0  0  0  0  0  0  0  0  0  0
   -0.7390   -2.1320    0.0000 F   0  0  0  0  0  0  0  0  0  0  0  0
    0.7610   -3.6320    0.0000 C   0  0  0  0  0  0  0  0  0  0  0  0
    0.7610   -5.1320    0.0000 F   0  0  0  0  0  0  0  0  0  0  0  0
    0.7610   -2.1320    0.0000 F   0  0  0  0  0  0  0  0  0  0  0  0
    2.2610   -3.6320    0.0000 F   0  0  0  0  0  0  0  0  0  0  0  0
  1  7  2  0  0  0  0
  2  3  1  0  0  0  0
  2  7  1  0  0  0  0
  3  6  1  0  0  0  0
  3  4  1  0  0  0  0
  5  6  2  0  0  0  0
  5  7  1  0  0  0  0
  6  8  1  0  0  0  0
  8  9  1  0  0  0  0
  8 10  1  0  0  0  0
  8 11  1  0  0  0  0
 11 12  1  0  0  0  0
 11 13  1  0  0  0  0
 11 14  1  0  0  0  0
 14 15  1  0  0  0  0
 14 16  1  0  0  0  0
 14 17  1  0  0  0  0
M  END
