204920
 OpenBabel03021519512D

 17 18  0  0  0  0  0  0  0  0999 V2000
    0.7500   -8.5442    0.0000 N   0  0  0  0  0  0  0  0  0  0  0  0
    1.5000   -7.2452    0.0000 C   0  0  0  0  0  0  0  0  0  0  0  0
    1.5000   -9.8433    0.0000 C   0  0  0  0  0  0  0  0  0  0  0  0
    3.0000   -9.8433    0.0000 C   0  0  0  0  0  0  0  0  0  0  0  0
    3.0000   -7.2452    0.0000 C   0  0  0  0  0  0  0  0  0  0  0  0
    3.7500   -8.5442    0.0000 C   0  0  0  0  0  0  0  0  0  0  0  0
    5.2500   -5.9462    0.0000 C   0  0  0  0  0  0  0  0  0  0  0  0
    6.0000   -4.6471    0.0000 C   0  0  0  0  0  0  0  0  0  0  0  0
    3.7500   -5.9461    0.0000 C   0  0  0  0  0  0  0  0  0  0  0  0
    3.0000   -4.6471    0.0000 C   0  0  0  0  0  0  0  0  0  0  0  0
    5.2500   -3.3481    0.0000 C   0  0  0  0  0  0  0  0  0  0  0  0
    3.7500   -3.3481    0.0000 C   0  0  0  0  0  0  0  0  0  0  0  0
    5.2500   -8.5442    0.0000 C   0  0  0  0  0  0  0  0  0  0  0  0
    6.0000   -7.2452    0.0000 C   0  0  0  0  0  0  0  0  0  0  0  0
    3.0000   -2.0490    0.0000 N   0  3  0  0  0  0  0  0  0  0  0  0
    1.5000   -2.0490    0.0000 O   0  5  0  0  0  0  0  0  0  0  0  0
    3.7500   -0.7500    0.0000 O   0  0  0  0  0  0  0  0  0  0  0  0
  1  2  1  0  0  0  0
  1  3  2  0  0  0  0
  2  5  2  0  0  0  0
  3  4  1  0  0  0  0
  4  6  2  0  0  0  0
  5  6  1  0  0  0  0
  6 13  1  0  0  0  0
  7  9  1  0  0  0  0
  7  8  2  0  0  0  0
  7 14  1  0  0  0  0
  8 11  1  0  0  0  0
  9 10  2  0  0  0  0
 10 12  1  0  0  0  0
 11 12  2  0  0  0  0
 12 15  1  0  0  0  0
 13 14  2  0  0  0  0
 15 16  1  0  0  0  0
 15 17  2  0  0  0  0
M  CHG  2  15   1  16  -1
M  END
