19141
 OpenBabel03021519512D

 20 22  0  0  0  0  0  0  0  0999 V2000
   -4.9216  -10.0245    0.0000 Cl  0  0  0  0  0  0  0  0  0  0  0  0
   -3.6226   -7.7745    0.0000 N   0  0  0  0  0  0  0  0  0  0  0  0
   -2.3235  -10.0245    0.0000 N   0  0  0  0  0  0  0  0  0  0  0  0
    0.4021   -7.3110    0.0000 N   0  0  0  0  0  0  0  0  0  0  0  0
    0.4021   -9.7380    0.0000 N   0  0  0  0  0  0  0  0  0  0  0  0
   -6.5522   -3.9854    0.0000 C   0  0  0  0  0  0  0  0  0  0  0  0
   -5.4031   -3.0213    0.0000 C   0  0  0  0  0  0  0  0  0  0  0  0
   -6.2917   -5.4626    0.0000 C   0  0  0  0  0  0  0  0  0  0  0  0
   -3.9936   -3.5343    0.0000 C   0  0  0  0  0  0  0  0  0  0  0  0
   -4.8822   -5.9757    0.0000 C   0  0  0  0  0  0  0  0  0  0  0  0
   -3.7331   -5.0115    0.0000 C   0  0  0  0  0  0  0  0  0  0  0  0
   -2.3236   -7.0245    0.0000 C   0  0  0  0  0  0  0  0  0  0  0  0
   -1.0245   -7.7745    0.0000 C   0  0  0  0  0  0  0  0  0  0  0  0
   -1.0245   -9.2745    0.0000 C   0  0  0  0  0  0  0  0  0  0  0  0
    1.2838   -8.5245    0.0000 C   0  0  0  0  0  0  0  0  0  0  0  0
   -3.6226   -9.2745    0.0000 C   0  0  0  0  0  0  0  0  0  0  0  0
   -2.3236   -5.5245    0.0000 N   0  0  0  0  0  0  0  0  0  0  0  0
   -7.9617   -3.4724    0.0000 C   0  0  0  0  0  0  0  0  0  0  0  0
    0.8656   -5.8844    0.0000 C   0  0  0  0  0  0  0  0  0  0  0  0
   -2.8445   -2.5701    0.0000 C   0  0  0  0  0  0  0  0  0  0  0  0
  1 16  1  0  0  0  0
  2 12  2  0  0  0  0
  2 16  1  0  0  0  0
  3 16  2  0  0  0  0
  3 14  1  0  0  0  0
  4 13  1  0  0  0  0
  4 15  1  0  0  0  0
  4 19  1  0  0  0  0
  5 15  2  0  0  0  0
  5 14  1  0  0  0  0
  6  7  2  0  0  0  0
  6  8  1  0  0  0  0
  6 18  1  0  0  0  0
  7  9  1  0  0  0  0
  8 10  2  0  0  0  0
  9 11  2  0  0  0  0
  9 20  1  0  0  0  0
 10 11  1  0  0  0  0
 11 17  1  0  0  0  0
 12 13  1  0  0  0  0
 12 17  1  0  0  0  0
 13 14  2  0  0  0  0
M  END
