108235
 OpenBabel03021519512D

 17 18  0  0  0  0  0  0  0  0999 V2000
   -9.8433    6.0000    0.0000 N   0  0  0  0  0  0  0  0  0  0  0  0
   -5.9462    5.2500    0.0000 N   0  0  0  0  0  0  0  0  0  0  0  0
   -5.9462    3.7500    0.0000 N   0  0  0  0  0  0  0  0  0  0  0  0
   -8.5442    5.2500    0.0000 C   0  0  0  0  0  0  0  0  0  0  0  0
   -7.2452    6.0000    0.0000 C   0  0  0  0  0  0  0  0  0  0  0  0
   -7.2452    7.5000    0.0000 C   0  0  0  0  0  0  0  0  0  0  0  0
   -8.5443    8.2500    0.0000 C   0  0  0  0  0  0  0  0  0  0  0  0
   -9.8433    7.5000    0.0000 C   0  0  0  0  0  0  0  0  0  0  0  0
   -3.3481    3.7500    0.0000 C   0  0  0  0  0  0  0  0  0  0  0  0
   -4.6471    3.0000    0.0000 C   0  0  0  0  0  0  0  0  0  0  0  0
   -2.0490    3.0000    0.0000 C   0  0  0  0  0  0  0  0  0  0  0  0
   -2.0490    1.5000    0.0000 C   0  0  0  0  0  0  0  0  0  0  0  0
   -4.6471    1.5000    0.0000 C   0  0  0  0  0  0  0  0  0  0  0  0
   -3.3481    0.7500    0.0000 C   0  0  0  0  0  0  0  0  0  0  0  0
  -11.1423    8.2500    0.0000 N   0  0  0  0  0  0  0  0  0  0  0  0
   -8.5442    3.7500    0.0000 N   0  0  0  0  0  0  0  0  0  0  0  0
   -0.7500    0.7500    0.0000 O   0  0  0  0  0  0  0  0  0  0  0  0
  1  4  2  0  0  0  0
  1  8  1  0  0  0  0
  2  5  1  0  0  0  0
  2  3  2  0  0  0  0
  3 10  1  0  0  0  0
  4  5  1  0  0  0  0
  4 16  1  0  0  0  0
  5  6  2  0  0  0  0
  6  7  1  0  0  0  0
  7  8  2  0  0  0  0
  8 15  1  0  0  0  0
  9 11  2  0  0  0  0
  9 10  1  0  0  0  0
 10 13  2  0  0  0  0
 11 12  1  0  0  0  0
 12 14  2  0  0  0  0
 12 17  1  0  0  0  0
 13 14  1  0  0  0  0
M  END
