26113
 OpenBabel03021519512D

 18 19  0  0  0  0  0  0  0  0999 V2000
   -0.9914   -6.3205    0.0000 C   0  0  0  0  0  0  0  0  0  0  0  0
   -2.4883   -6.2245    0.0000 C   0  0  0  0  0  0  0  0  0  0  0  0
   -0.4375   -4.9265    0.0000 C   0  0  0  0  0  0  0  0  0  0  0  0
   -2.8596   -4.7711    0.0000 C   0  0  0  0  0  0  0  0  0  0  0  0
   -1.5921   -3.9690    0.0000 C   0  0  0  0  0  0  0  0  0  0  0  0
   -3.4459   -7.3790    0.0000 Cl  0  0  0  0  0  0  0  0  0  0  0  0
   -4.2535   -4.2172    0.0000 Cl  0  0  0  0  0  0  0  0  0  0  0  0
   -0.1892   -7.5880    0.0000 Cl  0  0  0  0  0  0  0  0  0  0  0  0
    1.0159   -4.5553    0.0000 Cl  0  0  0  0  0  0  0  0  0  0  0  0
   -1.4960   -2.4720    0.0000 C   0  0  0  0  0  0  0  0  0  0  0  0
   -0.1516   -1.8068    0.0000 C   0  0  0  0  0  0  0  0  0  0  0  0
    1.0967   -2.6384    0.0000 C   0  0  0  0  0  0  0  0  0  0  0  0
    2.4411   -1.9731    0.0000 C   0  0  0  0  0  0  0  0  0  0  0  0
    2.5372   -0.4762    0.0000 C   0  0  0  0  0  0  0  0  0  0  0  0
    3.8816    0.1891    0.0000 C   0  0  0  0  0  0  0  0  0  0  0  0
    5.1299   -0.6426    0.0000 C   0  0  0  0  0  0  0  0  0  0  0  0
    5.0339   -2.1395    0.0000 C   0  0  0  0  0  0  0  0  0  0  0  0
    3.6895   -2.8048    0.0000 C   0  0  0  0  0  0  0  0  0  0  0  0
  1  8  1  0  0  0  0
  1  2  1  0  0  0  0
  1  3  2  0  0  0  0
  2  6  1  0  0  0  0
  2  4  2  0  0  0  0
  3  9  1  0  0  0  0
  3  5  1  0  0  0  0
  4  5  1  0  0  0  0
  4  7  1  0  0  0  0
  5 10  2  0  0  0  0
 10 11  1  0  0  0  0
 11 12  2  0  0  0  0
 12 13  1  0  0  0  0
 13 14  2  0  0  0  0
 13 18  1  0  0  0  0
 14 15  1  0  0  0  0
 15 16  2  0  0  0  0
 16 17  1  0  0  0  0
 17 18  2  0  0  0  0
M  END
