331977
 OpenBabel03021519512D

 19 21  0  0  0  0  0  0  0  0999 V2000
    1.8647    2.8519    0.0000 C   0  0  0  0  0  0  0  0  0  0  0  0
    1.7079    1.3601    0.0000 N   0  0  0  0  0  0  0  0  0  0  0  0
    3.0782    0.7500    0.0000 O   0  0  0  0  0  0  0  0  0  0  0  0
    3.3319    3.1638    0.0000 C   0  0  0  0  0  0  0  0  0  0  0  0
    4.0819    1.8647    0.0000 C   0  0  0  0  0  0  0  0  0  0  0  0
    4.0819    4.4628    0.0000 C   0  0  0  0  0  0  0  0  0  0  0  0
    3.3319    5.7618    0.0000 O   0  0  0  0  0  0  0  0  0  0  0  0
    5.5819    1.8647    0.0000 C   0  0  0  0  0  0  0  0  0  0  0  0
    6.3319    3.1638    0.0000 C   0  0  0  0  0  0  0  0  0  0  0  0
    5.5819    4.4628    0.0000 N   0  0  0  0  0  0  0  0  0  0  0  0
    0.7500    3.8556    0.0000 C   0  0  0  0  0  0  0  0  0  0  0  0
    1.0619    5.3228    0.0000 C   0  0  0  0  0  0  0  0  0  0  0  0
    6.3319    5.7618    0.0000 C   0  0  0  0  0  0  0  0  0  0  0  0
    7.8319    3.1638    0.0000 C   0  0  0  0  0  0  0  0  0  0  0  0
    8.5819    4.4628    0.0000 C   0  0  0  0  0  0  0  0  0  0  0  0
   10.0819    4.4628    0.0000 C   0  0  0  0  0  0  0  0  0  0  0  0
   10.8319    3.1638    0.0000 C   0  0  0  0  0  0  0  0  0  0  0  0
   10.0820    1.8647    0.0000 C   0  0  0  0  0  0  0  0  0  0  0  0
    8.5820    1.8647    0.0000 C   0  0  0  0  0  0  0  0  0  0  0  0
  1  4  1  0  0  0  0
  1  2  2  0  0  0  0
  1 11  1  0  0  0  0
  2  3  1  0  0  0  0
  3  5  1  0  0  0  0
  4  6  1  0  0  0  0
  4  5  2  0  0  0  0
  5  8  1  0  0  0  0
  6  7  2  0  0  0  0
  6 10  1  0  0  0  0
  8  9  2  0  0  0  0
  9 10  1  0  0  0  0
  9 14  1  0  0  0  0
 10 13  1  0  0  0  0
 11 12  1  0  0  0  0
 14 15  2  0  0  0  0
 14 19  1  0  0  0  0
 15 16  1  0  0  0  0
 16 17  2  0  0  0  0
 17 18  1  0  0  0  0
 18 19  2  0  0  0  0
M  END
