309971
 OpenBabel03021519512D

 15 15  0  0  0  0  0  0  0  0999 V2000
   -5.2500   -2.0491    0.0000 C   0  0  0  0  0  0  0  0  0  0  0  0
   -6.7500   -2.0491    0.0000 C   0  0  0  0  0  0  0  0  0  0  0  0
   -4.5000   -3.3481    0.0000 C   0  0  0  0  0  0  0  0  0  0  0  0
   -7.5000   -3.3481    0.0000 C   0  0  0  0  0  0  0  0  0  0  0  0
   -5.2500   -4.6471    0.0000 C   0  0  0  0  0  0  0  0  0  0  0  0
   -6.7500   -4.6471    0.0000 C   0  0  0  0  0  0  0  0  0  0  0  0
   -3.0000   -3.3481    0.0000 S   0  0  0  0  0  0  0  0  0  0  0  0
   -3.0000   -4.8481    0.0000 O   0  0  0  0  0  0  0  0  0  0  0  0
   -3.0000   -1.8481    0.0000 O   0  0  0  0  0  0  0  0  0  0  0  0
   -1.5000   -3.3481    0.0000 N   0  0  0  0  0  0  0  0  0  0  0  0
   -4.5000   -0.7500    0.0000 N   0  0  0  0  0  0  0  0  0  0  0  0
   -3.0000   -0.7500    0.0000 C   0  0  0  0  0  0  0  0  0  0  0  0
   -1.5000   -0.7500    0.0000 S   0  0  0  0  0  0  0  0  0  0  0  0
   -0.7500   -4.6471    0.0000 C   0  0  0  0  0  0  0  0  0  0  0  0
   -0.7500   -2.0490    0.0000 C   0  0  0  0  0  0  0  0  0  0  0  0
  1  3  1  0  0  0  0
  1  2  2  0  0  0  0
  1 11  1  0  0  0  0
  2  4  1  0  0  0  0
  3  7  1  0  0  0  0
  3  5  2  0  0  0  0
  4  6  2  0  0  0  0
  5  6  1  0  0  0  0
  7  9  2  0  0  0  0
  7  8  2  0  0  0  0
  7 10  1  0  0  0  0
 10 14  1  0  0  0  0
 10 15  1  0  0  0  0
 11 12  2  0  0  0  0
 12 13  2  0  0  0  0
M  END
