328087
 OpenBabel03021519512D

 29 32  0  0  1  0  0  0  0  0999 V2000
  -10.0173   -6.6496    0.0000 C   0  0  0  0  0  0  0  0  0  0  0  0
  -10.0173   -8.1496    0.0000 C   0  0  0  0  0  0  0  0  0  0  0  0
   -8.7183   -5.8995    0.0000 C   0  0  0  0  0  0  0  0  0  0  0  0
   -8.7183   -8.8996    0.0000 C   0  0  0  0  0  0  0  0  0  0  0  0
   -7.4192   -6.6495    0.0000 C   0  0  0  0  0  0  0  0  0  0  0  0
   -7.4192   -8.1495    0.0000 C   0  0  0  0  0  0  0  0  0  0  0  0
   -6.1202   -5.8995    0.0000 C   0  0  0  0  0  0  0  0  0  0  0  0
   -6.1202   -4.3995    0.0000 O   0  0  0  0  0  0  0  0  0  0  0  0
   -6.1202   -8.8995    0.0000 N   0  0  0  0  0  0  0  0  0  0  0  0
   -6.1202  -10.3995    0.0000 H   0  0  0  0  0  0  0  0  0  0  0  0
   -4.8211   -6.6495    0.0000 N   0  0  0  0  0  0  0  0  0  0  0  0
   -4.8211   -8.1495    0.0000 C   0  0  3  0  0  0  0  0  0  0  0  0
   -3.5221   -8.8995    0.0000 C   0  0  0  0  0  0  0  0  0  0  0  0
   -3.5221  -10.3995    0.0000 C   0  0  0  0  0  0  0  0  0  0  0  0
   -2.2231   -8.1495    0.0000 C   0  0  0  0  0  0  0  0  0  0  0  0
   -2.2230  -11.1495    0.0000 C   0  0  0  0  0  0  0  0  0  0  0  0
   -2.2230  -12.6495    0.0000 Cl  0  0  0  0  0  0  0  0  0  0  0  0
   -0.9240   -8.8995    0.0000 C   0  0  0  0  0  0  0  0  0  0  0  0
   -2.2231   -3.6495    0.0000 C   0  0  0  0  0  0  0  0  0  0  0  0
   -0.9240  -10.3995    0.0000 C   0  0  0  0  0  0  0  0  0  0  0  0
   -2.2231   -2.1495    0.0000 C   0  0  0  0  0  0  0  0  0  0  0  0
   -0.9240   -4.3995    0.0000 N   0  0  0  0  0  0  0  0  0  0  0  0
   -0.9240   -1.3995    0.0000 C   0  0  0  0  0  0  0  0  0  0  0  0
    0.3750   -8.1495    0.0000 Cl  0  0  0  0  0  0  0  0  0  0  0  0
    0.3750   -2.1495    0.0000 C   0  0  0  0  0  0  0  0  0  0  0  0
    0.3750   -3.6495    0.0000 C   0  0  0  0  0  0  0  0  0  0  0  0
   -4.8211  -11.1495    0.0000 O   0  0  0  0  0  0  0  0  0  0  0  0
   -3.5221   -5.8995    0.0000 C   0  0  0  0  0  0  0  0  0  0  0  0
   -3.5221   -4.3995    0.0000 C   0  0  0  0  0  0  0  0  0  0  0  0
  1  3  1  0  0  0  0
  1  2  2  0  0  0  0
  2  4  1  0  0  0  0
  3  5  2  0  0  0  0
  4  6  2  0  0  0  0
  5  7  1  0  0  0  0
  5  6  1  0  0  0  0
  6  9  1  0  0  0  0
  7  8  2  0  0  0  0
  7 11  1  0  0  0  0
  9 12  1  0  0  0  0
  9 10  1  0  0  0  0
 11 12  1  0  0  0  0
 11 28  1  0  0  0  0
 12 13  1  0  0  0  0
 13 15  2  0  0  0  0
 13 14  1  0  0  0  0
 14 16  2  0  0  0  0
 14 27  1  0  0  0  0
 15 18  1  0  0  0  0
 16 20  1  0  0  0  0
 16 17  1  0  0  0  0
 18 24  1  0  0  0  0
 18 20  2  0  0  0  0
 19 21  2  0  0  0  0
 19 22  1  0  0  0  0
 19 29  1  0  0  0  0
 21 23  1  0  0  0  0
 22 26  2  0  0  0  0
 23 25  2  0  0  0  0
 25 26  1  0  0  0  0
 28 29  1  0  0  0  0
M  END
