6866
 OpenBabel03021519512D

 14 14  0  0  0  0  0  0  0  0999 V2000
   -3.6345    4.2049    0.0000 Cl  0  0  0  0  0  0  0  0  0  0  0  0
    1.5617    4.2049    0.0000 Cl  0  0  0  0  0  0  0  0  0  0  0  0
   -1.0364    7.2049    0.0000 C   0  0  0  0  0  0  0  0  0  0  0  0
   -2.3354    6.4549    0.0000 C   0  0  0  0  0  0  0  0  0  0  0  0
    0.2626    6.4549    0.0000 C   0  0  0  0  0  0  0  0  0  0  0  0
    0.2626    4.9549    0.0000 C   0  0  0  0  0  0  0  0  0  0  0  0
   -2.3354    4.9549    0.0000 C   0  0  0  0  0  0  0  0  0  0  0  0
   -1.0364    4.2049    0.0000 C   0  0  0  0  0  0  0  0  0  0  0  0
    1.5617    7.2049    0.0000 C   0  0  0  0  0  0  0  0  0  0  0  0
    2.8607    6.4549    0.0000 O   0  0  0  0  0  0  0  0  0  0  0  0
    1.5617    8.7049    0.0000 N   0  0  0  0  0  0  0  0  0  0  0  0
    0.2626    9.4549    0.0000 C   0  0  0  0  0  0  0  0  0  0  0  0
   -1.0364    8.7049    0.0000 C   0  0  0  0  0  0  0  0  0  0  0  0
   -2.3354    9.4549    0.0000 C   0  0  0  0  0  0  0  0  0  0  0  0
  1  7  1  0  0  0  0
  2  6  1  0  0  0  0
  3  4  2  0  0  0  0
  3  5  1  0  0  0  0
  4  7  1  0  0  0  0
  5  6  2  0  0  0  0
  5  9  1  0  0  0  0
  6  8  1  0  0  0  0
  7  8  2  0  0  0  0
  9 10  2  0  0  0  0
  9 11  1  0  0  0  0
 11 12  1  0  0  0  0
 12 13  1  0  0  0  0
 13 14  1  0  0  0  0
M  END
