88600
 OpenBabel03021519512D

 25 27  0  0  0  0  0  0  0  0999 V2000
   -0.2745   10.0245    0.0000 N   0  0  0  0  0  0  0  0  0  0  0  0
    2.3236   11.5245    0.0000 N   0  0  0  0  0  0  0  0  0  0  0  0
    4.9216   10.0245    0.0000 Cl  0  0  0  0  0  0  0  0  0  0  0  0
    3.6226   13.7745    0.0000 C   0  0  0  0  0  0  0  0  0  0  0  0
    3.6226   12.2745    0.0000 C   0  0  0  0  0  0  0  0  0  0  0  0
    4.9216   14.5245    0.0000 C   0  0  0  0  0  0  0  0  0  0  0  0
    6.2207   13.7745    0.0000 C   0  0  0  0  0  0  0  0  0  0  0  0
    4.9216   11.5245    0.0000 C   0  0  0  0  0  0  0  0  0  0  0  0
    6.2207   12.2745    0.0000 C   0  0  0  0  0  0  0  0  0  0  0  0
    1.0245   12.2745    0.0000 C   0  0  0  0  0  0  0  0  0  0  0  0
   -0.2745   11.5245    0.0000 C   0  0  0  0  0  0  0  0  0  0  0  0
    2.3236   10.0245    0.0000 C   0  0  0  0  0  0  0  0  0  0  0  0
    1.0245    9.2745    0.0000 C   0  0  0  0  0  0  0  0  0  0  0  0
   -2.8726    7.0245    0.0000 C   0  0  0  0  0  0  0  0  0  0  0  0
   -1.5736    7.7745    0.0000 C   0  0  0  0  0  0  0  0  0  0  0  0
   -2.8726    5.5245    0.0000 C   0  0  0  0  0  0  0  0  0  0  0  0
   -0.2745    7.0245    0.0000 C   0  0  0  0  0  0  0  0  0  0  0  0
   -1.5735    4.7745    0.0000 C   0  0  0  0  0  0  0  0  0  0  0  0
   -0.2745    5.5245    0.0000 C   0  0  0  0  0  0  0  0  0  0  0  0
   -4.1716    4.7745    0.0000 O   0  0  0  0  0  0  0  0  0  0  0  0
   -4.1716    3.2745    0.0000 C   0  0  0  0  0  0  0  0  0  0  0  0
   -1.5735    3.2745    0.0000 O   0  0  0  0  0  0  0  0  0  0  0  0
   -2.8726    2.5245    0.0000 C   0  0  0  0  0  0  0  0  0  0  0  0
   -1.5736    9.2745    0.0000 C   0  0  0  0  0  0  0  0  0  0  0  0
   -2.8726   10.0245    0.0000 S   0  0  0  0  0  0  0  0  0  0  0  0
  1 11  1  0  0  0  0
  1 13  1  0  0  0  0
  1 24  1  0  0  0  0
  2  5  1  0  0  0  0
  2 10  1  0  0  0  0
  2 12  1  0  0  0  0
  3  8  1  0  0  0  0
  4  6  2  0  0  0  0
  4  5  1  0  0  0  0
  5  8  2  0  0  0  0
  6  7  1  0  0  0  0
  7  9  2  0  0  0  0
  8  9  1  0  0  0  0
 10 11  1  0  0  0  0
 12 13  1  0  0  0  0
 14 15  2  0  0  0  0
 14 16  1  0  0  0  0
 15 17  1  0  0  0  0
 15 24  1  0  0  0  0
 16 18  2  0  0  0  0
 16 20  1  0  0  0  0
 17 19  2  0  0  0  0
 18 19  1  0  0  0  0
 18 22  1  0  0  0  0
 20 21  1  0  0  0  0
 22 23  1  0  0  0  0
 24 25  2  0  0  0  0
M  END
