319029
 OpenBabel03021519512D

 21 22  0  0  0  0  0  0  0  0999 V2000
   -6.3062    0.5100    0.0000 C   0  0  0  0  0  0  0  0  0  0  0  0
   -5.1742    1.4942    0.0000 C   0  0  0  0  0  0  0  0  0  0  0  0
   -6.0199   -0.9624    0.0000 C   0  0  0  0  0  0  0  0  0  0  0  0
   -3.7559    1.0060    0.0000 C   0  0  0  0  0  0  0  0  0  0  0  0
   -4.6015   -1.4506    0.0000 C   0  0  0  0  0  0  0  0  0  0  0  0
   -3.4696   -0.4664    0.0000 C   0  0  0  0  0  0  0  0  0  0  0  0
    1.0297   -0.3874    0.0000 C   0  0  0  0  0  0  0  0  0  0  0  0
    1.8024   -1.6731    0.0000 C   0  0  0  0  0  0  0  0  0  0  0  0
    1.7568    0.9246    0.0000 C   0  0  0  0  0  0  0  0  0  0  0  0
    3.2566    0.9509    0.0000 C   0  0  0  0  0  0  0  0  0  0  0  0
    3.3022   -1.6468    0.0000 C   0  0  0  0  0  0  0  0  0  0  0  0
    3.9837    2.2629    0.0000 O   0  0  0  0  0  0  0  0  0  0  0  0
    4.0293   -0.3348    0.0000 C   0  0  0  0  0  0  0  0  0  0  0  0
    5.5291   -0.3085    0.0000 O   0  0  0  0  0  0  0  0  0  0  0  0
   -2.0692    0.0713    0.0000 C   0  0  0  0  0  0  0  0  0  0  0  0
   -0.6689    0.6090    0.0000 N   0  0  0  0  0  0  0  0  0  0  0  0
   -2.6969   -1.7521    0.0000 N   0  0  0  0  0  0  0  0  0  0  0  0
   -1.1971   -1.7258    0.0000 C   0  0  0  0  0  0  0  0  0  0  0  0
   -0.4700   -0.4138    0.0000 C   0  0  0  0  0  0  0  0  0  0  0  0
    5.4835    2.2892    0.0000 C   0  0  0  0  0  0  0  0  0  0  0  0
    6.2561    1.0035    0.0000 C   0  0  0  0  0  0  0  0  0  0  0  0
  1  2  1  0  0  0  0
  1  3  1  0  0  0  0
  2  4  1  0  0  0  0
  3  5  1  0  0  0  0
  4  6  1  0  0  0  0
  5  6  1  0  0  0  0
  6 15  1  0  0  0  0
  6 17  1  0  0  0  0
  7  9  2  0  0  0  0
  7  8  1  0  0  0  0
  7 19  1  0  0  0  0
  8 11  2  0  0  0  0
  9 10  1  0  0  0  0
 10 12  1  0  0  0  0
 10 13  2  0  0  0  0
 11 13  1  0  0  0  0
 12 20  1  0  0  0  0
 13 14  1  0  0  0  0
 14 21  1  0  0  0  0
 15 16  3  0  0  0  0
 17 18  1  0  0  0  0
 18 19  1  0  0  0  0
M  END
