287495
 OpenBabel03021519512D

 14 14  0  0  0  0  0  0  0  0999 V2000
    1.8243    4.5000    0.0000 C   0  0  0  0  0  0  0  0  0  0  0  0
    1.8243    3.0000    0.0000 C   0  0  0  0  0  0  0  0  0  0  0  0
    3.1234    5.2500    0.0000 C   0  0  0  0  0  0  0  0  0  0  0  0
    3.1234    6.7500    0.0000 O   0  0  0  0  0  0  0  0  0  0  0  0
    3.1234    2.2500    0.0000 N   0  0  0  0  0  0  0  0  0  0  0  0
    3.1234    0.7500    0.0000 H   0  0  0  0  0  0  0  0  0  0  0  0
    4.4224    4.5000    0.0000 C   0  0  0  0  0  0  0  0  0  0  0  0
    4.4224    3.0000    0.0000 C   0  0  0  0  0  0  0  0  0  0  0  0
    5.7215    5.2500    0.0000 O   0  0  0  0  0  0  0  0  0  0  0  0
    8.3195    5.2500    0.0000 O   0  0  0  0  0  0  0  0  0  0  0  0
    7.0205    4.5000    0.0000 C   0  0  0  0  0  0  0  0  0  0  0  0
    5.7215    2.2500    0.0000 C   0  0  0  0  0  0  0  0  0  0  0  0
    7.0205    3.0000    0.0000 N   0  0  0  0  0  0  0  0  0  0  0  0
    8.3195    2.2500    0.0000 C   0  0  0  0  0  0  0  0  0  0  0  0
  1  3  1  0  0  0  0
  1  2  2  0  0  0  0
  2  5  1  0  0  0  0
  3  4  2  0  0  0  0
  3  7  1  0  0  0  0
  5  8  1  0  0  0  0
  5  6  1  0  0  0  0
  7  9  1  0  0  0  0
  7  8  2  0  0  0  0
  8 12  1  0  0  0  0
  9 11  1  0  0  0  0
 10 11  2  0  0  0  0
 11 13  1  0  0  0  0
 13 14  1  0  0  0  0
M  END
