43805
 OpenBabel03021519512D

 13 13  0  0  0  0  0  0  0  0999 V2000
   -7.8373    0.7859    0.0000 N   0  0  0  0  0  0  0  0  0  0  0  0
   -5.8737   -0.6407    0.0000 N   0  0  0  0  0  0  0  0  0  0  0  0
   -6.6237    1.6675    0.0000 C   0  0  0  0  0  0  0  0  0  0  0  0
   -5.4102    0.7859    0.0000 C   0  0  0  0  0  0  0  0  0  0  0  0
   -7.3737   -0.6407    0.0000 C   0  0  0  0  0  0  0  0  0  0  0  0
   -6.6237    3.1675    0.0000 N   0  3  0  0  0  0  0  0  0  0  0  0
   -7.9228    3.9175    0.0000 O   0  5  0  0  0  0  0  0  0  0  0  0
   -5.3247    3.9175    0.0000 O   0  0  0  0  0  0  0  0  0  0  0  0
   -4.9921   -1.8542    0.0000 C   0  0  0  0  0  0  0  0  0  0  0  0
   -3.9836    1.2494    0.0000 N   0  0  0  0  0  0  0  0  0  0  0  0
   -2.8689    0.2457    0.0000 C   0  0  0  0  0  0  0  0  0  0  0  0
   -3.1808   -1.2215    0.0000 N   0  0  0  0  0  0  0  0  0  0  0  0
   -1.4423    0.7092    0.0000 N   0  0  0  0  0  0  0  0  0  0  0  0
  1  5  2  0  0  0  0
  1  3  1  0  0  0  0
  2  4  1  0  0  0  0
  2  5  1  0  0  0  0
  2  9  1  0  0  0  0
  3  4  2  0  0  0  0
  3  6  1  0  0  0  0
  4 10  1  0  0  0  0
  6  7  1  0  0  0  0
  6  8  2  0  0  0  0
 10 11  1  0  0  0  0
 11 12  1  0  0  0  0
 11 13  2  0  0  0  0
M  CHG  2   6   1   7  -1
M  END
