38490
 OpenBabel03021519512D

 17 18  0  0  0  0  0  0  0  0999 V2000
   -5.6562    2.2380    0.0000 S   0  0  0  0  0  0  0  0  0  0  0  0
   -5.6562   -0.1890    0.0000 N   0  0  0  0  0  0  0  0  0  0  0  0
   -8.3818    2.5245    0.0000 C   0  0  0  0  0  0  0  0  0  0  0  0
   -9.6809    1.7745    0.0000 C   0  0  0  0  0  0  0  0  0  0  0  0
   -7.0828    1.7745    0.0000 C   0  0  0  0  0  0  0  0  0  0  0  0
   -7.0828    0.2745    0.0000 C   0  0  0  0  0  0  0  0  0  0  0  0
   -9.6809    0.2745    0.0000 C   0  0  0  0  0  0  0  0  0  0  0  0
   -8.3818   -0.4755    0.0000 C   0  0  0  0  0  0  0  0  0  0  0  0
   -4.7745    1.0245    0.0000 C   0  0  0  0  0  0  0  0  0  0  0  0
   -3.2745    1.0245    0.0000 C   0  0  0  0  0  0  0  0  0  0  0  0
   -2.5245   -0.2745    0.0000 C   0  0  0  0  0  0  0  0  0  0  0  0
   -1.0245   -0.2745    0.0000 O   0  0  0  0  0  0  0  0  0  0  0  0
   -3.2745   -1.5736    0.0000 C   0  0  0  0  0  0  0  0  0  0  0  0
   -2.5245   -2.8726    0.0000 O   0  0  0  0  0  0  0  0  0  0  0  0
   -4.7745   -1.5736    0.0000 O   0  0  0  0  0  0  0  0  0  0  0  0
   -5.5245   -2.8726    0.0000 C   0  0  0  0  0  0  0  0  0  0  0  0
   -4.7745   -4.1716    0.0000 C   0  0  0  0  0  0  0  0  0  0  0  0
  1  5  1  0  0  0  0
  1  9  1  0  0  0  0
  2  9  2  0  0  0  0
  2  6  1  0  0  0  0
  3  4  2  0  0  0  0
  3  5  1  0  0  0  0
  4  7  1  0  0  0  0
  5  6  2  0  0  0  0
  6  8  1  0  0  0  0
  7  8  2  0  0  0  0
  9 10  1  0  0  0  0
 10 11  1  0  0  0  0
 11 12  2  0  0  0  0
 11 13  1  0  0  0  0
 13 14  2  0  0  0  0
 13 15  1  0  0  0  0
 15 16  1  0  0  0  0
 16 17  1  0  0  0  0
M  END
