13345
 OpenBabel03021519512D

 17 17  0  0  0  0  0  0  0  0999 V2000
   -8.5442   -0.7500    0.0000 C   0  0  0  0  0  0  0  0  0  0  0  0
   -9.8433   -1.5000    0.0000 C   0  0  0  0  0  0  0  0  0  0  0  0
   -7.2452   -1.5000    0.0000 C   0  0  0  0  0  0  0  0  0  0  0  0
   -7.2452   -3.0000    0.0000 C   0  0  0  0  0  0  0  0  0  0  0  0
   -9.8433   -3.0000    0.0000 C   0  0  0  0  0  0  0  0  0  0  0  0
   -8.5442   -3.7500    0.0000 C   0  0  0  0  0  0  0  0  0  0  0  0
   -5.9462   -0.7500    0.0000 N   0  0  0  0  0  0  0  0  0  0  0  0
   -5.9462    0.7500    0.0000 C   0  0  0  0  0  0  0  0  0  0  0  0
   -4.6471    1.5000    0.0000 O   0  0  0  0  0  0  0  0  0  0  0  0
   -7.2452    1.5000    0.0000 C   0  0  0  0  0  0  0  0  0  0  0  0
   -7.2452    3.0000    0.0000 S   0  0  0  0  0  0  0  0  0  0  0  0
   -5.9461    3.7500    0.0000 C   0  0  0  0  0  0  0  0  0  0  0  0
   -5.9461    5.2500    0.0000 O   0  0  0  0  0  0  0  0  0  0  0  0
   -4.6471    3.0000    0.0000 N   0  0  0  0  0  0  0  0  0  0  0  0
   -5.9462   -3.7500    0.0000 C   0  0  0  0  0  0  0  0  0  0  0  0
   -5.9462   -5.2500    0.0000 O   0  0  0  0  0  0  0  0  0  0  0  0
   -4.6471   -3.0000    0.0000 O   0  0  0  0  0  0  0  0  0  0  0  0
  1  2  2  0  0  0  0
  1  3  1  0  0  0  0
  2  5  1  0  0  0  0
  3  4  2  0  0  0  0
  3  7  1  0  0  0  0
  4  6  1  0  0  0  0
  4 15  1  0  0  0  0
  5  6  2  0  0  0  0
  7  8  1  0  0  0  0
  8  9  2  0  0  0  0
  8 10  1  0  0  0  0
 10 11  1  0  0  0  0
 11 12  1  0  0  0  0
 12 13  2  0  0  0  0
 12 14  1  0  0  0  0
 15 16  2  0  0  0  0
 15 17  1  0  0  0  0
M  END
