330770
 OpenBabel03021519512D

 24 26  0  0  0  0  0  0  0  0999 V2000
    2.0490    2.2500    0.0000 O   0  0  0  0  0  0  0  0  0  0  0  0
    3.3481    4.5000    0.0000 O   0  0  0  0  0  0  0  0  0  0  0  0
    3.3481    3.0000    0.0000 C   0  0  0  0  0  0  0  0  0  0  0  0
    5.9462    4.5000    0.0000 N   0  0  0  0  0  0  0  0  0  0  0  0
    5.9462    3.0000    0.0000 C   0  0  0  0  0  0  0  0  0  0  0  0
    7.2452    5.2500    0.0000 C   0  0  0  0  0  0  0  0  0  0  0  0
    7.2452    2.2500    0.0000 C   0  0  0  0  0  0  0  0  0  0  0  0
    8.5442    4.5000    0.0000 C   0  0  0  0  0  0  0  0  0  0  0  0
    8.5442    3.0000    0.0000 C   0  0  0  0  0  0  0  0  0  0  0  0
    9.8433    5.2500    0.0000 N   0  0  0  0  0  0  0  0  0  0  0  0
    9.8433    2.2500    0.0000 N   0  0  0  0  0  0  0  0  0  0  0  0
    9.8433    0.7500    0.0000 H   0  0  0  0  0  0  0  0  0  0  0  0
   11.1423    3.0000    0.0000 C   0  0  0  0  0  0  0  0  0  0  0  0
   11.1423    4.5000    0.0000 C   0  0  0  0  0  0  0  0  0  0  0  0
    0.7500    3.0000    0.0000 C   0  0  0  0  0  0  0  0  0  0  0  0
    0.7500    4.5000    0.0000 C   0  0  0  0  0  0  0  0  0  0  0  0
    4.6471    2.2500    0.0000 N   0  0  0  0  0  0  0  0  0  0  0  0
    7.2452    6.7500    0.0000 N   0  0  0  0  0  0  0  0  0  0  0  0
   12.4414    5.2500    0.0000 C   0  0  0  0  0  0  0  0  0  0  0  0
   12.4414    6.7500    0.0000 C   0  0  0  0  0  0  0  0  0  0  0  0
   13.7404    7.5000    0.0000 C   0  0  0  0  0  0  0  0  0  0  0  0
   15.0394    6.7500    0.0000 C   0  0  0  0  0  0  0  0  0  0  0  0
   15.0394    5.2500    0.0000 C   0  0  0  0  0  0  0  0  0  0  0  0
   13.7404    4.5000    0.0000 C   0  0  0  0  0  0  0  0  0  0  0  0
  1  3  1  0  0  0  0
  1 15  1  0  0  0  0
  2  3  2  0  0  0  0
  3 17  1  0  0  0  0
  4  6  1  0  0  0  0
  4  5  2  0  0  0  0
  5  7  1  0  0  0  0
  5 17  1  0  0  0  0
  6  8  2  0  0  0  0
  6 18  1  0  0  0  0
  7  9  2  0  0  0  0
  8 10  1  0  0  0  0
  8  9  1  0  0  0  0
  9 11  1  0  0  0  0
 10 14  2  0  0  0  0
 11 13  1  0  0  0  0
 11 12  1  0  0  0  0
 13 14  1  0  0  0  0
 14 19  1  0  0  0  0
 15 16  1  0  0  0  0
 19 20  2  0  0  0  0
 19 24  1  0  0  0  0
 20 21  1  0  0  0  0
 21 22  2  0  0  0  0
 22 23  1  0  0  0  0
 23 24  2  0  0  0  0
M  END
