34774
 OpenBabel03021519512D

 17 17  0  0  0  0  0  0  0  0999 V2000
    2.6016    3.7497    0.0000 S   0  0  0  0  0  0  0  0  0  0  0  0
    3.2806    0.5577    0.0000 H   0  0  0  0  0  0  0  0  0  0  0  0
    4.2841    1.6726    0.0000 N   0  0  0  0  0  0  0  0  0  0  0  0
    5.4276    5.3817    0.0000 H   0  0  0  0  0  0  0  0  0  0  0  0
    5.2710    3.8899    0.0000 N   0  0  0  0  0  0  0  0  0  0  0  0
    3.9720    3.1398    0.0000 C   0  0  0  0  0  0  0  0  0  0  0  0
    6.3858    2.8864    0.0000 C   0  0  0  0  0  0  0  0  0  0  0  0
    5.7759    1.5160    0.0000 C   0  0  0  0  0  0  0  0  0  0  0  0
    6.5261    0.2171    0.0000 C   0  0  0  0  0  0  0  0  0  0  0  0
    8.0261    0.2173    0.0000 O   0  0  0  0  0  0  0  0  0  0  0  0
    5.7763   -1.0821    0.0000 O   0  0  0  0  0  0  0  0  0  0  0  0
    4.2763   -1.0823    0.0000 C   0  0  0  0  0  0  0  0  0  0  0  0
    7.8530    3.1985    0.0000 C   0  0  0  0  0  0  0  0  0  0  0  0
    8.3163    4.6251    0.0000 C   0  0  0  0  0  0  0  0  0  0  0  0
    9.7835    4.9372    0.0000 O   0  0  0  0  0  0  0  0  0  0  0  0
    7.3125    5.7397    0.0000 O   0  0  0  0  0  0  0  0  0  0  0  0
    7.7758    7.1663    0.0000 C   0  0  0  0  0  0  0  0  0  0  0  0
  1  6  2  0  0  0  0
  2  3  1  0  0  0  0
  3  6  1  0  0  0  0
  3  8  1  0  0  0  0
  4  5  1  0  0  0  0
  5  6  1  0  0  0  0
  5  7  1  0  0  0  0
  7  8  2  0  0  0  0
  7 13  1  0  0  0  0
  8  9  1  0  0  0  0
  9 10  2  0  0  0  0
  9 11  1  0  0  0  0
 11 12  1  0  0  0  0
 13 14  1  0  0  0  0
 14 15  2  0  0  0  0
 14 16  1  0  0  0  0
 16 17  1  0  0  0  0
M  END
