73753
 OpenBabel03021519512D

 17 18  0  0  0  0  0  0  0  0999 V2000
   -1.9755    4.9216    0.0000 Cl  0  0  0  0  0  0  0  0  0  0  0  0
   -0.4755    4.9216    0.0000 C   0  0  0  0  0  0  0  0  0  0  0  0
    0.2745    6.2207    0.0000 C   0  0  0  0  0  0  0  0  0  0  0  0
    0.2745    3.6226    0.0000 C   0  0  0  0  0  0  0  0  0  0  0  0
    1.7745    6.2207    0.0000 C   0  0  0  0  0  0  0  0  0  0  0  0
    1.7745    3.6226    0.0000 C   0  0  0  0  0  0  0  0  0  0  0  0
    2.5245    2.3236    0.0000 Cl  0  0  0  0  0  0  0  0  0  0  0  0
    2.5245    4.9216    0.0000 C   0  0  0  0  0  0  0  0  0  0  0  0
    4.0245    4.9216    0.0000 O   0  0  0  0  0  0  0  0  0  0  0  0
    4.7745    6.2207    0.0000 C   0  0  0  0  0  0  0  0  0  0  0  0
    6.2745    6.2207    0.0000 C   0  0  0  0  0  0  0  0  0  0  0  0
    4.0245    7.5197    0.0000 C   0  0  0  0  0  0  0  0  0  0  0  0
    7.0245    7.5197    0.0000 N   0  0  0  0  0  0  0  0  0  0  0  0
    4.7745    8.8188    0.0000 N   0  0  0  0  0  0  0  0  0  0  0  0
    6.2745    8.8188    0.0000 C   0  0  0  0  0  0  0  0  0  0  0  0
    7.0245    4.9216    0.0000 O   0  0  0  0  0  0  0  0  0  0  0  0
    7.0245   10.1178    0.0000 S   0  0  0  0  0  0  0  0  0  0  0  0
  1  2  1  0  0  0  0
  2  3  2  0  0  0  0
  2  4  1  0  0  0  0
  3  5  1  0  0  0  0
  4  6  2  0  0  0  0
  5  8  2  0  0  0  0
  6  8  1  0  0  0  0
  6  7  1  0  0  0  0
  8  9  1  0  0  0  0
  9 10  1  0  0  0  0
 10 12  1  0  0  0  0
 10 11  2  0  0  0  0
 11 13  1  0  0  0  0
 11 16  1  0  0  0  0
 12 14  2  0  0  0  0
 13 15  2  0  0  0  0
 14 15  1  0  0  0  0
 15 17  1  0  0  0  0
M  END
