345647
 OpenBabel03021519512D

 40 45  0  0  1  0  0  0  0  0999 V2000
    4.6680    9.0000    0.0000 C   0  0  0  0  0  0  0  0  0  0  0  0
    4.6680    7.5000    0.0000 C   0  0  0  0  0  0  0  0  0  0  0  0
    4.6680    4.5000    0.0000 C   0  0  0  0  0  0  0  0  0  0  0  0
    4.6680    3.0000    0.0000 C   0  0  0  0  0  0  0  0  0  0  0  0
    5.9670    9.7500    0.0000 C   0  0  0  0  0  0  0  0  0  0  0  0
    5.9670    6.7500    0.0000 C   0  0  0  0  0  0  0  0  0  0  0  0
    5.9670    5.2500    0.0000 C   0  0  0  0  0  0  0  0  0  0  0  0
    5.9670    2.2500    0.0000 C   0  0  0  0  0  0  0  0  0  0  0  0
    7.2661    7.5000    0.0000 C   0  0  0  0  0  0  0  0  0  0  0  0
    7.2661    4.5000    0.0000 C   0  0  0  0  0  0  0  0  0  0  0  0
    7.2661    3.0000    0.0000 C   0  0  0  0  0  0  0  0  0  0  0  0
    7.2661    9.0000    0.0000 C   0  0  0  0  0  0  0  0  0  0  0  0
    8.5651    6.7500    0.0000 C   0  0  0  0  0  0  0  0  0  0  0  0
    8.5651    9.7500    0.0000 C   0  0  0  0  0  0  0  0  0  0  0  0
    8.5651    5.2500    0.0000 C   0  0  0  0  0  0  0  0  0  0  0  0
    8.5651    2.2500    0.0000 C   0  0  0  0  0  0  0  0  0  0  0  0
    9.8642    4.5000    0.0000 C   0  0  0  0  0  0  0  0  0  0  0  0
    9.8642    3.0000    0.0000 C   0  0  0  0  0  0  0  0  0  0  0  0
    9.8641    9.0000    0.0000 C   0  0  0  0  0  0  0  0  0  0  0  0
    9.8642    7.5000    0.0000 C   0  0  0  0  0  0  0  0  0  0  0  0
   11.1632    6.7500    0.0000 O   0  0  0  0  0  0  0  0  0  0  0  0
   11.1632    9.7500    0.0000 C   0  0  0  0  0  0  0  0  0  0  0  0
   11.1632    2.2500    0.0000 C   0  0  0  0  0  0  0  0  0  0  0  0
   11.1632   11.2500    0.0000 O   0  0  0  0  0  0  0  0  0  0  0  0
   11.1632    0.7500    0.0000 O   0  0  0  0  0  0  0  0  0  0  0  0
   11.1632    5.2500    0.0000 O   0  0  0  0  0  0  0  0  0  0  0  0
   12.4622    4.5000    0.0000 C   0  0  3  0  0  0  0  0  0  0  0  0
   12.4622    7.5000    0.0000 C   0  0  3  0  0  0  0  0  0  0  0  0
   12.4622    3.0000    0.0000 C   0  0  3  0  0  0  0  0  0  0  0  0
   12.4622    9.0000    0.0000 C   0  0  3  0  0  0  0  0  0  0  0  0
    3.3690    6.7500    0.0000 O   0  0  0  0  0  0  0  0  0  0  0  0
    3.3690    5.2500    0.0000 O   0  0  0  0  0  0  0  0  0  0  0  0
    5.9670   11.2500    0.0000 O   0  0  0  0  0  0  0  0  0  0  0  0
    5.9670    0.7500    0.0000 O   0  0  0  0  0  0  0  0  0  0  0  0
    8.5651   11.2500    0.0000 O   0  0  0  0  0  0  0  0  0  0  0  0
    8.5651    0.7500    0.0000 O   0  0  0  0  0  0  0  0  0  0  0  0
   13.7613    9.7500    0.0000 C   0  0  0  0  0  0  0  0  0  0  0  0
   13.7613    2.2500    0.0000 C   0  0  0  0  0  0  0  0  0  0  0  0
   13.7613    5.2500    0.0000 C   0  0  0  0  0  0  0  0  0  0  0  0
   13.7613    6.7500    0.0000 C   0  0  0  0  0  0  0  0  0  0  0  0
  1  5  2  0  0  0  0
  1  2  1  0  0  0  0
  2  6  2  0  0  0  0
  2 31  1  0  0  0  0
  3  7  2  0  0  0  0
  3  4  1  0  0  0  0
  3 32  1  0  0  0  0
  4  8  2  0  0  0  0
  5 12  1  0  0  0  0
  5 33  1  0  0  0  0
  6  9  1  0  0  0  0
  6  7  1  0  0  0  0
  7 10  1  0  0  0  0
  8 11  1  0  0  0  0
  8 34  1  0  0  0  0
  9 12  2  0  0  0  0
  9 13  1  0  0  0  0
 10 15  1  0  0  0  0
 10 11  2  0  0  0  0
 11 16  1  0  0  0  0
 12 14  1  0  0  0  0
 13 20  2  0  0  0  0
 14 19  2  0  0  0  0
 14 35  1  0  0  0  0
 15 17  2  0  0  0  0
 16 18  2  0  0  0  0
 16 36  1  0  0  0  0
 17 26  1  0  0  0  0
 17 18  1  0  0  0  0
 18 23  1  0  0  0  0
 19 22  1  0  0  0  0
 19 20  1  0  0  0  0
 20 21  1  0  0  0  0
 21 28  1  0  0  0  0
 22 24  2  0  0  0  0
 22 30  1  0  0  0  0
 23 29  1  0  0  0  0
 23 25  2  0  0  0  0
 26 27  1  0  0  0  0
 27 29  1  0  0  0  0
 27 39  1  0  0  0  0
 28 30  1  0  0  0  0
 28 40  1  0  0  0  0
 29 38  1  0  0  0  0
 30 37  1  0  0  0  0
M  END
