240502
 OpenBabel03021519512D

 14 14  0  0  0  0  0  0  0  0999 V2000
   -0.5138    4.0083    0.0000 C   0  0  0  0  0  0  0  0  0  0  0  0
   -0.0503    2.5817    0.0000 C   0  0  0  0  0  0  0  0  0  0  0  0
    0.6997    4.8900    0.0000 C   0  0  0  0  0  0  0  0  0  0  0  0
    4.1633    5.3074    0.0000 H   0  0  0  0  0  0  0  0  0  0  0  0
    1.9133    4.0083    0.0000 C   0  0  0  0  0  0  0  0  0  0  0  0
    1.4497    2.5817    0.0000 C   0  0  0  0  0  0  0  0  0  0  0  0
    2.6633    5.3074    0.0000 N   0  0  0  0  0  0  0  0  0  0  0  0
    2.6633    7.9054    0.0000 O   0  0  0  0  0  0  0  0  0  0  0  0
    1.9133    6.6064    0.0000 C   0  0  0  0  0  0  0  0  0  0  0  0
   -0.3367    7.9054    0.0000 Cl  0  0  0  0  0  0  0  0  0  0  0  0
    3.2836    3.3982    0.0000 C   0  0  0  0  0  0  0  0  0  0  0  0
    4.4971    4.2799    0.0000 O   0  0  0  0  0  0  0  0  0  0  0  0
    3.4404    1.9064    0.0000 O   0  0  0  0  0  0  0  0  0  0  0  0
    0.4133    6.6064    0.0000 C   0  0  0  0  0  0  0  0  0  0  0  0
  1  3  1  0  0  0  0
  1  2  1  0  0  0  0
  2  6  1  0  0  0  0
  3  5  1  0  0  0  0
  4  7  1  0  0  0  0
  5  7  1  0  0  0  0
  5  6  1  0  0  0  0
  5 11  1  0  0  0  0
  7  9  1  0  0  0  0
  8  9  2  0  0  0  0
  9 14  1  0  0  0  0
 10 14  1  0  0  0  0
 11 12  2  0  0  0  0
 11 13  1  0  0  0  0
M  END
