7572
 OpenBabel03021519512D

 19 20  0  0  0  0  0  0  0  0999 V2000
   -1.5736    9.2745    0.0000 C   0  0  0  0  0  0  0  0  0  0  0  0
   -1.5736   10.7745    0.0000 C   0  0  0  0  0  0  0  0  0  0  0  0
   -0.2745    8.5245    0.0000 C   0  0  0  0  0  0  0  0  0  0  0  0
   -0.2745   11.5245    0.0000 C   0  0  0  0  0  0  0  0  0  0  0  0
    1.0245    9.2745    0.0000 C   0  0  0  0  0  0  0  0  0  0  0  0
    1.0245   10.7745    0.0000 C   0  0  0  0  0  0  0  0  0  0  0  0
   -2.8726    7.0245    0.0000 C   0  0  0  0  0  0  0  0  0  0  0  0
   -4.1716    6.2745    0.0000 C   0  0  0  0  0  0  0  0  0  0  0  0
   -1.5736    6.2745    0.0000 C   0  0  0  0  0  0  0  0  0  0  0  0
   -1.5736    4.7745    0.0000 C   0  0  0  0  0  0  0  0  0  0  0  0
   -4.1716    4.7745    0.0000 C   0  0  0  0  0  0  0  0  0  0  0  0
   -2.8726    4.0245    0.0000 C   0  0  0  0  0  0  0  0  0  0  0  0
   -5.4707    4.0245    0.0000 N   0  0  0  0  0  0  0  0  0  0  0  0
   -0.2745    4.0245    0.0000 S   0  0  0  0  0  0  0  0  0  0  0  0
   -1.0245    2.7255    0.0000 O   0  0  0  0  0  0  0  0  0  0  0  0
    0.4755    5.3236    0.0000 O   0  0  0  0  0  0  0  0  0  0  0  0
    1.0245    3.2745    0.0000 O   0  0  0  0  0  0  0  0  0  0  0  0
   -0.2745    7.0245    0.0000 N   0  0  0  0  0  0  0  0  0  0  0  0
   -0.2745   13.0245    0.0000 C   0  0  0  0  0  0  0  0  0  0  0  0
  1  2  2  0  0  0  0
  1  3  1  0  0  0  0
  2  4  1  0  0  0  0
  3  5  2  0  0  0  0
  3 18  1  0  0  0  0
  4  6  2  0  0  0  0
  4 19  1  0  0  0  0
  5  6  1  0  0  0  0
  7  8  2  0  0  0  0
  7  9  1  0  0  0  0
  8 11  1  0  0  0  0
  9 10  2  0  0  0  0
  9 18  1  0  0  0  0
 10 12  1  0  0  0  0
 10 14  1  0  0  0  0
 11 12  2  0  0  0  0
 11 13  1  0  0  0  0
 14 15  2  0  0  0  0
 14 16  2  0  0  0  0
 14 17  1  0  0  0  0
M  END
