269904
 OpenBabel03021519512D

 19 20  0  0  0  0  0  0  0  0999 V2000
   -3.2691   -1.3191    0.0000 N   0  0  0  0  0  0  0  0  0  0  0  0
   -2.6124    0.0296    0.0000 C   0  0  0  0  0  0  0  0  0  0  0  0
   -2.1894   -2.3603    0.0000 C   0  0  0  0  0  0  0  0  0  0  0  0
   -1.1269   -0.1782    0.0000 N   0  0  0  0  0  0  0  0  0  0  0  0
   -0.8654   -1.6552    0.0000 C   0  0  0  0  0  0  0  0  0  0  0  0
    1.4108    0.7979    0.0000 C   0  0  0  0  0  0  0  0  0  0  0  0
    1.5903    3.3898    0.0000 Cl  0  0  0  0  0  0  0  0  0  0  0  0
    1.2313   -1.7940    0.0000 Cl  0  0  0  0  0  0  0  0  0  0  0  0
    2.0693   -0.5499    0.0000 C   0  0  0  0  0  0  0  0  0  0  0  0
    2.2487    2.0420    0.0000 C   0  0  0  0  0  0  0  0  0  0  0  0
    3.7452    1.9384    0.0000 C   0  0  0  0  0  0  0  0  0  0  0  0
    3.5657   -0.6535    0.0000 C   0  0  0  0  0  0  0  0  0  0  0  0
    4.4036    0.5906    0.0000 C   0  0  0  0  0  0  0  0  0  0  0  0
   -3.3175    1.3535    0.0000 C   0  0  0  0  0  0  0  0  0  0  0  0
   -4.8167    1.4048    0.0000 C   0  0  0  0  0  0  0  0  0  0  0  0
   -2.5235    2.6261    0.0000 C   0  0  0  0  0  0  0  0  0  0  0  0
    0.3487   -2.5361    0.0000 C   0  0  0  0  0  0  0  0  0  0  0  0
   -0.0856    0.9015    0.0000 C   0  0  0  0  0  0  0  0  0  0  0  0
    0.1929   -4.0280    0.0000 O   0  0  0  0  0  0  0  0  0  0  0  0
  1  2  2  0  0  0  0
  1  3  1  0  0  0  0
  2  4  1  0  0  0  0
  2 14  1  0  0  0  0
  3  5  2  0  0  0  0
  4  5  1  0  0  0  0
  4 18  1  0  0  0  0
  5 17  1  0  0  0  0
  6 10  2  0  0  0  0
  6  9  1  0  0  0  0
  6 18  1  0  0  0  0
  7 10  1  0  0  0  0
  8  9  1  0  0  0  0
  9 12  2  0  0  0  0
 10 11  1  0  0  0  0
 11 13  2  0  0  0  0
 12 13  1  0  0  0  0
 14 15  1  0  0  0  0
 14 16  1  0  0  0  0
 17 19  1  0  0  0  0
M  END
