45719
 OpenBabel03021519512D

 11 11  0  0  0  0  0  0  0  0999 V2000
   -8.3195   -2.2500    0.0000 Cl  0  0  0  0  0  0  0  0  0  0  0  0
   -5.7215   -0.7500    0.0000 H   0  0  0  0  0  0  0  0  0  0  0  0
   -5.7215   -2.2500    0.0000 N   0  0  0  0  0  0  0  0  0  0  0  0
   -5.7215   -6.7500    0.0000 O   0  0  0  0  0  0  0  0  0  0  0  0
   -4.4224   -4.5000    0.0000 N   0  0  0  0  0  0  0  0  0  0  0  0
   -7.0205   -3.0000    0.0000 C   0  0  0  0  0  0  0  0  0  0  0  0
   -7.0205   -4.5000    0.0000 C   0  0  0  0  0  0  0  0  0  0  0  0
   -5.7215   -5.2500    0.0000 C   0  0  0  0  0  0  0  0  0  0  0  0
   -4.4224   -3.0000    0.0000 C   0  0  0  0  0  0  0  0  0  0  0  0
   -3.1234   -2.2500    0.0000 S   0  0  0  0  0  0  0  0  0  0  0  0
   -1.8243   -3.0000    0.0000 C   0  0  0  0  0  0  0  0  0  0  0  0
  1  6  1  0  0  0  0
  2  3  1  0  0  0  0
  3  6  1  0  0  0  0
  3  9  1  0  0  0  0
  4  8  2  0  0  0  0
  5  9  2  0  0  0  0
  5  8  1  0  0  0  0
  6  7  2  0  0  0  0
  7  8  1  0  0  0  0
  9 10  1  0  0  0  0
 10 11  1  0  0  0  0
M  END
