122376
 OpenBabel03021519512D

 17 19  0  0  1  0  0  0  0  0999 V2000
   -3.4194   -0.9598    0.0000 O   0  0  0  0  0  0  0  0  0  0  0  0
   -0.7500   -1.0997    0.0000 O   0  0  0  0  0  0  0  0  0  0  0  0
   -7.1321   -1.9635    0.0000 C   0  0  0  0  0  0  0  0  0  0  0  0
   -8.4312   -2.7135    0.0000 C   0  0  0  0  0  0  0  0  0  0  0  0
   -5.8331   -2.7135    0.0000 C   0  0  0  0  0  0  0  0  0  0  0  0
   -9.7302   -1.9635    0.0000 C   0  0  0  0  0  0  0  0  0  0  0  0
  -11.0293   -2.7135    0.0000 C   0  0  0  0  0  0  0  0  0  0  0  0
   -4.5341   -1.9635    0.0000 C   0  0  3  0  0  0  0  0  0  0  0  0
   -3.9240   -3.3338    0.0000 C   0  0  0  0  0  0  0  0  0  0  0  0
   -5.8331   -4.2135    0.0000 C   0  0  0  0  0  0  0  0  0  0  0  0
   -8.4312   -4.2135    0.0000 C   0  0  0  0  0  0  0  0  0  0  0  0
  -11.0293   -4.2135    0.0000 C   0  0  0  0  0  0  0  0  0  0  0  0
   -2.4322   -3.1771    0.0000 C   0  0  0  0  0  0  0  0  0  0  0  0
   -2.1203   -1.7098    0.0000 C   0  0  0  0  0  0  0  0  0  0  0  0
   -7.1321   -4.9635    0.0000 C   0  0  0  0  0  0  0  0  0  0  0  0
   -9.7302   -4.9635    0.0000 C   0  0  0  0  0  0  0  0  0  0  0  0
   -5.4158   -0.7500    0.0000 C   0  0  0  0  0  0  0  0  0  0  0  0
  1  8  1  0  0  0  0
  1 14  1  0  0  0  0
  2 14  2  0  0  0  0
  3  5  2  0  0  0  0
  3  4  1  0  0  0  0
  4 11  2  0  0  0  0
  4  6  1  0  0  0  0
  5  8  1  0  0  0  0
  5 10  1  0  0  0  0
  6  7  2  0  0  0  0
  7 12  1  0  0  0  0
  8  9  1  0  0  0  0
  8 17  1  0  0  0  0
  9 13  1  0  0  0  0
 10 15  2  0  0  0  0
 11 15  1  0  0  0  0
 11 16  1  0  0  0  0
 12 16  2  0  0  0  0
 13 14  1  0  0  0  0
M  END
