89821
 OpenBabel03021519512D

 29 31  0  0  0  0  0  0  0  0999 V2000
   -5.5497    0.6611    0.0000 O   0  0  0  0  0  0  0  0  0  0  0  0
   -3.2742    1.5051    0.0000 O   0  0  0  0  0  0  0  0  0  0  0  0
   -6.1428   -1.3556    0.0000 Cl  0  0  0  0  0  0  0  0  0  0  0  0
    4.7722    3.7757    0.0000 H   0  0  0  0  0  0  0  0  0  0  0  0
    3.5050    2.9730    0.0000 N   0  0  0  0  0  0  0  0  0  0  0  0
   -0.2966    0.5652    0.0000 O   0  0  0  0  0  0  0  0  0  0  0  0
    0.9091    2.8665    0.0000 N   0  0  0  0  0  0  0  0  0  0  0  0
    3.5665    1.4743    0.0000 C   0  0  0  0  0  0  0  0  0  0  0  0
    2.2993    0.6717    0.0000 C   0  0  0  0  0  0  0  0  0  0  0  0
    0.9706    1.3678    0.0000 C   0  0  0  0  0  0  0  0  0  0  0  0
    2.1763    3.6692    0.0000 C   0  0  0  0  0  0  0  0  0  0  0  0
    1.2522   -1.8375    0.0000 C   0  0  0  0  0  0  0  0  0  0  0  0
   -0.1772   -1.3827    0.0000 C   0  0  0  0  0  0  0  0  0  0  0  0
    1.5730   -3.3028    0.0000 C   0  0  0  0  0  0  0  0  0  0  0  0
    0.4645   -4.3133    0.0000 C   0  0  0  0  0  0  0  0  0  0  0  0
   -1.2857   -2.3932    0.0000 C   0  0  0  0  0  0  0  0  0  0  0  0
   -0.9649   -3.8585    0.0000 C   0  0  0  0  0  0  0  0  0  0  0  0
   -4.1053    0.2564    0.0000 C   0  0  0  0  0  0  0  0  0  0  0  0
   -5.6112    2.1598    0.0000 C   0  0  0  0  0  0  0  0  0  0  0  0
   -4.2048    2.6815    0.0000 C   0  0  0  0  0  0  0  0  0  0  0  0
   -4.6587   -1.1377    0.0000 C   0  0  0  0  0  0  0  0  0  0  0  0
   -2.7766   -0.4397    0.0000 C   0  0  0  0  0  0  0  0  0  0  0  0
   -2.7151   -1.9384    0.0000 C   0  0  0  0  0  0  0  0  0  0  0  0
    3.0024   -3.7576    0.0000 N   0  0  0  0  0  0  0  0  0  0  0  0
    4.1110   -2.7472    0.0000 C   0  0  0  0  0  0  0  0  0  0  0  0
    3.7902   -1.2819    0.0000 C   0  0  0  0  0  0  0  0  0  0  0  0
    2.3608   -0.8271    0.0000 C   0  0  0  0  0  0  0  0  0  0  0  0
    4.8952    0.7782    0.0000 C   0  0  0  0  0  0  0  0  0  0  0  0
    2.1148    5.1679    0.0000 N   0  0  0  0  0  0  0  0  0  0  0  0
  1 18  1  0  0  0  0
  1 19  1  0  0  0  0
  2 18  1  0  0  0  0
  2 20  1  0  0  0  0
  3 21  1  0  0  0  0
  4  5  1  0  0  0  0
  5  8  1  0  0  0  0
  5 11  1  0  0  0  0
  6 10  2  0  0  0  0
  7 11  2  0  0  0  0
  7 10  1  0  0  0  0
  8  9  2  0  0  0  0
  8 28  1  0  0  0  0
  9 10  1  0  0  0  0
  9 27  1  0  0  0  0
 11 29  1  0  0  0  0
 12 14  2  0  0  0  0
 12 13  1  0  0  0  0
 13 16  2  0  0  0  0
 14 15  1  0  0  0  0
 14 24  1  0  0  0  0
 15 17  2  0  0  0  0
 16 17  1  0  0  0  0
 16 23  1  0  0  0  0
 18 21  1  0  0  0  0
 18 22  1  0  0  0  0
 19 20  1  0  0  0  0
 22 23  1  0  0  0  0
 24 25  1  0  0  0  0
 25 26  1  0  0  0  0
 26 27  1  0  0  0  0
M  END
