143491
 OpenBabel03021519512D

 40 43  0  0  1  0  0  0  0  0999 V2000
  -11.1423   -7.0586    0.0000 O   0  0  0  0  0  0  0  0  0  0  0  0
  -11.1423   -1.0586    0.0000 O   0  0  0  0  0  0  0  0  0  0  0  0
   -4.6471   -9.3086    0.0000 O   0  0  0  0  0  0  0  0  0  0  0  0
   -5.9461   -7.0586    0.0000 O   0  0  0  0  0  0  0  0  0  0  0  0
   -8.5442   -2.5586    0.0000 C   0  0  0  0  0  0  0  0  0  0  0  0
   -9.8433   -3.3086    0.0000 C   0  0  0  0  0  0  0  0  0  0  0  0
   -7.2452   -3.3086    0.0000 C   0  0  0  0  0  0  0  0  0  0  0  0
   -5.9462   -2.5586    0.0000 C   0  0  0  0  0  0  0  0  0  0  0  0
   -4.6471   -3.3086    0.0000 C   0  0  2  0  0  0  0  0  0  0  0  0
  -11.1423   -2.5586    0.0000 C   0  0  0  0  0  0  0  0  0  0  0  0
  -12.4413   -3.3086    0.0000 C   0  0  0  0  0  0  0  0  0  0  0  0
  -13.7404   -2.5586    0.0000 C   0  0  0  0  0  0  0  0  0  0  0  0
  -15.0394   -3.3086    0.0000 C   0  0  0  0  0  0  0  0  0  0  0  0
   -4.6471   -4.8086    0.0000 C   0  0  0  0  0  0  0  0  0  0  0  0
   -7.2452   -4.8086    0.0000 C   0  0  0  0  0  0  0  0  0  0  0  0
   -9.8433   -4.8086    0.0000 C   0  0  0  0  0  0  0  0  0  0  0  0
  -12.4413   -4.8086    0.0000 C   0  0  0  0  0  0  0  0  0  0  0  0
  -15.0394   -4.8086    0.0000 C   0  0  0  0  0  0  0  0  0  0  0  0
   -5.9461   -5.5586    0.0000 C   0  0  1  0  0  0  0  0  0  0  0  0
   -8.5442   -5.5586    0.0000 C   0  0  0  0  0  0  0  0  0  0  0  0
  -11.1423   -5.5586    0.0000 C   0  0  0  0  0  0  0  0  0  0  0  0
  -13.7404   -5.5586    0.0000 C   0  0  0  0  0  0  0  0  0  0  0  0
   -3.3481  -10.0586    0.0000 C   0  0  3  0  0  0  0  0  0  0  0  0
   -2.0490   -9.3086    0.0000 C   0  0  3  0  0  0  0  0  0  0  0  0
   -2.0490   -7.8086    0.0000 C   0  0  3  0  0  0  0  0  0  0  0  0
   -3.3481   -7.0586    0.0000 C   0  0  0  0  0  0  0  0  0  0  0  0
   -4.6471   -7.8086    0.0000 C   0  0  3  0  0  0  0  0  0  0  0  0
  -13.7404   -7.0586    0.0000 O   0  0  0  0  0  0  0  0  0  0  0  0
  -15.0394   -7.8086    0.0000 C   0  0  0  0  0  0  0  0  0  0  0  0
   -0.7500  -10.0586    0.0000 O   0  0  0  0  0  0  0  0  0  0  0  0
   -8.5442   -7.0586    0.0000 O   0  0  0  0  0  0  0  0  0  0  0  0
   -8.5442   -1.0586    0.0000 O   0  0  0  0  0  0  0  0  0  0  0  0
   -3.3481   -8.5586    0.0000 C   0  0  0  0  0  0  0  0  0  0  0  0
   -0.7500   -7.0586    0.0000 N   0  0  0  0  0  0  0  0  0  0  0  0
   -4.1341   -1.8991    0.0000 C   0  0  0  0  0  0  0  0  0  0  0  0
   -2.6569   -1.6386    0.0000 C   0  0  0  0  0  0  0  0  0  0  0  0
   -3.1699   -3.5691    0.0000 O   0  0  0  0  0  0  0  0  0  0  0  0
   -5.0983   -0.7500    0.0000 N   0  0  0  0  0  0  0  0  0  0  0  0
   -6.5755   -1.0105    0.0000 O   0  0  0  0  0  0  0  0  0  0  0  0
   -7.8947  -11.5586    0.0000 Cl  0  0  0  0  0  0  0  0  0  0  0  0
  1 21  2  0  0  0  0
  2 10  2  0  0  0  0
  3 23  1  0  0  0  0
  3 27  1  0  0  0  0
  4 27  1  0  0  0  0
  5  7  2  0  0  0  0
  5  6  1  0  0  0  0
  5 32  1  0  0  0  0
  6 16  2  0  0  0  0
  6 10  1  0  0  0  0
  7  8  1  0  0  0  0
  7 15  1  0  0  0  0
  8  9  1  0  0  0  0
  9 14  1  0  0  0  0
  9 35  1  1  0  0  0
  9 37  1  0  0  0  0
 10 11  1  0  0  0  0
 11 17  2  0  0  0  0
 11 12  1  0  0  0  0
 12 13  2  0  0  0  0
 13 18  1  0  0  0  0
 14 19  1  0  0  0  0
 15 20  2  0  0  0  0
 15 19  1  0  0  0  0
 16 20  1  0  0  0  0
 16 21  1  0  0  0  0
 17 22  1  0  0  0  0
 17 21  1  0  0  0  0
 18 22  2  0  0  0  0
 19  4  1  6  0  0  0
 20 31  1  0  0  0  0
 22 28  1  0  0  0  0
 23 24  1  0  0  0  0
 23 33  1  0  0  0  0
 24 25  1  0  0  0  0
 24 30  1  0  0  0  0
 25 26  1  0  0  0  0
 25 34  1  0  0  0  0
 26 27  1  0  0  0  0
 28 29  1  0  0  0  0
 35 36  1  0  0  0  0
 35 38  2  0  0  0  0
 38 39  1  0  0  0  0
M  END
