660151
 OpenBabel03021519512D

 21 22  0  0  0  0  0  0  0  0999 V2000
    2.1979    2.3068    0.0000 C   0  0  0  0  0  0  0  0  0  0  0  0
    3.4969    3.0568    0.0000 C   0  0  0  0  0  0  0  0  0  0  0  0
    4.7959    2.3068    0.0000 C   0  0  0  0  0  0  0  0  0  0  0  0
    4.7959    0.8068    0.0000 C   0  0  0  0  0  0  0  0  0  0  0  0
    3.4969    0.0568    0.0000 C   0  0  0  0  0  0  0  0  0  0  0  0
    2.1979    0.8068    0.0000 C   0  0  0  0  0  0  0  0  0  0  0  0
    6.2225    2.7703    0.0000 N   0  0  0  0  0  0  0  0  0  0  0  0
    7.1042    1.5568    0.0000 C   0  0  0  0  0  0  0  0  0  0  0  0
    6.2225    0.3433    0.0000 C   0  0  0  0  0  0  0  0  0  0  0  0
    6.6861   -1.0833    0.0000 C   0  0  0  0  0  0  0  0  0  0  0  0
    8.1533   -1.3952    0.0000 C   0  0  0  0  0  0  0  0  0  0  0  0
    9.1570   -0.2804    0.0000 C   0  0  0  0  0  0  0  0  0  0  0  0
   10.1607    0.8343    0.0000 N   0  0  0  0  0  0  0  0  0  0  0  0
    8.6168   -2.8217    0.0000 P   0  0  0  0  0  0  0  0  0  0  0  0
    7.1902   -3.2853    0.0000 O   0  0  0  0  0  0  0  0  0  0  0  0
    9.0803   -4.2483    0.0000 O   0  0  0  0  0  0  0  0  0  0  0  0
   10.0434   -2.3582    0.0000 O   0  0  0  0  0  0  0  0  0  0  0  0
   11.1581   -3.3619    0.0000 C   0  0  0  0  0  0  0  0  0  0  0  0
   12.5847   -2.8984    0.0000 C   0  0  0  0  0  0  0  0  0  0  0  0
    8.0767   -5.3630    0.0000 C   0  0  0  0  0  0  0  0  0  0  0  0
    6.6094   -5.0512    0.0000 C   0  0  0  0  0  0  0  0  0  0  0  0
  1  2  2  0  0  0  0
  1  6  1  0  0  0  0
  2  3  1  0  0  0  0
  3  4  2  0  0  0  0
  3  7  1  0  0  0  0
  4  5  1  0  0  0  0
  4  9  1  0  0  0  0
  5  6  2  0  0  0  0
  7  8  1  0  0  0  0
  8  9  2  0  0  0  0
  9 10  1  0  0  0  0
 10 11  2  0  0  0  0
 11 12  1  0  0  0  0
 11 14  1  0  0  0  0
 12 13  3  0  0  0  0
 14 15  2  0  0  0  0
 14 16  1  0  0  0  0
 14 17  1  0  0  0  0
 16 20  1  0  0  0  0
 17 18  1  0  0  0  0
 18 19  1  0  0  0  0
 20 21  1  0  0  0  0
M  END
