87084
 OpenBabel03021519512D

 23 25  0  0  1  0  0  0  0  0999 V2000
   -8.6562    2.2380    0.0000 S   0  0  0  0  0  0  0  0  0  0  0  0
   -8.6562   -0.1890    0.0000 N   0  0  0  0  0  0  0  0  0  0  0  0
   -3.2745   -1.5736    0.0000 C   0  0  0  0  0  0  0  0  0  0  0  0
   -4.0245   -2.8726    0.0000 C   0  0  0  0  0  0  0  0  0  0  0  0
   -4.0245   -0.2745    0.0000 C   0  0  0  0  0  0  0  0  0  0  0  0
   -5.5245   -2.8726    0.0000 C   0  0  0  0  0  0  0  0  0  0  0  0
   -5.5245   -0.2745    0.0000 C   0  0  0  0  0  0  0  0  0  0  0  0
   -6.2745   -1.5736    0.0000 C   0  0  0  0  0  0  0  0  0  0  0  0
  -11.3818    2.5245    0.0000 C   0  0  0  0  0  0  0  0  0  0  0  0
  -10.0828    1.7745    0.0000 C   0  0  0  0  0  0  0  0  0  0  0  0
  -12.6809    1.7745    0.0000 C   0  0  0  0  0  0  0  0  0  0  0  0
  -10.0828    0.2745    0.0000 C   0  0  0  0  0  0  0  0  0  0  0  0
  -12.6809    0.2745    0.0000 C   0  0  0  0  0  0  0  0  0  0  0  0
  -11.3818   -0.4755    0.0000 C   0  0  0  0  0  0  0  0  0  0  0  0
   -7.7745    1.0245    0.0000 C   0  0  0  0  0  0  0  0  0  0  0  0
   -6.2745    1.0245    0.0000 C   0  0  3  0  0  0  0  0  0  0  0  0
   -5.5245    2.3235    0.0000 O   0  0  0  0  0  0  0  0  0  0  0  0
   -1.7745   -1.5736    0.0000 O   0  0  0  0  0  0  0  0  0  0  0  0
   -1.0245   -0.2745    0.0000 C   0  0  0  0  0  0  0  0  0  0  0  0
   -6.2745   -4.1716    0.0000 O   0  0  0  0  0  0  0  0  0  0  0  0
   -5.5245   -5.4707    0.0000 C   0  0  0  0  0  0  0  0  0  0  0  0
   -3.2745   -4.1716    0.0000 O   0  0  0  0  0  0  0  0  0  0  0  0
   -4.0245   -5.4707    0.0000 C   0  0  0  0  0  0  0  0  0  0  0  0
  1 10  1  0  0  0  0
  1 15  1  0  0  0  0
  2 15  2  0  0  0  0
  2 12  1  0  0  0  0
  3  4  2  0  0  0  0
  3  5  1  0  0  0  0
  3 18  1  0  0  0  0
  4  6  1  0  0  0  0
  4 22  1  0  0  0  0
  5  7  2  0  0  0  0
  6  8  2  0  0  0  0
  6 20  1  0  0  0  0
  7  8  1  0  0  0  0
  7 16  1  0  0  0  0
  9 11  2  0  0  0  0
  9 10  1  0  0  0  0
 10 12  2  0  0  0  0
 11 13  1  0  0  0  0
 12 14  1  0  0  0  0
 13 14  2  0  0  0  0
 15 16  1  0  0  0  0
 16 17  1  0  0  0  0
 18 19  1  0  0  0  0
 20 21  1  0  0  0  0
 22 23  1  0  0  0  0
M  END
