36317
 OpenBabel03021519512D

 28 30  0  0  0  0  0  0  0  0999 V2000
    6.7697    7.7745    0.0000 N   0  0  0  0  0  0  0  0  0  0  0  0
    9.3678    9.2745    0.0000 N   0  0  0  0  0  0  0  0  0  0  0  0
   13.2649   11.5245    0.0000 C   0  0  0  0  0  0  0  0  0  0  0  0
   14.5639   12.2745    0.0000 C   0  0  0  0  0  0  0  0  0  0  0  0
   13.2649   10.0245    0.0000 C   0  0  0  0  0  0  0  0  0  0  0  0
   15.8630   11.5245    0.0000 C   0  0  0  0  0  0  0  0  0  0  0  0
   14.5639    9.2745    0.0000 C   0  0  0  0  0  0  0  0  0  0  0  0
   15.8630   10.0245    0.0000 C   0  0  0  0  0  0  0  0  0  0  0  0
    8.0687   10.0245    0.0000 C   0  0  0  0  0  0  0  0  0  0  0  0
    6.7697    9.2745    0.0000 C   0  0  0  0  0  0  0  0  0  0  0  0
    9.3678    7.7745    0.0000 C   0  0  0  0  0  0  0  0  0  0  0  0
    8.0687    7.0245    0.0000 C   0  0  0  0  0  0  0  0  0  0  0  0
    2.8726    5.5245    0.0000 C   0  0  0  0  0  0  0  0  0  0  0  0
    1.5736    4.7745    0.0000 C   0  0  0  0  0  0  0  0  0  0  0  0
    4.1716    4.7745    0.0000 C   0  0  0  0  0  0  0  0  0  0  0  0
    4.1716    3.2745    0.0000 C   0  0  0  0  0  0  0  0  0  0  0  0
    1.5736    3.2745    0.0000 C   0  0  0  0  0  0  0  0  0  0  0  0
    2.8726    2.5245    0.0000 C   0  0  0  0  0  0  0  0  0  0  0  0
    0.2745    2.5245    0.0000 O   0  0  0  0  0  0  0  0  0  0  0  0
   -1.0245    3.2745    0.0000 C   0  0  0  0  0  0  0  0  0  0  0  0
    5.4707    5.5245    0.0000 N   0  0  0  0  0  0  0  0  0  0  0  0
    5.4707    7.0245    0.0000 C   0  0  0  0  0  0  0  0  0  0  0  0
    4.1716    7.7745    0.0000 O   0  0  0  0  0  0  0  0  0  0  0  0
   10.6668   10.0245    0.0000 C   0  0  0  0  0  0  0  0  0  0  0  0
   10.6668   11.5245    0.0000 O   0  0  0  0  0  0  0  0  0  0  0  0
   11.9659    9.2745    0.0000 N   0  0  0  0  0  0  0  0  0  0  0  0
   17.1620   12.2745    0.0000 O   0  0  0  0  0  0  0  0  0  0  0  0
   17.1620   13.7745    0.0000 C   0  0  0  0  0  0  0  0  0  0  0  0
  1 10  1  0  0  0  0
  1 12  1  0  0  0  0
  1 22  1  0  0  0  0
  2  9  1  0  0  0  0
  2 11  1  0  0  0  0
  2 24  1  0  0  0  0
  3  4  2  0  0  0  0
  3  5  1  0  0  0  0
  4  6  1  0  0  0  0
  5  7  2  0  0  0  0
  5 26  1  0  0  0  0
  6  8  2  0  0  0  0
  6 27  1  0  0  0  0
  7  8  1  0  0  0  0
  9 10  1  0  0  0  0
 11 12  1  0  0  0  0
 13 14  2  0  0  0  0
 13 15  1  0  0  0  0
 14 17  1  0  0  0  0
 15 16  2  0  0  0  0
 15 21  1  0  0  0  0
 16 18  1  0  0  0  0
 17 18  2  0  0  0  0
 17 19  1  0  0  0  0
 19 20  1  0  0  0  0
 21 22  1  0  0  0  0
 22 23  2  0  0  0  0
 24 25  2  0  0  0  0
 24 26  1  0  0  0  0
 27 28  1  0  0  0  0
M  END
