216623
 OpenBabel03021519512D

 21 22  0  0  0  0  0  0  0  0999 V2000
  -10.2319    7.0264    0.0000 C   0  0  0  0  0  0  0  0  0  0  0  0
   -9.9449    8.4987    0.0000 C   0  0  0  0  0  0  0  0  0  0  0  0
   -9.1004    6.0417    0.0000 C   0  0  0  0  0  0  0  0  0  0  0  0
   -8.5263    8.9862    0.0000 C   0  0  0  0  0  0  0  0  0  0  0  0
   -7.6819    6.5292    0.0000 C   0  0  0  0  0  0  0  0  0  0  0  0
   -7.3948    8.0015    0.0000 C   0  0  0  0  0  0  0  0  0  0  0  0
   -4.1922    4.4758    0.0000 C   0  0  0  0  0  0  0  0  0  0  0  0
   -5.5045    3.7493    0.0000 C   0  0  0  0  0  0  0  0  0  0  0  0
   -2.9068    3.7025    0.0000 C   0  0  0  0  0  0  0  0  0  0  0  0
   -5.5315    2.2495    0.0000 C   0  0  0  0  0  0  0  0  0  0  0  0
   -2.9339    2.2027    0.0000 C   0  0  0  0  0  0  0  0  0  0  0  0
   -4.2462    1.4763    0.0000 C   0  0  0  0  0  0  0  0  0  0  0  0
  -11.6505    6.5388    0.0000 C   0  0  0  0  0  0  0  0  0  0  0  0
  -12.7820    7.5236    0.0000 O   0  0  0  0  0  0  0  0  0  0  0  0
  -11.9375    5.0666    0.0000 N   0  0  0  0  0  0  0  0  0  0  0  0
   -9.3875    4.5694    0.0000 N   0  0  0  0  0  0  0  0  0  0  0  0
   -8.1022    3.7961    0.0000 C   0  0  0  0  0  0  0  0  0  0  0  0
   -8.1292    2.2963    0.0000 O   0  0  0  0  0  0  0  0  0  0  0  0
   -6.7898    4.5226    0.0000 N   0  0  0  0  0  0  0  0  0  0  0  0
   -4.2732   -0.0235    0.0000 S   0  0  0  0  0  0  0  0  0  0  0  0
   -2.9879   -0.7968    0.0000 C   0  0  0  0  0  0  0  0  0  0  0  0
  1  3  2  0  0  0  0
  1  2  1  0  0  0  0
  1 13  1  0  0  0  0
  2  4  2  0  0  0  0
  3  5  1  0  0  0  0
  3 16  1  0  0  0  0
  4  6  1  0  0  0  0
  5  6  2  0  0  0  0
  7  9  2  0  0  0  0
  7  8  1  0  0  0  0
  8 10  2  0  0  0  0
  8 19  1  0  0  0  0
  9 11  1  0  0  0  0
 10 12  1  0  0  0  0
 11 12  2  0  0  0  0
 12 20  1  0  0  0  0
 13 14  2  0  0  0  0
 13 15  1  0  0  0  0
 16 17  1  0  0  0  0
 17 18  2  0  0  0  0
 17 19  1  0  0  0  0
 20 21  1  0  0  0  0
M  END
