95204
 OpenBabel03021519512D

 20 20  0  0  0  0  0  0  0  0999 V2000
   -0.5201   -5.4008    0.0000 H   0  0  0  0  0  0  0  0  0  0  0  0
   -0.5201   -6.9008    0.0000 N   0  0  0  0  0  0  0  0  0  0  0  0
   -0.5201  -11.4008    0.0000 O   0  0  0  0  0  0  0  0  0  0  0  0
    0.7790   -9.1508    0.0000 N   0  0  0  0  0  0  0  0  0  0  0  0
    4.6761   -8.4008    0.0000 S   0  0  0  0  0  0  0  0  0  0  0  0
    0.7790   -7.6508    0.0000 C   0  0  0  0  0  0  0  0  0  0  0  0
   -1.8191   -7.6508    0.0000 C   0  0  0  0  0  0  0  0  0  0  0  0
   -1.8191   -9.1508    0.0000 C   0  0  0  0  0  0  0  0  0  0  0  0
   -0.5201   -9.9008    0.0000 C   0  0  0  0  0  0  0  0  0  0  0  0
   -3.1182   -6.9008    0.0000 N   0  0  0  0  0  0  0  0  0  0  0  0
    2.0780   -6.9008    0.0000 N   0  0  0  0  0  0  0  0  0  0  0  0
    4.1270   -6.3518    0.0000 O   0  0  0  0  0  0  0  0  0  0  0  0
    3.3770   -5.0527    0.0000 C   0  0  0  0  0  0  0  0  0  0  0  0
    1.8770   -5.0527    0.0000 C   0  0  0  0  0  0  0  0  0  0  0  0
    1.1270   -3.7537    0.0000 C   0  0  0  0  0  0  0  0  0  0  0  0
    3.3770   -7.6508    0.0000 P   0  0  0  0  0  0  0  0  0  0  0  0
    2.6270   -8.9498    0.0000 O   0  0  0  0  0  0  0  0  0  0  0  0
    3.3770  -10.2489    0.0000 C   0  0  0  0  0  0  0  0  0  0  0  0
    2.6270  -11.5479    0.0000 C   0  0  0  0  0  0  0  0  0  0  0  0
    1.1270  -11.5479    0.0000 C   0  0  0  0  0  0  0  0  0  0  0  0
  1  2  1  0  0  0  0
  2  6  1  0  0  0  0
  2  7  1  0  0  0  0
  3  9  2  0  0  0  0
  4  6  2  0  0  0  0
  4  9  1  0  0  0  0
  5 16  2  0  0  0  0
  6 11  1  0  0  0  0
  7  8  2  0  0  0  0
  7 10  1  0  0  0  0
  8  9  1  0  0  0  0
 11 16  1  0  0  0  0
 12 13  1  0  0  0  0
 12 16  1  0  0  0  0
 13 14  1  0  0  0  0
 14 15  1  0  0  0  0
 16 17  1  0  0  0  0
 17 18  1  0  0  0  0
 18 19  1  0  0  0  0
 19 20  1  0  0  0  0
M  END
