141538
 OpenBabel03021519512D

 21 23  0  0  1  0  0  0  0  0999 V2000
   -7.7784   -2.0491    0.0000 O   0  0  0  0  0  0  0  0  0  0  0  0
   -4.1977   -7.2627    0.0000 O   0  0  0  0  0  0  0  0  0  0  0  0
   -1.9793   -1.2990    0.0000 O   0  0  0  0  0  0  0  0  0  0  0  0
   -4.0284   -0.7500    0.0000 C   0  0  0  0  0  0  0  0  0  0  0  0
   -3.2784   -2.0490    0.0000 C   0  0  3  0  0  0  0  0  0  0  0  0
   -5.5284   -0.7500    0.0000 C   0  0  0  0  0  0  0  0  0  0  0  0
   -6.2784   -2.0490    0.0000 C   0  0  0  0  0  0  0  0  0  0  0  0
   -1.9793   -2.7990    0.0000 C   0  0  0  0  0  0  0  0  0  0  0  0
   -4.0284   -3.3481    0.0000 C   0  0  3  0  0  0  0  0  0  0  0  0
   -5.5284   -3.3481    0.0000 C   0  0  3  0  0  0  0  0  0  0  0  0
   -4.4582   -5.7855    0.0000 C   0  0  3  0  0  0  0  0  0  0  0  0
   -3.0486   -6.2985    0.0000 C   0  0  3  0  0  0  0  0  0  0  0  0
   -6.2784   -4.6471    0.0000 O   0  0  0  0  0  0  0  0  0  0  0  0
   -7.7784   -4.6471    0.0000 C   0  0  0  0  0  0  0  0  0  0  0  0
   -5.9582   -5.7855    0.0000 C   0  0  0  0  0  0  0  0  0  0  0  0
   -2.6188   -3.8611    0.0000 O   0  0  0  0  0  0  0  0  0  0  0  0
   -2.2986   -7.5975    0.0000 C   0  0  0  0  0  0  0  0  0  0  0  0
   -3.0486   -8.8966    0.0000 C   0  0  0  0  0  0  0  0  0  0  0  0
   -4.5486   -8.8966    0.0000 C   0  0  0  0  0  0  0  0  0  0  0  0
   -5.2986   -7.5976    0.0000 C   0  0  0  0  0  0  0  0  0  0  0  0
   -5.2986  -10.1956    0.0000 C   0  0  0  0  0  0  0  0  0  0  0  0
  1  7  2  0  0  0  0
  2 11  1  0  0  0  0
  2 12  1  0  0  0  0
  3  5  1  0  0  0  0
  3  8  1  0  0  0  0
  4  5  1  0  0  0  0
  4  6  1  0  0  0  0
  5  8  1  0  0  0  0
  5  9  1  0  0  0  0
  6  7  1  0  0  0  0
  7 10  1  0  0  0  0
  9 11  1  0  0  0  0
  9 10  1  0  0  0  0
  9 16  1  0  0  0  0
 10 13  1  0  0  0  0
 11 12  1  0  0  0  0
 11 15  1  0  0  0  0
 12 17  1  0  0  0  0
 13 14  1  0  0  0  0
 17 18  1  0  0  0  0
 18 19  2  0  0  0  0
 19 20  1  0  0  0  0
 19 21  1  0  0  0  0
M  END
