103189
 OpenBabel03021519512D

 22 23  0  0  1  0  0  0  0  0999 V2000
    6.1508    4.4172    0.0000 O   0  0  0  0  0  0  0  0  0  0  0  0
    6.1508    9.6133    0.0000 O   0  0  0  0  0  0  0  0  0  0  0  0
    6.1508    7.0153    0.0000 N   0  0  0  0  0  0  0  0  0  0  0  0
    7.6508    7.0153    0.0000 H   0  0  0  0  0  0  0  0  0  0  0  0
    5.4008    8.3143    0.0000 C   0  0  0  0  0  0  0  0  0  0  0  0
    3.9008    8.3143    0.0000 C   0  0  3  0  0  0  0  0  0  0  0  0
    3.1508    7.0153    0.0000 C   0  0  3  0  0  0  0  0  0  0  0  0
    2.4008    8.3143    0.0000 C   0  0  0  0  0  0  0  0  0  0  0  0
    0.9008    8.3143    0.0000 C   0  0  0  0  0  0  0  0  0  0  0  0
    0.1508    7.0153    0.0000 C   0  0  0  0  0  0  0  0  0  0  0  0
    2.4008    5.7162    0.0000 C   0  0  0  0  0  0  0  0  0  0  0  0
    3.9008    5.7162    0.0000 C   0  0  3  0  0  0  0  0  0  0  0  0
    0.9008    5.7162    0.0000 C   0  0  3  0  0  0  0  0  0  0  0  0
    5.4008    5.7162    0.0000 C   0  0  0  0  0  0  0  0  0  0  0  0
    0.1508    4.4172    0.0000 C   0  0  0  0  0  0  0  0  0  0  0  0
   -1.1482    5.1672    0.0000 F   0  0  0  0  0  0  0  0  0  0  0  0
   -0.5992    3.1182    0.0000 F   0  0  0  0  0  0  0  0  0  0  0  0
    1.4498    3.6672    0.0000 F   0  0  0  0  0  0  0  0  0  0  0  0
    3.1508    9.6133    0.0000 C   0  0  0  0  0  0  0  0  0  0  0  0
    2.4008   10.9124    0.0000 N   0  0  0  0  0  0  0  0  0  0  0  0
    3.1508    4.4172    0.0000 C   0  0  0  0  0  0  0  0  0  0  0  0
    2.4008    3.1182    0.0000 N   0  0  0  0  0  0  0  0  0  0  0  0
  1 14  2  0  0  0  0
  2  5  2  0  0  0  0
  3  5  1  0  0  0  0
  3 14  1  0  0  0  0
  3  4  1  0  0  0  0
  5  6  1  0  0  0  0
  6  7  1  0  0  0  0
  6 19  1  0  0  0  0
  7  8  1  0  0  0  0
  7 11  1  0  0  0  0
  7 12  1  0  0  0  0
  8  9  1  0  0  0  0
  9 10  1  0  0  0  0
 10 13  1  0  0  0  0
 11 13  1  0  0  0  0
 12 14  1  0  0  0  0
 12 21  1  0  0  0  0
 13 15  1  0  0  0  0
 15 16  1  0  0  0  0
 15 17  1  0  0  0  0
 15 18  1  0  0  0  0
 19 20  3  0  0  0  0
 21 22  3  0  0  0  0
M  END
