19219
 OpenBabel03021519512D

 15 16  0  0  0  0  0  0  0  0999 V2000
   -3.3481    5.2500    0.0000 N   0  0  0  0  0  0  0  0  0  0  0  0
   -3.3481    8.2500    0.0000 N   0  0  0  0  0  0  0  0  0  0  0  0
   -3.3481    3.7500    0.0000 C   0  0  0  0  0  0  0  0  0  0  0  0
   -4.6471    3.0000    0.0000 C   0  0  0  0  0  0  0  0  0  0  0  0
   -2.0490    3.0000    0.0000 C   0  0  0  0  0  0  0  0  0  0  0  0
   -2.0490    1.5000    0.0000 C   0  0  0  0  0  0  0  0  0  0  0  0
   -4.6471    1.5000    0.0000 C   0  0  0  0  0  0  0  0  0  0  0  0
   -3.3481    0.7500    0.0000 C   0  0  0  0  0  0  0  0  0  0  0  0
   -4.6471    6.0000    0.0000 C   0  0  0  0  0  0  0  0  0  0  0  0
   -4.6471    7.5000    0.0000 C   0  0  0  0  0  0  0  0  0  0  0  0
   -2.0490    6.0000    0.0000 C   0  0  0  0  0  0  0  0  0  0  0  0
   -2.0490    7.5000    0.0000 C   0  0  0  0  0  0  0  0  0  0  0  0
   -5.9462    0.7500    0.0000 O   0  0  0  0  0  0  0  0  0  0  0  0
   -0.7500    3.7500    0.0000 C   0  0  0  0  0  0  0  0  0  0  0  0
   -0.7500    5.2500    0.0000 C   0  0  0  0  0  0  0  0  0  0  0  0
  1 11  2  0  0  0  0
  1  9  1  0  0  0  0
  2 12  2  0  0  0  0
  2 10  1  0  0  0  0
  3  4  2  0  0  0  0
  3  5  1  0  0  0  0
  4  7  1  0  0  0  0
  5  6  2  0  0  0  0
  5 14  1  0  0  0  0
  6  8  1  0  0  0  0
  7  8  2  0  0  0  0
  7 13  1  0  0  0  0
  9 10  2  0  0  0  0
 11 12  1  0  0  0  0
 11 15  1  0  0  0  0
 14 15  2  0  0  0  0
M  END
