19824
 OpenBabel03021519512D

 21 24  0  0  1  0  0  0  0  0999 V2000
   -6.1243   -3.0000    0.0000 N   0  0  0  0  0  0  0  0  0  0  0  0
   -2.2272   -0.7500    0.0000 C   0  0  0  0  0  0  0  0  0  0  0  0
   -0.9282   -1.5000    0.0000 C   0  0  0  0  0  0  0  0  0  0  0  0
   -3.5263   -1.5000    0.0000 C   0  0  0  0  0  0  0  0  0  0  0  0
   -0.9282   -3.0000    0.0000 C   0  0  0  0  0  0  0  0  0  0  0  0
   -3.5262   -3.0000    0.0000 C   0  0  0  0  0  0  0  0  0  0  0  0
   -2.2272   -3.7500    0.0000 C   0  0  0  0  0  0  0  0  0  0  0  0
   -4.8253   -3.7500    0.0000 C   0  0  0  0  0  0  0  0  0  0  0  0
   -2.2272   -5.2500    0.0000 C   0  0  0  0  0  0  0  0  0  0  0  0
   -4.8253   -5.2500    0.0000 C   0  0  0  0  0  0  0  0  0  0  0  0
   -3.5262   -6.0000    0.0000 C   0  0  3  0  0  0  0  0  0  0  0  0
   -6.1243   -6.0000    0.0000 C   0  0  0  0  0  0  0  0  0  0  0  0
   -7.4234   -5.2500    0.0000 C   0  0  0  0  0  0  0  0  0  0  0  0
   -8.7224   -3.0000    0.0000 C   0  0  0  0  0  0  0  0  0  0  0  0
  -10.0214   -3.7500    0.0000 C   0  0  0  0  0  0  0  0  0  0  0  0
   -7.4234   -3.7500    0.0000 C   0  0  0  0  0  0  0  0  0  0  0  0
  -10.0214   -5.2500    0.0000 C   0  0  0  0  0  0  0  0  0  0  0  0
   -8.7224   -6.0000    0.0000 C   0  0  0  0  0  0  0  0  0  0  0  0
   -3.5262   -7.5000    0.0000 O   0  0  0  0  0  0  0  0  0  0  0  0
   -1.7142   -6.6595    0.0000 C   0  0  0  0  0  0  0  0  0  0  0  0
   -0.7500   -4.9895    0.0000 C   0  0  0  0  0  0  0  0  0  0  0  0
  1 16  2  0  0  0  0
  1  8  1  0  0  0  0
  2  4  2  0  0  0  0
  2  3  1  0  0  0  0
  3  5  2  0  0  0  0
  4  6  1  0  0  0  0
  5  7  1  0  0  0  0
  6  7  2  0  0  0  0
  6  8  1  0  0  0  0
  7  9  1  0  0  0  0
  8 10  2  0  0  0  0
  9 11  1  0  0  0  0
  9 20  1  0  0  0  0
  9 21  1  0  0  0  0
 10 11  1  0  0  0  0
 10 12  1  0  0  0  0
 11 19  1  0  0  0  0
 12 13  2  0  0  0  0
 13 16  1  0  0  0  0
 13 18  1  0  0  0  0
 14 15  2  0  0  0  0
 14 16  1  0  0  0  0
 15 17  1  0  0  0  0
 17 18  2  0  0  0  0
M  END
