31208
 OpenBabel03021519512D

 19 20  0  0  0  0  0  0  0  0999 V2000
  -13.7091   -3.1752    0.0000 H   0  0  0  0  0  0  0  0  0  0  0  0
  -12.0774   -6.0013    0.0000 S   0  0  0  0  0  0  0  0  0  0  0  0
  -12.2173   -3.3320    0.0000 N   0  0  0  0  0  0  0  0  0  0  0  0
  -11.5255   -0.7500    0.0000 O   0  0  0  0  0  0  0  0  0  0  0  0
  -10.0001   -4.3191    0.0000 N   0  0  0  0  0  0  0  0  0  0  0  0
   -8.8853   -5.3228    0.0000 H   0  0  0  0  0  0  0  0  0  0  0  0
  -11.2136   -2.2172    0.0000 C   0  0  0  0  0  0  0  0  0  0  0  0
   -9.8433   -2.8273    0.0000 C   0  0  0  0  0  0  0  0  0  0  0  0
   -5.9462   -2.0773    0.0000 C   0  0  0  0  0  0  0  0  0  0  0  0
   -7.2452   -2.8273    0.0000 C   0  0  0  0  0  0  0  0  0  0  0  0
   -4.6471   -2.8273    0.0000 C   0  0  0  0  0  0  0  0  0  0  0  0
   -4.6471   -4.3273    0.0000 C   0  0  0  0  0  0  0  0  0  0  0  0
   -7.2452   -4.3273    0.0000 C   0  0  0  0  0  0  0  0  0  0  0  0
   -5.9461   -5.0773    0.0000 C   0  0  0  0  0  0  0  0  0  0  0  0
  -11.4673   -4.6310    0.0000 C   0  0  0  0  0  0  0  0  0  0  0  0
   -8.5442   -2.0773    0.0000 C   0  0  0  0  0  0  0  0  0  0  0  0
   -3.3481   -5.0773    0.0000 O   0  0  0  0  0  0  0  0  0  0  0  0
   -2.0490   -4.3273    0.0000 C   0  0  0  0  0  0  0  0  0  0  0  0
   -0.7500   -5.0773    0.0000 C   0  0  0  0  0  0  0  0  0  0  0  0
  1  3  1  0  0  0  0
  2 15  2  0  0  0  0
  3  7  1  0  0  0  0
  3 15  1  0  0  0  0
  4  7  2  0  0  0  0
  5  8  1  0  0  0  0
  5 15  1  0  0  0  0
  5  6  1  0  0  0  0
  7  8  1  0  0  0  0
  8 16  2  0  0  0  0
  9 11  2  0  0  0  0
  9 10  1  0  0  0  0
 10 13  2  0  0  0  0
 10 16  1  0  0  0  0
 11 12  1  0  0  0  0
 12 14  2  0  0  0  0
 12 17  1  0  0  0  0
 13 14  1  0  0  0  0
 17 18  1  0  0  0  0
 18 19  1  0  0  0  0
M  END
