62901
 OpenBabel03021519512D

 14 14  0  0  0  0  0  0  0  0999 V2000
    2.2500    3.7500    0.0000 O   0  0  0  0  0  0  0  0  0  0  0  0
    2.2500    2.2500    0.0000 As  0  0  0  0  0  0  0  0  0  0  0  0
    3.7500    2.2500    0.0000 C   0  0  0  0  0  0  0  0  0  0  0  0
    4.5000    3.5490    0.0000 C   0  0  0  0  0  0  0  0  0  0  0  0
    4.5000    0.9510    0.0000 C   0  0  0  0  0  0  0  0  0  0  0  0
    6.0000    3.5490    0.0000 C   0  0  0  0  0  0  0  0  0  0  0  0
    6.0000    0.9510    0.0000 C   0  0  0  0  0  0  0  0  0  0  0  0
    6.7500    2.2500    0.0000 C   0  0  0  0  0  0  0  0  0  0  0  0
    9.0000    3.5490    0.0000 C   0  0  0  0  0  0  0  0  0  0  0  0
    8.2500    4.8481    0.0000 O   0  0  0  0  0  0  0  0  0  0  0  0
    0.7500    2.2500    0.0000 O   0  0  0  0  0  0  0  0  0  0  0  0
    2.2500    0.7500    0.0000 O   0  0  0  0  0  0  0  0  0  0  0  0
    8.2500    2.2500    0.0000 N   0  0  0  0  0  0  0  0  0  0  0  0
   10.5000    3.5490    0.0000 C   0  0  0  0  0  0  0  0  0  0  0  0
  1  2  2  0  0  0  0
  2  3  1  0  0  0  0
  2 11  1  0  0  0  0
  2 12  1  0  0  0  0
  3  4  2  0  0  0  0
  3  5  1  0  0  0  0
  4  6  1  0  0  0  0
  5  7  2  0  0  0  0
  6  8  2  0  0  0  0
  7  8  1  0  0  0  0
  8 13  1  0  0  0  0
  9 10  2  0  0  0  0
  9 13  1  0  0  0  0
  9 14  1  0  0  0  0
M  END
