120307
 OpenBabel03021519512D

 19 21  0  0  0  0  0  0  0  0999 V2000
    3.6226   -1.2255    0.0000 H   0  0  0  0  0  0  0  0  0  0  0  0
    6.2207   -1.2255    0.0000 N   0  0  0  0  0  0  0  0  0  0  0  0
    7.5197    1.0245    0.0000 N   0  0  0  0  0  0  0  0  0  0  0  0
    7.5197   -3.4755    0.0000 O   0  0  0  0  0  0  0  0  0  0  0  0
   10.2453    0.7381    0.0000 N   0  0  0  0  0  0  0  0  0  0  0  0
   10.7089    2.1647    0.0000 H   0  0  0  0  0  0  0  0  0  0  0  0
   11.1270   -0.4754    0.0000 N   0  0  0  0  0  0  0  0  0  0  0  0
    4.9216    2.5245    0.0000 C   0  0  0  0  0  0  0  0  0  0  0  0
    4.9216    1.0245    0.0000 C   0  0  0  0  0  0  0  0  0  0  0  0
    3.6226    3.2745    0.0000 C   0  0  0  0  0  0  0  0  0  0  0  0
    6.2207    0.2745    0.0000 C   0  0  0  0  0  0  0  0  0  0  0  0
    3.6226    0.2745    0.0000 C   0  0  0  0  0  0  0  0  0  0  0  0
    2.3236    2.5245    0.0000 C   0  0  0  0  0  0  0  0  0  0  0  0
    2.3236    1.0245    0.0000 C   0  0  0  0  0  0  0  0  0  0  0  0
    8.8187    0.2745    0.0000 C   0  0  0  0  0  0  0  0  0  0  0  0
    8.8188   -1.2255    0.0000 C   0  0  0  0  0  0  0  0  0  0  0  0
   10.2453   -1.6890    0.0000 C   0  0  0  0  0  0  0  0  0  0  0  0
    7.5197   -1.9755    0.0000 C   0  0  0  0  0  0  0  0  0  0  0  0
   10.7089   -3.1156    0.0000 N   0  0  0  0  0  0  0  0  0  0  0  0
  1 12  1  0  0  0  0
  2 11  1  0  0  0  0
  2 18  1  0  0  0  0
  3 11  2  0  0  0  0
  3 15  1  0  0  0  0
  4 18  2  0  0  0  0
  5  7  1  0  0  0  0
  5 15  1  0  0  0  0
  5  6  1  0  0  0  0
  7 17  2  0  0  0  0
  8 10  2  0  0  0  0
  8  9  1  0  0  0  0
  9 12  2  0  0  0  0
  9 11  1  0  0  0  0
 10 13  1  0  0  0  0
 12 14  1  0  0  0  0
 13 14  2  0  0  0  0
 15 16  2  0  0  0  0
 16 17  1  0  0  0  0
 16 18  1  0  0  0  0
 17 19  1  0  0  0  0
M  END
