276369
 OpenBabel03021519512D

 14 14  0  0  0  0  0  0  0  0999 V2000
   -6.6495    2.9731    0.0000 C   0  0  0  0  0  0  0  0  0  0  0  0
   -8.1495    2.9731    0.0000 C   0  0  0  0  0  0  0  0  0  0  0  0
   -5.8995    1.6740    0.0000 C   0  0  0  0  0  0  0  0  0  0  0  0
   -8.8995    1.6740    0.0000 N   0  0  0  0  0  0  0  0  0  0  0  0
  -10.3995    1.6740    0.0000 H   0  0  0  0  0  0  0  0  0  0  0  0
   -6.6495    0.3750    0.0000 C   0  0  0  0  0  0  0  0  0  0  0  0
   -8.1495    0.3750    0.0000 C   0  0  0  0  0  0  0  0  0  0  0  0
   -5.8995   -0.9240    0.0000 O   0  0  0  0  0  0  0  0  0  0  0  0
   -8.8995   -0.9241    0.0000 O   0  0  0  0  0  0  0  0  0  0  0  0
   -3.6495    0.3750    0.0000 O   0  0  0  0  0  0  0  0  0  0  0  0
   -4.3995   -0.9240    0.0000 C   0  0  0  0  0  0  0  0  0  0  0  0
   -3.6495   -2.2231    0.0000 N   0  0  0  0  0  0  0  0  0  0  0  0
   -2.1495   -2.2231    0.0000 C   0  0  0  0  0  0  0  0  0  0  0  0
   -1.3995   -0.9240    0.0000 C   0  0  0  0  0  0  0  0  0  0  0  0
  1  3  1  0  0  0  0
  1  2  2  0  0  0  0
  2  4  1  0  0  0  0
  3  6  2  0  0  0  0
  4  7  1  0  0  0  0
  4  5  1  0  0  0  0
  6  8  1  0  0  0  0
  6  7  1  0  0  0  0
  7  9  2  0  0  0  0
  8 11  1  0  0  0  0
 10 11  2  0  0  0  0
 11 12  1  0  0  0  0
 12 13  1  0  0  0  0
 13 14  1  0  0  0  0
M  END
