42774
 OpenBabel03021519512D

 13 14  0  0  0  0  0  0  0  0999 V2000
   -0.3750    2.1495    0.0000 N   0  0  0  0  0  0  0  0  0  0  0  0
    4.8211    6.6495    0.0000 N   0  0  0  0  0  0  0  0  0  0  0  0
    4.9779    8.1413    0.0000 C   0  0  0  0  0  0  0  0  0  0  0  0
    6.4452    8.4532    0.0000 C   0  0  0  0  0  0  0  0  0  0  0  0
    7.1952    7.1541    0.0000 C   0  0  0  0  0  0  0  0  0  0  0  0
    6.1915    6.0394    0.0000 C   0  0  0  0  0  0  0  0  0  0  0  0
    0.9240    4.3995    0.0000 C   0  0  0  0  0  0  0  0  0  0  0  0
    2.2231    3.6495    0.0000 C   0  0  0  0  0  0  0  0  0  0  0  0
   -0.3750    3.6495    0.0000 C   0  0  0  0  0  0  0  0  0  0  0  0
    2.2231    2.1495    0.0000 C   0  0  0  0  0  0  0  0  0  0  0  0
    0.9240    1.3995    0.0000 C   0  0  0  0  0  0  0  0  0  0  0  0
    3.5221    4.3995    0.0000 C   0  0  0  0  0  0  0  0  0  0  0  0
    3.5221    5.8995    0.0000 C   0  0  0  0  0  0  0  0  0  0  0  0
  1  9  2  0  0  0  0
  1 11  1  0  0  0  0
  2  3  1  0  0  0  0
  2  6  1  0  0  0  0
  2 13  1  0  0  0  0
  3  4  2  0  0  0  0
  4  5  1  0  0  0  0
  5  6  2  0  0  0  0
  7  8  2  0  0  0  0
  7  9  1  0  0  0  0
  8 10  1  0  0  0  0
  8 12  1  0  0  0  0
 10 11  2  0  0  0  0
 12 13  1  0  0  0  0
M  END
