320218
 OpenBabel03021519512D

 29 32  0  0  0  0  0  0  0  0999 V2000
    5.4036    8.0720    0.0000 C   0  0  0  0  0  0  0  0  0  0  0  0
    0.3045    6.4153    0.0000 C   0  0  0  0  0  0  0  0  0  0  0  0
   13.1979    8.0720    0.0000 C   0  0  0  0  0  0  0  0  0  0  0  0
   11.8988    7.3220    0.0000 C   0  0  0  0  0  0  0  0  0  0  0  0
    6.7027    7.3220    0.0000 C   0  0  0  0  0  0  0  0  0  0  0  0
    4.1046    7.3220    0.0000 C   0  0  0  0  0  0  0  0  0  0  0  0
    1.7963    6.5720    0.0000 C   0  0  0  0  0  0  0  0  0  0  0  0
   -0.3056    5.0449    0.0000 C   0  0  0  0  0  0  0  0  0  0  0  0
   14.4969    7.3220    0.0000 C   0  0  0  0  0  0  0  0  0  0  0  0
   11.8988    5.8220    0.0000 C   0  0  0  0  0  0  0  0  0  0  0  0
    6.7027    5.8220    0.0000 C   0  0  0  0  0  0  0  0  0  0  0  0
    4.1046    5.8220    0.0000 C   0  0  0  0  0  0  0  0  0  0  0  0
    2.6780    5.3585    0.0000 C   0  0  0  0  0  0  0  0  0  0  0  0
    0.5761    3.8314    0.0000 C   0  0  0  0  0  0  0  0  0  0  0  0
   14.4969    5.8220    0.0000 C   0  0  0  0  0  0  0  0  0  0  0  0
   13.1979    5.0720    0.0000 C   0  0  0  0  0  0  0  0  0  0  0  0
    5.4036    5.0720    0.0000 C   0  0  0  0  0  0  0  0  0  0  0  0
    2.0679    3.9882    0.0000 C   0  0  0  0  0  0  0  0  0  0  0  0
    2.6780    7.7856    0.0000 N   0  0  0  0  0  0  0  0  0  0  0  0
    9.3007    5.8220    0.0000 C   0  0  0  0  0  0  0  0  0  0  0  0
    9.3007    7.3220    0.0000 O   0  0  0  0  0  0  0  0  0  0  0  0
    2.2145    9.2121    0.0000 C   0  0  0  0  0  0  0  0  0  0  0  0
    0.7473    9.5240    0.0000 C   0  0  0  0  0  0  0  0  0  0  0  0
    8.0017    5.0720    0.0000 N   0  0  0  0  0  0  0  0  0  0  0  0
   10.5998    5.0720    0.0000 N   0  0  0  0  0  0  0  0  0  0  0  0
   13.1979    3.5720    0.0000 C   0  0  0  0  0  0  0  0  0  0  0  0
   15.7959    8.0720    0.0000 N   0  3  0  0  0  0  0  0  0  0  0  0
   15.7959    9.5720    0.0000 O   0  5  0  0  0  0  0  0  0  0  0  0
   17.0950    7.3220    0.0000 O   0  0  0  0  0  0  0  0  0  0  0  0
  1  6  2  0  0  0  0
  1  5  1  0  0  0  0
  2  8  2  0  0  0  0
  2  7  1  0  0  0  0
  3  4  1  0  0  0  0
  3  9  2  0  0  0  0
  4 10  2  0  0  0  0
  5 11  2  0  0  0  0
  6 19  1  0  0  0  0
  6 12  1  0  0  0  0
  7 19  1  0  0  0  0
  7 13  2  0  0  0  0
  8 14  1  0  0  0  0
  9 15  1  0  0  0  0
  9 27  1  0  0  0  0
 10 25  1  0  0  0  0
 10 16  1  0  0  0  0
 11 17  1  0  0  0  0
 11 24  1  0  0  0  0
 12 13  1  0  0  0  0
 12 17  2  0  0  0  0
 13 18  1  0  0  0  0
 14 18  2  0  0  0  0
 15 16  2  0  0  0  0
 16 26  1  0  0  0  0
 19 22  1  0  0  0  0
 20 21  2  0  0  0  0
 20 24  1  0  0  0  0
 20 25  1  0  0  0  0
 22 23  1  0  0  0  0
 27 28  1  0  0  0  0
 27 29  2  0  0  0  0
M  CHG  2  27   1  28  -1
M  END
