133356
 OpenBabel03021519512D

 18 20  0  0  0  0  0  0  0  0999 V2000
   -0.7500    2.7990    0.0000 N   0  0  0  0  0  0  0  0  0  0  0  0
    0.0000    1.5000    0.0000 N   0  0  0  0  0  0  0  0  0  0  0  0
   -0.0582    5.3810    0.0000 H   0  0  0  0  0  0  0  0  0  0  0  0
    0.2537    3.9138    0.0000 N   0  0  0  0  0  0  0  0  0  0  0  0
    1.4672    1.8119    0.0000 N   0  0  0  0  0  0  0  0  0  0  0  0
    8.1905    5.6936    0.0000 N   0  0  0  0  0  0  0  0  0  0  0  0
    5.8622    8.7991    0.0000 H   0  0  0  0  0  0  0  0  0  0  0  0
    6.9769    7.7955    0.0000 N   0  0  0  0  0  0  0  0  0  0  0  0
    9.1942    6.8083    0.0000 N   0  0  0  0  0  0  0  0  0  0  0  0
    8.4442    8.1073    0.0000 N   0  0  0  0  0  0  0  0  0  0  0  0
    6.8202    6.3037    0.0000 C   0  0  0  0  0  0  0  0  0  0  0  0
    5.5211    5.5537    0.0000 C   0  0  0  0  0  0  0  0  0  0  0  0
    4.2221    6.3037    0.0000 C   0  0  0  0  0  0  0  0  0  0  0  0
    2.9230    5.5537    0.0000 C   0  0  0  0  0  0  0  0  0  0  0  0
    5.5211    4.0537    0.0000 C   0  0  0  0  0  0  0  0  0  0  0  0
    2.9230    4.0537    0.0000 C   0  0  0  0  0  0  0  0  0  0  0  0
    4.2221    3.3037    0.0000 C   0  0  0  0  0  0  0  0  0  0  0  0
    1.6240    3.3037    0.0000 C   0  0  0  0  0  0  0  0  0  0  0  0
  1  4  1  0  0  0  0
  1  2  2  0  0  0  0
  2  5  1  0  0  0  0
  3  4  1  0  0  0  0
  4 18  1  0  0  0  0
  5 18  2  0  0  0  0
  6 11  2  0  0  0  0
  6  9  1  0  0  0  0
  7  8  1  0  0  0  0
  8 10  1  0  0  0  0
  8 11  1  0  0  0  0
  9 10  2  0  0  0  0
 11 12  1  0  0  0  0
 12 13  2  0  0  0  0
 12 15  1  0  0  0  0
 13 14  1  0  0  0  0
 14 16  2  0  0  0  0
 15 17  2  0  0  0  0
 16 17  1  0  0  0  0
 16 18  1  0  0  0  0
M  END
