91396
 OpenBabel03021519512D

 28 31  0  0  1  0  0  0  0  0999 V2000
   -5.4707   -7.0245    0.0000 N   0  0  0  0  0  0  0  0  0  0  0  0
   -2.8726   -5.5245    0.0000 N   0  0  0  0  0  0  0  0  0  0  0  0
   -0.2745   -7.0245    0.0000 Cl  0  0  0  0  0  0  0  0  0  0  0  0
  -13.2649  -11.5246    0.0000 C   0  0  0  0  0  0  0  0  0  0  0  0
  -13.2649  -10.0246    0.0000 C   0  0  0  0  0  0  0  0  0  0  0  0
  -11.9658  -12.2746    0.0000 C   0  0  0  0  0  0  0  0  0  0  0  0
  -11.9658  -13.7746    0.0000 C   0  0  0  0  0  0  0  0  0  0  0  0
  -10.6668  -14.5246    0.0000 C   0  0  0  0  0  0  0  0  0  0  0  0
  -11.9658   -9.2746    0.0000 C   0  0  0  0  0  0  0  0  0  0  0  0
  -10.6668  -11.5246    0.0000 C   0  0  0  0  0  0  0  0  0  0  0  0
   -9.3677  -13.7745    0.0000 C   0  0  0  0  0  0  0  0  0  0  0  0
  -10.6668  -10.0246    0.0000 C   0  0  0  0  0  0  0  0  0  0  0  0
   -9.3677  -12.2746    0.0000 C   0  0  0  0  0  0  0  0  0  0  0  0
   -1.5735   -3.2745    0.0000 C   0  0  0  0  0  0  0  0  0  0  0  0
   -0.2745   -2.5245    0.0000 C   0  0  0  0  0  0  0  0  0  0  0  0
   -1.5735   -4.7745    0.0000 C   0  0  0  0  0  0  0  0  0  0  0  0
    1.0245   -3.2745    0.0000 C   0  0  0  0  0  0  0  0  0  0  0  0
   -0.2745   -5.5245    0.0000 C   0  0  0  0  0  0  0  0  0  0  0  0
    1.0245   -4.7745    0.0000 C   0  0  0  0  0  0  0  0  0  0  0  0
   -4.1716   -4.7745    0.0000 C   0  0  0  0  0  0  0  0  0  0  0  0
   -5.4707   -5.5245    0.0000 C   0  0  0  0  0  0  0  0  0  0  0  0
   -2.8726   -7.0245    0.0000 C   0  0  0  0  0  0  0  0  0  0  0  0
   -4.1716   -7.7745    0.0000 C   0  0  0  0  0  0  0  0  0  0  0  0
   -9.3678   -9.2745    0.0000 O   0  0  0  0  0  0  0  0  0  0  0  0
   -9.3678   -7.7745    0.0000 C   0  0  0  0  0  0  0  0  0  0  0  0
   -8.0687   -7.0245    0.0000 C   0  0  3  0  0  0  0  0  0  0  0  0
   -8.0687   -5.5245    0.0000 O   0  0  0  0  0  0  0  0  0  0  0  0
   -6.7697   -7.7745    0.0000 C   0  0  0  0  0  0  0  0  0  0  0  0
  1 21  1  0  0  0  0
  1 23  1  0  0  0  0
  1 28  1  0  0  0  0
  2 16  1  0  0  0  0
  2 20  1  0  0  0  0
  2 22  1  0  0  0  0
  3 18  1  0  0  0  0
  4  5  2  0  0  0  0
  4  6  1  0  0  0  0
  5  9  1  0  0  0  0
  6 10  2  0  0  0  0
  6  7  1  0  0  0  0
  7  8  2  0  0  0  0
  8 11  1  0  0  0  0
  9 12  2  0  0  0  0
 10 12  1  0  0  0  0
 10 13  1  0  0  0  0
 11 13  2  0  0  0  0
 12 24  1  0  0  0  0
 14 15  2  0  0  0  0
 14 16  1  0  0  0  0
 15 17  1  0  0  0  0
 16 18  2  0  0  0  0
 17 19  2  0  0  0  0
 18 19  1  0  0  0  0
 20 21  1  0  0  0  0
 22 23  1  0  0  0  0
 24 25  1  0  0  0  0
 25 26  1  0  0  0  0
 26 27  1  0  0  0  0
 26 28  1  0  0  0  0
M  END
