45153
 OpenBabel03021519512D

 16 18  0  0  1  0  0  0  0  0999 V2000
   -8.1764    4.9139    0.0000 N   0  0  0  0  0  0  0  0  0  0  0  0
   -6.8774    7.1639    0.0000 S   0  0  0  0  0  0  0  0  0  0  0  0
   -6.8774    2.6639    0.0000 N   0  0  0  0  0  0  0  0  0  0  0  0
   -6.8774    1.1639    0.0000 H   0  0  0  0  0  0  0  0  0  0  0  0
   -4.1517    5.3774    0.0000 N   0  0  0  0  0  0  0  0  0  0  0  0
   -4.1517    2.9504    0.0000 N   0  0  0  0  0  0  0  0  0  0  0  0
   -2.2616    1.0603    0.0000 O   0  0  0  0  0  0  0  0  0  0  0  0
   -6.8774    5.6639    0.0000 C   0  0  0  0  0  0  0  0  0  0  0  0
   -5.5783    4.9139    0.0000 C   0  0  0  0  0  0  0  0  0  0  0  0
   -5.5783    3.4139    0.0000 C   0  0  0  0  0  0  0  0  0  0  0  0
   -3.2701    4.1639    0.0000 C   0  0  0  0  0  0  0  0  0  0  0  0
   -8.1764    3.4139    0.0000 C   0  0  0  0  0  0  0  0  0  0  0  0
   -2.2616   -0.4397    0.0000 C   0  0  0  0  0  0  0  0  0  0  0  0
   -3.6882   -0.9033    0.0000 C   0  0  0  0  0  0  0  0  0  0  0  0
   -4.5699    0.3103    0.0000 C   0  0  0  0  0  0  0  0  0  0  0  0
   -3.6882    1.5238    0.0000 C   0  0  3  0  0  0  0  0  0  0  0  0
  1 12  2  0  0  0  0
  1  8  1  0  0  0  0
  2  8  2  0  0  0  0
  3 10  1  0  0  0  0
  3 12  1  0  0  0  0
  3  4  1  0  0  0  0
  5 11  2  0  0  0  0
  5  9  1  0  0  0  0
  6 10  1  0  0  0  0
  6 11  1  0  0  0  0
  6 16  1  0  0  0  0
  7 13  1  0  0  0  0
  7 16  1  0  0  0  0
  8  9  1  0  0  0  0
  9 10  2  0  0  0  0
 13 14  1  0  0  0  0
 14 15  1  0  0  0  0
 15 16  1  0  0  0  0
M  END
