81856
 OpenBabel03021519512D

 21 22  0  0  0  0  0  0  0  0999 V2000
    0.7500   -9.7500    0.0000 Cl  0  0  0  0  0  0  0  0  0  0  0  0
    0.7500  -12.7500    0.0000 Cl  0  0  0  0  0  0  0  0  0  0  0  0
    3.3481   -5.2500    0.0000 N   0  0  0  0  0  0  0  0  0  0  0  0
    3.3481   -9.7500    0.0000 C   0  0  0  0  0  0  0  0  0  0  0  0
    4.6471  -10.5000    0.0000 C   0  0  0  0  0  0  0  0  0  0  0  0
    2.0491  -10.5000    0.0000 C   0  0  0  0  0  0  0  0  0  0  0  0
    4.6471  -12.0000    0.0000 C   0  0  0  0  0  0  0  0  0  0  0  0
    2.0491  -12.0000    0.0000 C   0  0  0  0  0  0  0  0  0  0  0  0
    3.3481  -12.7500    0.0000 C   0  0  0  0  0  0  0  0  0  0  0  0
    3.3481   -3.7500    0.0000 C   0  0  0  0  0  0  0  0  0  0  0  0
    4.6471   -3.0000    0.0000 C   0  0  0  0  0  0  0  0  0  0  0  0
    5.9462   -3.7500    0.0000 C   0  0  0  0  0  0  0  0  0  0  0  0
    5.9462   -5.2500    0.0000 C   0  0  0  0  0  0  0  0  0  0  0  0
    4.6471   -6.0000    0.0000 C   0  0  0  0  0  0  0  0  0  0  0  0
    5.9462   -9.7500    0.0000 N   0  0  0  0  0  0  0  0  0  0  0  0
    5.9462   -8.2500    0.0000 C   0  0  0  0  0  0  0  0  0  0  0  0
    7.2452   -7.5000    0.0000 O   0  0  0  0  0  0  0  0  0  0  0  0
    4.6471   -7.5000    0.0000 N   0  0  0  0  0  0  0  0  0  0  0  0
    4.6471   -1.5000    0.0000 N   0  3  0  0  0  0  0  0  0  0  0  0
    3.3481   -0.7500    0.0000 O   0  5  0  0  0  0  0  0  0  0  0  0
    5.9462   -0.7500    0.0000 O   0  0  0  0  0  0  0  0  0  0  0  0
  1  6  1  0  0  0  0
  2  8  1  0  0  0  0
  3 14  2  0  0  0  0
  3 10  1  0  0  0  0
  4  5  2  0  0  0  0
  4  6  1  0  0  0  0
  5  7  1  0  0  0  0
  5 15  1  0  0  0  0
  6  8  2  0  0  0  0
  7  9  2  0  0  0  0
  8  9  1  0  0  0  0
 10 11  2  0  0  0  0
 11 12  1  0  0  0  0
 11 19  1  0  0  0  0
 12 13  2  0  0  0  0
 13 14  1  0  0  0  0
 14 18  1  0  0  0  0
 15 16  1  0  0  0  0
 16 17  2  0  0  0  0
 16 18  1  0  0  0  0
 19 20  1  0  0  0  0
 19 21  2  0  0  0  0
M  CHG  2  19   1  20  -1
M  END
