128751
 OpenBabel03021519512D

 17 19  0  0  0  0  0  0  0  0999 V2000
    0.7500    4.1401    0.0000 C   0  0  0  0  0  0  0  0  0  0  0  0
    0.7500    2.6401    0.0000 C   0  0  0  0  0  0  0  0  0  0  0  0
    2.0490    4.8901    0.0000 C   0  0  0  0  0  0  0  0  0  0  0  0
    2.0490    1.8901    0.0000 C   0  0  0  0  0  0  0  0  0  0  0  0
    3.3481    4.1401    0.0000 C   0  0  0  0  0  0  0  0  0  0  0  0
    3.3481    2.6401    0.0000 C   0  0  0  0  0  0  0  0  0  0  0  0
    4.7747    4.6036    0.0000 N   0  0  0  0  0  0  0  0  0  0  0  0
    4.7747    2.1766    0.0000 N   0  0  0  0  0  0  0  0  0  0  0  0
    5.2382    0.7500    0.0000 H   0  0  0  0  0  0  0  0  0  0  0  0
    5.6563    3.3901    0.0000 C   0  0  0  0  0  0  0  0  0  0  0  0
    7.1563    3.3901    0.0000 C   0  0  0  0  0  0  0  0  0  0  0  0
    7.1563    5.9882    0.0000 Cl  0  0  0  0  0  0  0  0  0  0  0  0
    7.9063    2.0911    0.0000 C   0  0  0  0  0  0  0  0  0  0  0  0
    7.9063    4.6892    0.0000 C   0  0  0  0  0  0  0  0  0  0  0  0
    9.4063    4.6892    0.0000 C   0  0  0  0  0  0  0  0  0  0  0  0
    9.4063    2.0911    0.0000 C   0  0  0  0  0  0  0  0  0  0  0  0
   10.1563    3.3901    0.0000 C   0  0  0  0  0  0  0  0  0  0  0  0
  1  3  1  0  0  0  0
  1  2  2  0  0  0  0
  2  4  1  0  0  0  0
  3  5  2  0  0  0  0
  4  6  2  0  0  0  0
  5  7  1  0  0  0  0
  5  6  1  0  0  0  0
  6  8  1  0  0  0  0
  7 10  2  0  0  0  0
  8 10  1  0  0  0  0
  8  9  1  0  0  0  0
 10 11  1  0  0  0  0
 11 14  1  0  0  0  0
 11 13  2  0  0  0  0
 12 14  1  0  0  0  0
 13 16  1  0  0  0  0
 14 15  2  0  0  0  0
 15 17  1  0  0  0  0
 16 17  2  0  0  0  0
M  END
