146557
 OpenBabel03021519512D

 30 33  0  0  0  0  0  0  0  0999 V2000
   -0.0884  -11.4545    0.0000 F   0  0  0  0  0  0  0  0  0  0  0  0
   -2.6865  -11.4545    0.0000 N   0  0  0  0  0  0  0  0  0  0  0  0
   -0.0171  -11.3146    0.0000 S   0  0  0  0  0  0  0  0  0  0  0  0
   -1.2307   -9.2127    0.0000 N   0  0  0  0  0  0  0  0  0  0  0  0
    2.8905   -2.9400    0.0000 Br  0  0  0  0  0  0  0  0  0  0  0  0
   -4.9650   -5.8504    0.0000 C   0  0  0  0  0  0  0  0  0  0  0  0
   -5.2768   -7.3176    0.0000 C   0  0  0  0  0  0  0  0  0  0  0  0
   -3.5384   -5.3868    0.0000 C   0  0  0  0  0  0  0  0  0  0  0  0
   -2.4237   -6.3905    0.0000 C   0  0  0  0  0  0  0  0  0  0  0  0
   -4.1621   -8.3213    0.0000 C   0  0  0  0  0  0  0  0  0  0  0  0
   -2.7355   -7.8578    0.0000 C   0  0  0  0  0  0  0  0  0  0  0  0
    0.1785   -5.8374    0.0000 C   0  0  0  0  0  0  0  0  0  0  0  0
    0.7886   -4.4671    0.0000 C   0  0  0  0  0  0  0  0  0  0  0  0
    1.0602   -7.0510    0.0000 C   0  0  0  0  0  0  0  0  0  0  0  0
    2.2804   -4.3103    0.0000 C   0  0  0  0  0  0  0  0  0  0  0  0
    2.5520   -6.8942    0.0000 C   0  0  0  0  0  0  0  0  0  0  0  0
    0.2366   -8.9009    0.0000 C   0  0  0  0  0  0  0  0  0  0  0  0
    0.9866  -10.1999    0.0000 C   0  0  0  0  0  0  0  0  0  0  0  0
    3.1621   -5.5238    0.0000 C   0  0  0  0  0  0  0  0  0  0  0  0
   -1.3875  -15.2045    0.0000 C   0  0  0  0  0  0  0  0  0  0  0  0
   -1.3875  -13.7045    0.0000 C   0  0  0  0  0  0  0  0  0  0  0  0
   -0.0884  -15.9545    0.0000 C   0  0  0  0  0  0  0  0  0  0  0  0
   -0.0884  -12.9545    0.0000 C   0  0  0  0  0  0  0  0  0  0  0  0
    1.2106  -15.2045    0.0000 C   0  0  0  0  0  0  0  0  0  0  0  0
    1.2106  -13.7045    0.0000 C   0  0  0  0  0  0  0  0  0  0  0  0
   -1.3875  -10.7045    0.0000 C   0  0  0  0  0  0  0  0  0  0  0  0
   -2.6865  -12.9545    0.0000 C   0  0  0  0  0  0  0  0  0  0  0  0
   -3.9855  -13.7045    0.0000 O   0  0  0  0  0  0  0  0  0  0  0  0
   -6.7034   -7.7811    0.0000 C   0  0  0  0  0  0  0  0  0  0  0  0
   -0.9971   -5.9270    0.0000 C   0  0  0  0  0  0  0  0  0  0  0  0
  1 23  1  0  0  0  0
  2 26  2  0  0  0  0
  2 27  1  0  0  0  0
  3 18  1  0  0  0  0
  3 26  1  0  0  0  0
  4 11  1  0  0  0  0
  4 17  1  0  0  0  0
  4 26  1  0  0  0  0
  5 15  1  0  0  0  0
  6  8  2  0  0  0  0
  6  7  1  0  0  0  0
  7 10  2  0  0  0  0
  7 29  1  0  0  0  0
  8  9  1  0  0  0  0
  9 11  2  0  0  0  0
  9 30  1  0  0  0  0
 10 11  1  0  0  0  0
 12 13  2  0  0  0  0
 12 14  1  0  0  0  0
 13 15  1  0  0  0  0
 14 16  2  0  0  0  0
 14 17  1  0  0  0  0
 15 19  2  0  0  0  0
 16 19  1  0  0  0  0
 17 18  2  0  0  0  0
 20 22  2  0  0  0  0
 20 21  1  0  0  0  0
 21 23  2  0  0  0  0
 21 27  1  0  0  0  0
 22 24  1  0  0  0  0
 23 25  1  0  0  0  0
 24 25  2  0  0  0  0
 27 28  2  0  0  0  0
M  END
