88883
 OpenBabel03021519512D

 18 20  0  0  0  0  0  0  0  0999 V2000
   -1.1444   -8.9912    0.0000 C   0  0  0  0  0  0  0  0  0  0  0  0
   -0.6808  -10.4178    0.0000 C   0  0  0  0  0  0  0  0  0  0  0  0
   -0.1407   -7.8765    0.0000 C   0  0  0  0  0  0  0  0  0  0  0  0
    0.7864  -10.7296    0.0000 C   0  0  0  0  0  0  0  0  0  0  0  0
    1.2410   -5.0567    0.0000 C   0  0  0  0  0  0  0  0  0  0  0  0
    1.3265   -8.1883    0.0000 C   0  0  0  0  0  0  0  0  0  0  0  0
    1.7901   -9.6149    0.0000 C   0  0  0  0  0  0  0  0  0  0  0  0
    1.2410   -3.5567    0.0000 C   0  0  0  0  0  0  0  0  0  0  0  0
    2.5401   -7.3067    0.0000 N   0  0  0  0  0  0  0  0  0  0  0  0
    2.5400   -1.3067    0.0000 H   0  0  0  0  0  0  0  0  0  0  0  0
    2.5401   -5.8067    0.0000 C   0  0  0  0  0  0  0  0  0  0  0  0
    2.5401   -2.8067    0.0000 N   0  0  0  0  0  0  0  0  0  0  0  0
    3.8391   -3.5567    0.0000 C   0  0  0  0  0  0  0  0  0  0  0  0
    3.2901   -9.6149    0.0000 N   0  0  0  0  0  0  0  0  0  0  0  0
    3.7536   -8.1883    0.0000 C   0  0  0  0  0  0  0  0  0  0  0  0
    3.8391   -5.0567    0.0000 C   0  0  0  0  0  0  0  0  0  0  0  0
    4.1718  -10.8284    0.0000 H   0  0  0  0  0  0  0  0  0  0  0  0
    5.1802   -7.7248    0.0000 O   0  0  0  0  0  0  0  0  0  0  0  0
  1  3  2  0  0  0  0
  1  2  1  0  0  0  0
  2  4  2  0  0  0  0
  3  6  1  0  0  0  0
  4  7  1  0  0  0  0
  5  8  1  0  0  0  0
  5 11  2  0  0  0  0
  6  9  1  0  0  0  0
  6  7  2  0  0  0  0
  7 14  1  0  0  0  0
  8 12  1  0  0  0  0
  9 11  1  0  0  0  0
  9 15  1  0  0  0  0
 10 12  1  0  0  0  0
 11 16  1  0  0  0  0
 12 13  1  0  0  0  0
 13 16  1  0  0  0  0
 14 15  1  0  0  0  0
 14 17  1  0  0  0  0
 15 18  2  0  0  0  0
M  END
