104969
 OpenBabel03021519512D

 13 14  0  0  0  0  0  0  0  0999 V2000
    4.6471    3.0000    0.0000 N   0  0  0  0  0  0  0  0  0  0  0  0
    5.9462    5.2500    0.0000 N   0  0  0  0  0  0  0  0  0  0  0  0
    5.9462    0.7500    0.0000 O   0  0  0  0  0  0  0  0  0  0  0  0
    8.5442    5.2500    0.0000 Cl  0  0  0  0  0  0  0  0  0  0  0  0
    3.3481    5.2500    0.0000 C   0  0  0  0  0  0  0  0  0  0  0  0
    4.6471    4.5000    0.0000 C   0  0  0  0  0  0  0  0  0  0  0  0
    2.0490    4.5000    0.0000 C   0  0  0  0  0  0  0  0  0  0  0  0
    2.0490    3.0000    0.0000 C   0  0  0  0  0  0  0  0  0  0  0  0
    3.3481    2.2500    0.0000 C   0  0  0  0  0  0  0  0  0  0  0  0
    7.2452    4.5000    0.0000 C   0  0  0  0  0  0  0  0  0  0  0  0
    7.2452    3.0000    0.0000 C   0  0  0  0  0  0  0  0  0  0  0  0
    5.9462    2.2500    0.0000 C   0  0  0  0  0  0  0  0  0  0  0  0
    0.7500    2.2500    0.0000 C   0  0  0  0  0  0  0  0  0  0  0  0
  1  6  1  0  0  0  0
  1  9  1  0  0  0  0
  1 12  1  0  0  0  0
  2  6  2  0  0  0  0
  2 10  1  0  0  0  0
  3 12  2  0  0  0  0
  4 10  1  0  0  0  0
  5  7  2  0  0  0  0
  5  6  1  0  0  0  0
  7  8  1  0  0  0  0
  8  9  2  0  0  0  0
  8 13  1  0  0  0  0
 10 11  2  0  0  0  0
 11 12  1  0  0  0  0
M  END
