343550
 OpenBabel03021519512D

 17 18  0  0  0  0  0  0  0  0999 V2000
   -5.3115    0.1177    0.0000 Br  0  0  0  0  0  0  0  0  0  0  0  0
   -3.8285    0.3434    0.0000 C   0  0  0  0  0  0  0  0  0  0  0  0
   -3.2826    1.7406    0.0000 C   0  0  0  0  0  0  0  0  0  0  0  0
   -2.8916   -0.8279    0.0000 C   0  0  0  0  0  0  0  0  0  0  0  0
   -1.7997    1.9663    0.0000 C   0  0  0  0  0  0  0  0  0  0  0  0
   -1.4087   -0.6022    0.0000 C   0  0  0  0  0  0  0  0  0  0  0  0
   -0.8627    0.7949    0.0000 C   0  0  0  0  0  0  0  0  0  0  0  0
    1.3092    2.3531    0.0000 N   0  0  0  0  0  0  0  0  0  0  0  0
    0.6202    1.0207    0.0000 N   0  0  0  0  0  0  0  0  0  0  0  0
    1.4309   -1.5264    0.0000 S   0  0  0  0  0  0  0  0  0  0  0  0
    1.6745   -0.0463    0.0000 C   0  0  0  0  0  0  0  0  0  0  0  0
    3.0151    0.6266    0.0000 N   0  0  0  0  0  0  0  0  0  0  0  0
    2.7893    2.1095    0.0000 N   0  0  0  0  0  0  0  0  0  0  0  0
    3.9945   -1.9483    0.0000 C   0  0  0  0  0  0  0  0  0  0  0  0
   -3.4375   -2.2250    0.0000 C   0  0  0  0  0  0  0  0  0  0  0  0
    2.5909   -2.4774    0.0000 C   0  0  0  0  0  0  0  0  0  0  0  0
    5.3981   -1.4192    0.0000 C   0  0  0  0  0  0  0  0  0  0  0  0
  1  2  1  0  0  0  0
  2  3  2  0  0  0  0
  2  4  1  0  0  0  0
  3  5  1  0  0  0  0
  4  6  2  0  0  0  0
  4 15  1  0  0  0  0
  5  7  2  0  0  0  0
  6  7  1  0  0  0  0
  7  9  1  0  0  0  0
  8 13  2  0  0  0  0
  8  9  1  0  0  0  0
  9 11  1  0  0  0  0
 10 11  1  0  0  0  0
 10 16  1  0  0  0  0
 11 12  2  0  0  0  0
 12 13  1  0  0  0  0
 14 16  1  0  0  0  0
 14 17  3  0  0  0  0
M  END
