30625
 OpenBabel03021519512D

 32 33  0  0  1  0  0  0  0  0999 V2000
   -5.3940    2.0388    0.0000 H   0  0  0  0  0  0  0  0  0  0  0  0
   -4.0753    1.3239    0.0000 C   0  0  2  0  0  0  0  0  0  0  0  0
   -2.7566    0.6090    0.0000 C   0  0  2  0  0  0  0  0  0  0  0  0
   -2.4769   -1.8325    0.0000 O   0  0  0  0  0  0  0  0  0  0  0  0
    0.8815   -1.1354    0.0000 H   0  0  0  0  0  0  0  0  0  0  0  0
    2.0794   -3.8858    0.0000 N   0  0  3  0  0  0  0  0  0  0  0  0
    2.4585   -0.0230    0.0000 O   0  0  0  0  0  0  0  0  0  0  0  0
    3.9288    2.1191    0.0000 C   0  0  0  0  0  0  0  0  0  0  0  0
    2.6920    2.9679    0.0000 C   0  0  0  0  0  0  0  0  0  0  0  0
    2.8088    4.4634    0.0000 H   0  0  0  0  0  0  0  0  0  0  0  0
    2.6033   -1.5160    0.0000 C   0  0  2  0  0  0  0  0  0  0  0  0
    1.4805   -2.5106    0.0000 C   0  0  1  0  0  0  0  0  0  0  0  0
    3.8962   -2.2765    0.0000 C   0  0  0  0  0  0  0  0  0  0  0  0
   -0.0126   -2.6553    0.0000 C   0  0  0  0  0  0  0  0  0  0  0  0
   -0.3363   -4.1200    0.0000 C   0  0  0  0  0  0  0  0  0  0  0  0
    3.5725   -3.7411    0.0000 C   0  0  0  0  0  0  0  0  0  0  0  0
    0.9566   -4.8805    0.0000 C   0  0  0  0  0  0  0  0  0  0  0  0
   -4.7902    0.0052    0.0000 C   0  0  0  0  0  0  0  0  0  0  0  0
   -3.3604    2.6425    0.0000 O   0  0  0  0  0  0  0  0  0  0  0  0
   -4.1450    3.9210    0.0000 C   0  0  0  0  0  0  0  0  0  0  0  0
   -1.4380   -0.1059    0.0000 O   0  0  0  0  0  0  0  0  0  0  0  0
   -3.4715   -0.7097    0.0000 C   0  0  0  0  0  0  0  0  0  0  0  0
   -4.9412   -1.0097    0.0000 O   0  0  0  0  0  0  0  0  0  0  0  0
    3.8120    0.6236    0.0000 C   0  0  0  0  0  0  0  0  0  0  0  0
    5.0487   -0.2252    0.0000 O   0  0  0  0  0  0  0  0  0  0  0  0
    5.2822    2.7657    0.0000 C   0  0  0  0  0  0  0  0  0  0  0  0
    1.3385    2.3213    0.0000 C   0  0  0  0  0  0  0  0  0  0  0  0
   -1.0072   -1.5325    0.0000 C   0  0  0  0  0  0  0  0  0  0  0  0
   -1.4782    1.3935    0.0000 C   0  0  0  0  0  0  0  0  0  0  0  0
   -2.2627    2.6720    0.0000 O   0  0  0  0  0  0  0  0  0  0  0  0
   -0.1997    2.1781    0.0000 C   0  0  0  0  0  0  0  0  0  0  0  0
   -0.6936    0.1151    0.0000 C   0  0  0  0  0  0  0  0  0  0  0  0
  2  1  1  1  0  0  0
  2 18  1  0  0  0  0
  2 19  1  0  0  0  0
  3  2  1  0  0  0  0
  3 21  1  6  0  0  0
  3 22  1  0  0  0  0
  3 29  1  0  0  0  0
  4 22  1  0  0  0  0
  4 28  1  0  0  0  0
  6 12  1  0  0  0  0
  6 16  1  0  0  0  0
  6 17  1  0  0  0  0
  7 24  1  0  0  0  0
  8  9  2  0  0  0  0
  8 24  1  0  0  0  0
  8 26  1  0  0  0  0
  9 10  1  0  0  0  0
  9 27  1  0  0  0  0
 11  7  1  1  0  0  0
 11 12  1  0  0  0  0
 11 13  1  0  0  0  0
 12  5  1  1  0  0  0
 12 14  1  0  0  0  0
 13 16  1  0  0  0  0
 14 15  2  0  0  0  0
 14 28  1  0  0  0  0
 15 17  1  0  0  0  0
 19 20  1  0  0  0  0
 22 23  2  0  0  0  0
 24 25  2  0  0  0  0
 29 30  1  0  0  0  0
 29 31  1  0  0  0  0
 29 32  1  0  0  0  0
M  END
