379388
 OpenBabel03021519512D

 25 27  0  0  0  0  0  0  0  0999 V2000
    1.5000    3.7530    0.0000 O   0  0  0  0  0  0  0  0  0  0  0  0
    3.0000    3.7530    0.0000 C   0  0  0  0  0  0  0  0  0  0  0  0
    3.0000    1.1549    0.0000 O   0  0  0  0  0  0  0  0  0  0  0  0
    3.7500    2.4540    0.0000 C   0  0  0  0  0  0  0  0  0  0  0  0
    3.7500    5.0521    0.0000 C   0  0  0  0  0  0  0  0  0  0  0  0
    5.2500    2.4540    0.0000 C   0  0  0  0  0  0  0  0  0  0  0  0
    5.2500    5.0521    0.0000 C   0  0  0  0  0  0  0  0  0  0  0  0
    6.0000    3.7530    0.0000 C   0  0  0  0  0  0  0  0  0  0  0  0
    8.2500    5.0521    0.0000 C   0  0  0  0  0  0  0  0  0  0  0  0
   10.2820    2.6676    0.0000 C   0  0  0  0  0  0  0  0  0  0  0  0
   11.2857    1.5528    0.0000 C   0  0  0  0  0  0  0  0  0  0  0  0
    7.6399    6.4224    0.0000 N   0  0  0  0  0  0  0  0  0  0  0  0
    9.7418    5.2089    0.0000 N   0  0  0  0  0  0  0  0  0  0  0  0
   10.7455    4.0941    0.0000 C   0  0  0  0  0  0  0  0  0  0  0  0
   12.7529    1.8647    0.0000 C   0  0  0  0  0  0  0  0  0  0  0  0
   13.7566    0.7500    0.0000 F   0  0  0  0  0  0  0  0  0  0  0  0
    8.7546    7.4261    0.0000 N   0  0  0  0  0  0  0  0  0  0  0  0
   12.2127    4.4060    0.0000 C   0  0  0  0  0  0  0  0  0  0  0  0
   13.2164    3.2913    0.0000 C   0  0  0  0  0  0  0  0  0  0  0  0
   10.0537    6.6761    0.0000 C   0  0  0  0  0  0  0  0  0  0  0  0
   11.4240    7.2862    0.0000 S   0  0  0  0  0  0  0  0  0  0  0  0
    0.7500    5.0521    0.0000 C   0  0  0  0  0  0  0  0  0  0  0  0
    1.5000    1.1549    0.0000 C   0  0  0  0  0  0  0  0  0  0  0  0
    7.5000    3.7530    0.0000 C   0  0  0  0  0  0  0  0  0  0  0  0
   11.5808    8.7780    0.0000 C   0  0  0  0  0  0  0  0  0  0  0  0
  1  2  1  0  0  0  0
  1 22  1  0  0  0  0
  2  5  2  0  0  0  0
  2  4  1  0  0  0  0
  3  4  1  0  0  0  0
  3 23  1  0  0  0  0
  4  6  2  0  0  0  0
  5  7  1  0  0  0  0
  6  8  1  0  0  0  0
  7  8  2  0  0  0  0
  8 24  1  0  0  0  0
  9 12  2  0  0  0  0
  9 13  1  0  0  0  0
  9 24  1  0  0  0  0
 10 14  2  0  0  0  0
 10 11  1  0  0  0  0
 11 15  2  0  0  0  0
 12 17  1  0  0  0  0
 13 20  1  0  0  0  0
 13 14  1  0  0  0  0
 14 18  1  0  0  0  0
 15 19  1  0  0  0  0
 15 16  1  0  0  0  0
 17 20  2  0  0  0  0
 18 19  2  0  0  0  0
 20 21  1  0  0  0  0
 21 25  1  0  0  0  0
M  END
