244387
 OpenBabel03021519512D

 23 23  0  0  1  0  0  0  0  0999 V2000
    5.4005    2.7011    0.0000 O   0  0  0  0  0  0  0  0  0  0  0  0
    6.0106    1.3307    0.0000 C   0  0  0  0  0  0  0  0  0  0  0  0
    7.4779    1.0189    0.0000 C   0  0  0  0  0  0  0  0  0  0  0  0
    5.2606    0.0317    0.0000 O   0  0  0  0  0  0  0  0  0  0  0  0
    7.6347   -0.4729    0.0000 C   0  0  0  0  0  0  0  0  0  0  0  0
    6.2643   -1.0830    0.0000 C   0  0  3  0  0  0  0  0  0  0  0  0
    6.2643   -3.6811    0.0000 C   0  0  0  0  0  0  0  0  0  0  0  0
    7.0143   -2.3820    0.0000 C   0  0  3  0  0  0  0  0  0  0  0  0
    5.0508   -1.9647    0.0000 C   0  0  0  0  0  0  0  0  0  0  0  0
    5.2076   -3.4565    0.0000 O   0  0  0  0  0  0  0  0  0  0  0  0
    3.6805   -1.3546    0.0000 O   0  0  0  0  0  0  0  0  0  0  0  0
    7.0143   -4.9801    0.0000 C   0  0  0  0  0  0  0  0  0  0  0  0
    6.2644   -6.2792    0.0000 C   0  0  0  0  0  0  0  0  0  0  0  0
    7.0144   -7.5782    0.0000 C   0  0  0  0  0  0  0  0  0  0  0  0
    8.5144   -7.5782    0.0000 C   0  0  0  0  0  0  0  0  0  0  0  0
    9.2644   -8.8772    0.0000 C   0  0  0  0  0  0  0  0  0  0  0  0
   10.7644   -8.8772    0.0000 C   0  0  0  0  0  0  0  0  0  0  0  0
   11.5144  -10.1763    0.0000 C   0  0  0  0  0  0  0  0  0  0  0  0
   10.7644  -11.4753    0.0000 C   0  0  0  0  0  0  0  0  0  0  0  0
    8.5143   -2.3820    0.0000 C   0  0  0  0  0  0  0  0  0  0  0  0
    9.2643   -1.0830    0.0000 O   0  0  0  0  0  0  0  0  0  0  0  0
    9.2643   -3.6811    0.0000 O   0  0  0  0  0  0  0  0  0  0  0  0
    9.2644  -11.4753    0.0000 C   0  0  0  0  0  0  0  0  0  0  0  0
  1  2  2  0  0  0  0
  2  4  1  0  0  0  0
  2  3  1  0  0  0  0
  3  5  1  0  0  0  0
  4  6  1  0  0  0  0
  5  6  1  0  0  0  0
  6  8  1  0  0  0  0
  6  9  1  0  0  0  0
  7  8  1  0  0  0  0
  7 12  1  0  0  0  0
  8 20  1  0  0  0  0
  9 10  2  0  0  0  0
  9 11  1  0  0  0  0
 12 13  1  0  0  0  0
 13 14  1  0  0  0  0
 14 15  1  0  0  0  0
 15 16  1  0  0  0  0
 16 17  1  0  0  0  0
 17 18  1  0  0  0  0
 18 19  1  0  0  0  0
 19 23  1  0  0  0  0
 20 21  2  0  0  0  0
 20 22  1  0  0  0  0
M  END
