92849
 OpenBabel03021519512D

 19 22  0  0  1  0  0  0  0  0999 V2000
    0.7109    4.8161    0.0000 O   0  0  0  0  0  0  0  0  0  0  0  0
    2.1045    8.0449    0.0000 O   0  0  0  0  0  0  0  0  0  0  0  0
    3.3180    5.6632    0.0000 N   0  0  0  0  0  0  0  0  0  0  0  0
    3.7362    3.0231    0.0000 O   0  0  0  0  0  0  0  0  0  0  0  0
    5.2081    7.5533    0.0000 N   0  0  0  0  0  0  0  0  0  0  0  0
    5.9581    5.2450    0.0000 S   0  0  0  0  0  0  0  0  0  0  0  0
    0.8909    5.6632    0.0000 C   0  0  3  0  0  0  0  0  0  0  0  0
    2.1045    6.5449    0.0000 C   0  0  0  0  0  0  0  0  0  0  0  0
   -0.5763    5.9751    0.0000 C   0  0  3  0  0  0  0  0  0  0  0  0
   -1.5800    4.8603    0.0000 C   0  0  0  0  0  0  0  0  0  0  0  0
    1.3545    4.2366    0.0000 C   0  0  3  0  0  0  0  0  0  0  0  0
   -1.1164    3.4338    0.0000 C   0  0  0  0  0  0  0  0  0  0  0  0
    0.3508    3.1219    0.0000 C   0  0  3  0  0  0  0  0  0  0  0  0
    2.8545    4.2366    0.0000 C   0  0  0  0  0  0  0  0  0  0  0  0
    7.1716    6.1267    0.0000 C   0  0  0  0  0  0  0  0  0  0  0  0
    6.7081    7.5533    0.0000 C   0  0  0  0  0  0  0  0  0  0  0  0
    4.7446    6.1267    0.0000 C   0  0  0  0  0  0  0  0  0  0  0  0
    0.5791    7.1304    0.0000 C   0  0  0  0  0  0  0  0  0  0  0  0
    1.9646    2.8663    0.0000 C   0  0  0  0  0  0  0  0  0  0  0  0
  1  9  1  0  0  0  0
  1 13  1  0  0  0  0
  2  8  2  0  0  0  0
  3  8  1  0  0  0  0
  3 14  1  0  0  0  0
  3 17  1  0  0  0  0
  4 14  2  0  0  0  0
  5 17  2  0  0  0  0
  5 16  1  0  0  0  0
  6 15  1  0  0  0  0
  6 17  1  0  0  0  0
  7  8  1  0  0  0  0
  7  9  1  0  0  0  0
  7 11  1  0  0  0  0
  7 18  1  0  0  0  0
  9 10  1  0  0  0  0
 10 12  1  0  0  0  0
 11 13  1  0  0  0  0
 11 14  1  0  0  0  0
 11 19  1  0  0  0  0
 12 13  1  0  0  0  0
 15 16  2  0  0  0  0
M  END
