645987
 OpenBabel03021519512D

 18 20  0  0  0  0  0  0  0  0999 V2000
    3.5726    8.9287    0.0000 O   0  0  0  0  0  0  0  0  0  0  0  0
    3.5726    7.4287    0.0000 C   0  0  0  0  0  0  0  0  0  0  0  0
    2.2735    6.6787    0.0000 C   0  0  0  0  0  0  0  0  0  0  0  0
    2.2735    5.1787    0.0000 C   0  0  0  0  0  0  0  0  0  0  0  0
    0.9745    4.4287    0.0000 N   0  0  0  0  0  0  0  0  0  0  0  0
   -0.3958    5.0388    0.0000 C   0  0  0  0  0  0  0  0  0  0  0  0
   -1.3995    3.9240    0.0000 C   0  0  0  0  0  0  0  0  0  0  0  0
   -0.6495    2.6250    0.0000 C   0  0  0  0  0  0  0  0  0  0  0  0
    0.8177    2.9369    0.0000 N   0  0  0  0  0  0  0  0  0  0  0  0
    3.5726    4.4287    0.0000 C   0  0  0  0  0  0  0  0  0  0  0  0
    3.5726    2.9287    0.0000 O   0  0  0  0  0  0  0  0  0  0  0  0
    4.8716    5.1787    0.0000 C   0  0  0  0  0  0  0  0  0  0  0  0
    4.8716    6.6787    0.0000 C   0  0  0  0  0  0  0  0  0  0  0  0
    6.1706    7.4286    0.0000 N   0  0  0  0  0  0  0  0  0  0  0  0
    7.5410    6.8185    0.0000 C   0  0  0  0  0  0  0  0  0  0  0  0
    8.5447    7.9333    0.0000 C   0  0  0  0  0  0  0  0  0  0  0  0
    7.7947    9.2323    0.0000 C   0  0  0  0  0  0  0  0  0  0  0  0
    6.3274    8.9204    0.0000 N   0  0  0  0  0  0  0  0  0  0  0  0
  1  2  1  0  0  0  0
  2  3  2  0  0  0  0
  2 13  1  0  0  0  0
  3  4  1  0  0  0  0
  4  5  1  0  0  0  0
  4 10  2  0  0  0  0
  5  6  1  0  0  0  0
  5  9  1  0  0  0  0
  6  7  2  0  0  0  0
  7  8  1  0  0  0  0
  8  9  2  0  0  0  0
 10 11  1  0  0  0  0
 10 12  1  0  0  0  0
 12 13  2  0  0  0  0
 13 14  1  0  0  0  0
 14 15  1  0  0  0  0
 14 18  1  0  0  0  0
 15 16  2  0  0  0  0
 16 17  1  0  0  0  0
 17 18  2  0  0  0  0
M  END
