42212
 OpenBabel03021519512D

 17 19  0  0  1  0  0  0  0  0999 V2000
   -5.2838    2.1846    0.0000 O   0  0  0  0  0  0  0  0  0  0  0  0
   -7.9239   -2.3882    0.0000 O   0  0  0  0  0  0  0  0  0  0  0  0
   -3.6436   -0.3109    0.0000 N   0  0  0  0  0  0  0  0  0  0  0  0
   -6.3985    1.1809    0.0000 C   0  0  0  0  0  0  0  0  0  0  0  0
   -6.2417   -0.3109    0.0000 C   0  0  3  0  0  0  0  0  0  0  0  0
   -7.8657    1.4927    0.0000 C   0  0  0  0  0  0  0  0  0  0  0  0
   -8.6157    2.7918    0.0000 C   0  0  0  0  0  0  0  0  0  0  0  0
  -10.1157    2.7918    0.0000 C   0  0  0  0  0  0  0  0  0  0  0  0
   -7.6120   -0.9210    0.0000 C   0  0  0  0  0  0  0  0  0  0  0  0
   -4.9427   -1.0609    0.0000 C   0  0  0  0  0  0  0  0  0  0  0  0
   -4.9426   -2.5609    0.0000 C   0  0  0  0  0  0  0  0  0  0  0  0
   -8.6157    0.1937    0.0000 C   0  0  0  0  0  0  0  0  0  0  0  0
  -10.8657    1.4927    0.0000 C   0  0  0  0  0  0  0  0  0  0  0  0
   -3.6436   -3.3109    0.0000 C   0  0  0  0  0  0  0  0  0  0  0  0
   -2.3446   -1.0609    0.0000 C   0  0  0  0  0  0  0  0  0  0  0  0
   -2.3446   -2.5609    0.0000 C   0  0  0  0  0  0  0  0  0  0  0  0
  -10.1157    0.1937    0.0000 C   0  0  0  0  0  0  0  0  0  0  0  0
  1  4  2  0  0  0  0
  2  9  2  0  0  0  0
  3 10  2  0  0  0  0
  3 15  1  0  0  0  0
  4  5  1  0  0  0  0
  4  6  1  0  0  0  0
  5  9  1  0  0  0  0
  5 10  1  0  0  0  0
  6 12  2  0  0  0  0
  6  7  1  0  0  0  0
  7  8  2  0  0  0  0
  8 13  1  0  0  0  0
  9 12  1  0  0  0  0
 10 11  1  0  0  0  0
 11 14  2  0  0  0  0
 12 17  1  0  0  0  0
 13 17  2  0  0  0  0
 14 16  1  0  0  0  0
 15 16  2  0  0  0  0
M  END
