326182
 OpenBabel03021519512D

 23 26  0  0  0  0  0  0  0  0999 V2000
  -13.7000    4.7433    0.0000 C   0  0  0  0  0  0  0  0  0  0  0  0
  -13.6906    3.2434    0.0000 C   0  0  0  0  0  0  0  0  0  0  0  0
  -12.3870    2.5015    0.0000 C   0  0  0  0  0  0  0  0  0  0  0  0
  -11.0926    3.2596    0.0000 C   0  0  0  0  0  0  0  0  0  0  0  0
  -11.1020    4.7595    0.0000 C   0  0  0  0  0  0  0  0  0  0  0  0
  -12.4057    5.5014    0.0000 C   0  0  0  0  0  0  0  0  0  0  0  0
  -15.1295    5.1979    0.0000 O   0  0  0  0  0  0  0  0  0  0  0  0
  -16.0035    3.9789    0.0000 C   0  0  0  0  0  0  0  0  0  0  0  0
  -15.1143    2.7709    0.0000 O   0  0  0  0  0  0  0  0  0  0  0  0
   -8.4224    3.1363    0.0000 O   0  0  0  0  0  0  0  0  0  0  0  0
   -9.7889    2.5177    0.0000 C   0  0  0  0  0  0  0  0  0  0  0  0
   -9.6228    1.0269    0.0000 N   0  0  0  0  0  0  0  0  0  0  0  0
   -8.1537    0.7242    0.0000 N   0  0  0  0  0  0  0  0  0  0  0  0
   -7.4118    2.0279    0.0000 C   0  0  0  0  0  0  0  0  0  0  0  0
   -5.0318    0.9860    0.0000 C   0  0  0  0  0  0  0  0  0  0  0  0
   -3.5410    1.1521    0.0000 C   0  0  0  0  0  0  0  0  0  0  0  0
   -2.6518   -0.0559    0.0000 C   0  0  0  0  0  0  0  0  0  0  0  0
   -3.2533   -1.4300    0.0000 C   0  0  0  0  0  0  0  0  0  0  0  0
   -4.7441   -1.5961    0.0000 C   0  0  0  0  0  0  0  0  0  0  0  0
   -5.6333   -0.3881    0.0000 C   0  0  0  0  0  0  0  0  0  0  0  0
   -7.1241   -0.5542    0.0000 C   0  0  0  0  0  0  0  0  0  0  0  0
   -2.3641   -2.6380    0.0000 C   0  0  0  0  0  0  0  0  0  0  0  0
   -5.9210    2.1940    0.0000 N   0  0  0  0  0  0  0  0  0  0  0  0
  1  2  1  0  0  0  0
  1  6  2  0  0  0  0
  1  7  1  0  0  0  0
  2  3  2  0  0  0  0
  2  9  1  0  0  0  0
  3  4  1  0  0  0  0
  4  5  2  0  0  0  0
  4 11  1  0  0  0  0
  5  6  1  0  0  0  0
  7  8  1  0  0  0  0
  8  9  1  0  0  0  0
 10 11  1  0  0  0  0
 10 14  1  0  0  0  0
 11 12  2  0  0  0  0
 12 13  1  0  0  0  0
 13 14  2  0  0  0  0
 14 23  1  0  0  0  0
 15 16  2  0  0  0  0
 15 20  1  0  0  0  0
 15 23  1  0  0  0  0
 16 17  1  0  0  0  0
 17 18  2  0  0  0  0
 18 19  1  0  0  0  0
 18 22  1  0  0  0  0
 19 20  2  0  0  0  0
 20 21  1  0  0  0  0
M  END
