319709
 OpenBabel03021519512D

 25 28  0  0  1  0  0  0  0  0999 V2000
    3.8810    5.9461    0.0000 C   0  0  0  0  0  0  0  0  0  0  0  0
    4.6310    7.2452    0.0000 C   0  0  0  0  0  0  0  0  0  0  0  0
    4.6310    4.6471    0.0000 C   0  0  0  0  0  0  0  0  0  0  0  0
    6.1310    7.2452    0.0000 C   0  0  0  0  0  0  0  0  0  0  0  0
    6.1310    4.6471    0.0000 C   0  0  0  0  0  0  0  0  0  0  0  0
    6.8810    5.9462    0.0000 C   0  0  0  0  0  0  0  0  0  0  0  0
    8.3810    5.9462    0.0000 N   0  0  3  0  0  0  0  0  0  0  0  0
    9.1310    4.6471    0.0000 C   0  0  0  0  0  0  0  0  0  0  0  0
    9.1310    7.2452    0.0000 C   0  0  0  0  0  0  0  0  0  0  0  0
   10.6310    4.6471    0.0000 N   0  0  0  0  0  0  0  0  0  0  0  0
   10.6310    7.2452    0.0000 N   0  0  0  0  0  0  0  0  0  0  0  0
   11.3810    5.9462    0.0000 C   0  0  0  0  0  0  0  0  0  0  0  0
   12.8810    5.9462    0.0000 S   0  0  0  0  0  0  0  0  0  0  0  0
   11.3810    8.5442    0.0000 C   0  0  0  0  0  0  0  0  0  0  0  0
   10.6310    9.8433    0.0000 C   0  0  0  0  0  0  0  0  0  0  0  0
   11.3810   11.1423    0.0000 C   0  0  0  0  0  0  0  0  0  0  0  0
   12.8810   11.1423    0.0000 C   0  0  0  0  0  0  0  0  0  0  0  0
   13.6310    9.8433    0.0000 C   0  0  0  0  0  0  0  0  0  0  0  0
   12.8810    8.5442    0.0000 C   0  0  0  0  0  0  0  0  0  0  0  0
   11.3810    3.3481    0.0000 C   0  0  0  0  0  0  0  0  0  0  0  0
   12.8810    3.3481    0.0000 C   0  0  0  0  0  0  0  0  0  0  0  0
   13.6310    2.0490    0.0000 C   0  0  0  0  0  0  0  0  0  0  0  0
   12.8810    0.7500    0.0000 C   0  0  0  0  0  0  0  0  0  0  0  0
   11.3810    0.7500    0.0000 C   0  0  0  0  0  0  0  0  0  0  0  0
   10.6310    2.0490    0.0000 C   0  0  0  0  0  0  0  0  0  0  0  0
  1  2  1  0  0  0  0
  1  3  1  0  0  0  0
  2  4  1  0  0  0  0
  3  5  1  0  0  0  0
  4  6  1  0  0  0  0
  5  6  1  0  0  0  0
  6  7  1  0  0  0  0
  7  9  1  0  0  0  0
  7  8  1  0  0  0  0
  8 10  1  0  0  0  0
  9 11  1  0  0  0  0
 10 12  1  0  0  0  0
 10 20  1  0  0  0  0
 11 12  1  0  0  0  0
 11 14  1  0  0  0  0
 12 13  2  0  0  0  0
 14 15  2  0  0  0  0
 14 19  1  0  0  0  0
 15 16  1  0  0  0  0
 16 17  2  0  0  0  0
 17 18  1  0  0  0  0
 18 19  2  0  0  0  0
 20 21  2  0  0  0  0
 20 25  1  0  0  0  0
 21 22  1  0  0  0  0
 22 23  2  0  0  0  0
 23 24  1  0  0  0  0
 24 25  2  0  0  0  0
M  END
