5836
 OpenBabel03021519512D

 25 27  0  0  0  0  0  0  0  0999 V2000
    1.3104   -6.3283    0.0000 N   0  0  0  0  0  0  0  0  0  0  0  0
    2.6095   -4.0783    0.0000 N   0  0  0  0  0  0  0  0  0  0  0  0
    3.9085   -3.3283    0.0000 H   0  0  0  0  0  0  0  0  0  0  0  0
    3.9085   -6.3283    0.0000 S   0  0  0  0  0  0  0  0  0  0  0  0
    1.3104   -3.3283    0.0000 C   0  0  0  0  0  0  0  0  0  0  0  0
    0.0114   -4.0783    0.0000 C   0  0  0  0  0  0  0  0  0  0  0  0
    0.0114   -5.5783    0.0000 C   0  0  0  0  0  0  0  0  0  0  0  0
    2.6095   -5.5783    0.0000 C   0  0  0  0  0  0  0  0  0  0  0  0
    1.3104   -7.8283    0.0000 C   0  0  0  0  0  0  0  0  0  0  0  0
    2.6095   -8.5783    0.0000 C   0  0  0  0  0  0  0  0  0  0  0  0
    0.0114   -8.5783    0.0000 C   0  0  0  0  0  0  0  0  0  0  0  0
   -1.2876   -7.8283    0.0000 C   0  0  0  0  0  0  0  0  0  0  0  0
   -2.5867   -8.5784    0.0000 C   0  0  0  0  0  0  0  0  0  0  0  0
    2.6095  -10.0783    0.0000 C   0  0  0  0  0  0  0  0  0  0  0  0
    0.0114  -10.0783    0.0000 C   0  0  0  0  0  0  0  0  0  0  0  0
   -2.5867  -10.0783    0.0000 C   0  0  0  0  0  0  0  0  0  0  0  0
    1.3105  -10.8283    0.0000 C   0  0  0  0  0  0  0  0  0  0  0  0
   -1.2876  -10.8283    0.0000 C   0  0  0  0  0  0  0  0  0  0  0  0
   -3.8857  -10.8284    0.0000 S   0  0  0  0  0  0  0  0  0  0  0  0
   -4.6357   -9.5293    0.0000 O   0  0  0  0  0  0  0  0  0  0  0  0
   -5.1847  -11.5784    0.0000 O   0  0  0  0  0  0  0  0  0  0  0  0
   -3.1357  -12.1274    0.0000 O   0  0  0  0  0  0  0  0  0  0  0  0
   -1.2876   -6.3283    0.0000 C   0  0  0  0  0  0  0  0  0  0  0  0
    0.3462   -2.1793    0.0000 C   0  0  0  0  0  0  0  0  0  0  0  0
    2.2746   -2.1793    0.0000 C   0  0  0  0  0  0  0  0  0  0  0  0
  1  7  1  0  0  0  0
  1  8  1  0  0  0  0
  1  9  1  0  0  0  0
  2  5  1  0  0  0  0
  2  8  1  0  0  0  0
  2  3  1  0  0  0  0
  4  8  2  0  0  0  0
  5  6  1  0  0  0  0
  5 24  1  0  0  0  0
  5 25  1  0  0  0  0
  6  7  2  0  0  0  0
  7 23  1  0  0  0  0
  9 10  2  0  0  0  0
  9 11  1  0  0  0  0
 10 14  1  0  0  0  0
 11 15  2  0  0  0  0
 11 12  1  0  0  0  0
 12 13  2  0  0  0  0
 13 16  1  0  0  0  0
 14 17  2  0  0  0  0
 15 18  1  0  0  0  0
 15 17  1  0  0  0  0
 16 18  2  0  0  0  0
 16 19  1  0  0  0  0
 19 20  2  0  0  0  0
 19 21  2  0  0  0  0
 19 22  1  0  0  0  0
M  END
