281307
 OpenBabel03021519512D

 21 23  0  0  0  0  0  0  0  0999 V2000
   -4.3113    9.2807    0.0000 N   0  0  0  0  0  0  0  0  0  0  0  0
   -3.4296   10.4942    0.0000 N   0  0  0  0  0  0  0  0  0  0  0  0
   -3.4296    8.0672    0.0000 N   0  0  0  0  0  0  0  0  0  0  0  0
   -2.0030    8.5307    0.0000 C   0  0  0  0  0  0  0  0  0  0  0  0
   -2.0030   10.0307    0.0000 C   0  0  0  0  0  0  0  0  0  0  0  0
   -0.7040   10.7807    0.0000 C   0  0  0  0  0  0  0  0  0  0  0  0
   -0.7040    7.7807    0.0000 N   0  0  0  0  0  0  0  0  0  0  0  0
    0.5951   10.0307    0.0000 N   0  0  0  0  0  0  0  0  0  0  0  0
    0.5951    8.5307    0.0000 C   0  0  0  0  0  0  0  0  0  0  0  0
    1.8941   10.7807    0.0000 H   0  0  0  0  0  0  0  0  0  0  0  0
    1.8941    7.7807    0.0000 C   0  0  0  0  0  0  0  0  0  0  0  0
    1.8941    6.2807    0.0000 Cl  0  0  0  0  0  0  0  0  0  0  0  0
    3.1931    7.0307    0.0000 Cl  0  0  0  0  0  0  0  0  0  0  0  0
    3.1931    8.5307    0.0000 Cl  0  0  0  0  0  0  0  0  0  0  0  0
   -3.8931    6.6406    0.0000 C   0  0  0  0  0  0  0  0  0  0  0  0
   -2.8894    5.5259    0.0000 C   0  0  0  0  0  0  0  0  0  0  0  0
   -1.4222    5.8377    0.0000 C   0  0  0  0  0  0  0  0  0  0  0  0
   -0.4185    4.7230    0.0000 C   0  0  0  0  0  0  0  0  0  0  0  0
   -0.8820    3.2964    0.0000 C   0  0  0  0  0  0  0  0  0  0  0  0
   -2.3493    2.9846    0.0000 C   0  0  0  0  0  0  0  0  0  0  0  0
   -3.3529    4.0993    0.0000 C   0  0  0  0  0  0  0  0  0  0  0  0
  1  2  2  0  0  0  0
  1  3  1  0  0  0  0
  2  5  1  0  0  0  0
  3  4  1  0  0  0  0
  3 15  1  0  0  0  0
  4  5  2  0  0  0  0
  4  7  1  0  0  0  0
  5  6  1  0  0  0  0
  6  8  1  0  0  0  0
  7  9  2  0  0  0  0
  8 10  1  0  0  0  0
  8  9  1  0  0  0  0
  9 11  1  0  0  0  0
 11 14  1  0  0  0  0
 11 13  1  0  0  0  0
 11 12  1  0  0  0  0
 15 16  1  0  0  0  0
 16 17  2  0  0  0  0
 16 21  1  0  0  0  0
 17 18  1  0  0  0  0
 18 19  2  0  0  0  0
 19 20  1  0  0  0  0
 20 21  2  0  0  0  0
M  END
