114997
 OpenBabel03021519512D

 24 26  0  0  1  0  0  0  0  0999 V2000
   -8.2548    6.7812    0.0000 O   0  0  0  0  0  0  0  0  0  0  0  0
  -10.6818    6.7812    0.0000 N   0  0  0  0  0  0  0  0  0  0  0  0
   -5.5712    2.1495    0.0000 C   0  0  0  0  0  0  0  0  0  0  0  0
   -4.2721    1.3995    0.0000 C   0  0  0  0  0  0  0  0  0  0  0  0
   -6.8702    1.3995    0.0000 C   0  0  0  0  0  0  0  0  0  0  0  0
   -4.2721   -0.1005    0.0000 C   0  0  0  0  0  0  0  0  0  0  0  0
   -6.8702   -0.1005    0.0000 C   0  0  0  0  0  0  0  0  0  0  0  0
   -5.5712   -0.8505    0.0000 C   0  0  0  0  0  0  0  0  0  0  0  0
   -7.9683    9.5068    0.0000 C   0  0  0  0  0  0  0  0  0  0  0  0
   -8.7183    8.2078    0.0000 C   0  0  0  0  0  0  0  0  0  0  0  0
   -8.7183   10.8058    0.0000 C   0  0  0  0  0  0  0  0  0  0  0  0
  -10.2183    8.2078    0.0000 C   0  0  0  0  0  0  0  0  0  0  0  0
  -10.2183   10.8058    0.0000 C   0  0  0  0  0  0  0  0  0  0  0  0
  -10.9683    9.5068    0.0000 C   0  0  0  0  0  0  0  0  0  0  0  0
   -9.4683    5.8995    0.0000 C   0  0  0  0  0  0  0  0  0  0  0  0
   -9.4683    4.3995    0.0000 N   0  0  0  0  0  0  0  0  0  0  0  0
   -6.8702    4.3995    0.0000 C   0  0  0  0  0  0  0  0  0  0  0  0
   -6.8702    5.8995    0.0000 O   0  0  0  0  0  0  0  0  0  0  0  0
   -8.1692    3.6495    0.0000 C   0  0  3  0  0  0  0  0  0  0  0  0
   -8.1692    2.1495    0.0000 C   0  0  0  0  0  0  0  0  0  0  0  0
   -5.5712    3.6495    0.0000 O   0  0  0  0  0  0  0  0  0  0  0  0
   -4.2721    4.3995    0.0000 C   0  0  0  0  0  0  0  0  0  0  0  0
   -2.9731    3.6495    0.0000 C   0  0  0  0  0  0  0  0  0  0  0  0
   -2.9731   -0.8505    0.0000 O   0  0  0  0  0  0  0  0  0  0  0  0
  1 10  1  0  0  0  0
  1 15  1  0  0  0  0
  2 15  2  0  0  0  0
  2 12  1  0  0  0  0
  3  4  2  0  0  0  0
  3  5  1  0  0  0  0
  4  6  1  0  0  0  0
  5  7  2  0  0  0  0
  5 20  1  0  0  0  0
  6  8  2  0  0  0  0
  6 24  1  0  0  0  0
  7  8  1  0  0  0  0
  9 11  2  0  0  0  0
  9 10  1  0  0  0  0
 10 12  2  0  0  0  0
 11 13  1  0  0  0  0
 12 14  1  0  0  0  0
 13 14  2  0  0  0  0
 15 16  1  0  0  0  0
 16 19  1  0  0  0  0
 17 18  2  0  0  0  0
 17 19  1  0  0  0  0
 17 21  1  0  0  0  0
 19 20  1  0  0  0  0
 21 22  1  0  0  0  0
 22 23  1  0  0  0  0
M  END
