331208
 OpenBabel03021519512D

 14 15  0  0  0  0  0  0  0  0999 V2000
    0.1892   -4.4357    0.0000 C   0  0  0  0  0  0  0  0  0  0  0  0
   -0.4209   -3.0653    0.0000 N   0  0  0  0  0  0  0  0  0  0  0  0
    1.6810   -4.2789    0.0000 N   0  0  0  0  0  0  0  0  0  0  0  0
    2.6847   -5.3936    0.0000 H   0  0  0  0  0  0  0  0  0  0  0  0
    1.9929   -2.8116    0.0000 N   0  0  0  0  0  0  0  0  0  0  0  0
    0.6938   -2.0616    0.0000 C   0  0  0  0  0  0  0  0  0  0  0  0
   -2.8483   -6.1894    0.0000 C   0  0  0  0  0  0  0  0  0  0  0  0
   -2.0983   -4.8903    0.0000 C   0  0  0  0  0  0  0  0  0  0  0  0
   -0.5983   -4.8903    0.0000 C   0  0  0  0  0  0  0  0  0  0  0  0
    0.1517   -6.1894    0.0000 C   0  0  0  0  0  0  0  0  0  0  0  0
   -0.5983   -7.4884    0.0000 C   0  0  0  0  0  0  0  0  0  0  0  0
   -2.0983   -7.4884    0.0000 C   0  0  0  0  0  0  0  0  0  0  0  0
   -0.8233   -6.1894    0.0000 N   0  0  0  0  0  0  0  0  0  0  0  0
    0.5370   -0.5699    0.0000 N   0  0  0  0  0  0  0  0  0  0  0  0
  1  2  2  0  0  0  0
  1  3  1  0  0  0  0
  1 13  1  0  0  0  0
  2  6  1  0  0  0  0
  3  5  1  0  0  0  0
  3  4  1  0  0  0  0
  5  6  2  0  0  0  0
  6 14  1  0  0  0  0
  7  8  2  0  0  0  0
  7 12  1  0  0  0  0
  7 13  1  0  0  0  0
  8  9  1  0  0  0  0
  9 10  2  0  0  0  0
 10 11  1  0  0  0  0
 11 12  2  0  0  0  0
M  END
