38968
 OpenBabel03021519512D

 10 10  0  0  0  0  0  0  0  0999 V2000
   -0.3750    2.1495    0.0000 H   0  0  0  0  0  0  0  0  0  0  0  0
    0.9240    2.8995    0.0000 N   0  0  0  0  0  0  0  0  0  0  0  0
    3.5221    4.3995    0.0000 N   0  0  0  0  0  0  0  0  0  0  0  0
    2.2231    5.1495    0.0000 C   0  0  0  0  0  0  0  0  0  0  0  0
    0.9240    4.3995    0.0000 C   0  0  0  0  0  0  0  0  0  0  0  0
    3.5221    2.8995    0.0000 C   0  0  0  0  0  0  0  0  0  0  0  0
    2.2231    2.1495    0.0000 C   0  0  0  0  0  0  0  0  0  0  0  0
    4.8212    5.1495    0.0000 C   0  0  0  0  0  0  0  0  0  0  0  0
    6.1202    4.3995    0.0000 C   0  0  0  0  0  0  0  0  0  0  0  0
    7.4192    5.1495    0.0000 N   0  0  0  0  0  0  0  0  0  0  0  0
  1  2  1  0  0  0  0
  2  5  1  0  0  0  0
  2  7  1  0  0  0  0
  3  4  1  0  0  0  0
  3  6  1  0  0  0  0
  3  8  1  0  0  0  0
  4  5  1  0  0  0  0
  6  7  1  0  0  0  0
  8  9  1  0  0  0  0
  9 10  1  0  0  0  0
M  END
