19970
 OpenBabel03021519512D

 40 44  0  0  1  0  0  0  0  0999 V2000
  -11.7201   -5.7193    0.0000 N   0  0  0  0  0  0  0  0  0  0  0  0
  -11.2565   -7.1459    0.0000 H   0  0  0  0  0  0  0  0  0  0  0  0
  -10.2283   -3.1354    0.0000 H   0  0  0  0  0  0  0  0  0  0  0  0
   -7.8548   -4.1922    0.0000 H   0  0  0  0  0  0  0  0  0  0  0  0
   -8.7365   -2.9786    0.0000 N   0  0  3  0  0  0  0  0  0  0  0  0
   -5.4813   -5.2489    0.0000 H   0  0  0  0  0  0  0  0  0  0  0  0
  -11.1100   -1.9219    0.0000 C   0  0  0  0  0  0  0  0  0  0  0  0
  -11.7201   -3.2922    0.0000 C   0  0  0  0  0  0  0  0  0  0  0  0
   -9.6182   -1.7651    0.0000 C   0  0  0  0  0  0  0  0  0  0  0  0
  -10.8384   -4.5057    0.0000 C   0  0  0  0  0  0  0  0  0  0  0  0
  -13.1467   -3.7558    0.0000 C   0  0  0  0  0  0  0  0  0  0  0  0
  -14.4457   -3.0058    0.0000 C   0  0  0  0  0  0  0  0  0  0  0  0
  -15.7447   -3.7558    0.0000 C   0  0  0  0  0  0  0  0  0  0  0  0
  -13.1466   -5.2558    0.0000 C   0  0  0  0  0  0  0  0  0  0  0  0
  -15.7447   -5.2558    0.0000 C   0  0  0  0  0  0  0  0  0  0  0  0
   -9.3466   -4.3490    0.0000 C   0  0  1  0  0  0  0  0  0  0  0  0
  -14.4457   -6.0058    0.0000 C   0  0  0  0  0  0  0  0  0  0  0  0
   -8.4649   -5.5625    0.0000 C   0  0  0  0  0  0  0  0  0  0  0  0
   -6.9731   -5.4057    0.0000 C   0  0  1  0  0  0  0  0  0  0  0  0
   -7.2447   -2.8218    0.0000 C   0  0  0  0  0  0  0  0  0  0  0  0
   -6.3630   -4.0353    0.0000 C   0  0  1  0  0  0  0  0  0  0  0  0
   -4.8712   -3.8786    0.0000 C   0  0  0  0  0  0  0  0  0  0  0  0
   -3.9896   -5.0921    0.0000 C   0  0  2  0  0  0  0  0  0  0  0  0
   -6.0914   -6.6192    0.0000 C   0  0  1  0  0  0  0  0  0  0  0  0
   -4.5997   -6.4624    0.0000 C   0  0  1  0  0  0  0  0  0  0  0  0
  -17.0438   -6.0058    0.0000 O   0  0  0  0  0  0  0  0  0  0  0  0
  -18.3428   -5.2558    0.0000 C   0  0  0  0  0  0  0  0  0  0  0  0
   -6.7015   -7.9895    0.0000 C   0  0  0  0  0  0  0  0  0  0  0  0
   -8.1933   -8.1463    0.0000 O   0  0  0  0  0  0  0  0  0  0  0  0
   -5.8199   -9.2030    0.0000 O   0  0  0  0  0  0  0  0  0  0  0  0
   -4.3281   -9.0462    0.0000 C   0  0  0  0  0  0  0  0  0  0  0  0
   -3.7180   -7.6759    0.0000 O   0  0  0  0  0  0  0  0  0  0  0  0
   -2.2262   -7.5191    0.0000 C   0  0  0  0  0  0  0  0  0  0  0  0
   -2.4978   -4.9353    0.0000 O   0  0  0  0  0  0  0  0  0  0  0  0
   -2.1349   -3.4798    0.0000 C   0  0  0  0  0  0  0  0  0  0  0  0
   -3.2139   -2.4378    0.0000 O   0  0  0  0  0  0  0  0  0  0  0  0
   -0.6930   -3.0664    0.0000 C   0  0  0  0  0  0  0  0  0  0  0  0
    0.3860   -4.1084    0.0000 C   0  0  0  0  0  0  0  0  0  0  0  0
    1.8279   -3.6949    0.0000 O   0  0  0  0  0  0  0  0  0  0  0  0
    0.0231   -5.5638    0.0000 C   0  0  0  0  0  0  0  0  0  0  0  0
  1 10  1  0  0  0  0
  1 14  1  0  0  0  0
  1  2  1  0  0  0  0
  5  9  1  0  0  0  0
  5 16  1  0  0  0  0
  5 20  1  0  0  0  0
  7  8  1  0  0  0  0
  7  9  1  0  0  0  0
  8 10  2  0  0  0  0
  8 11  1  0  0  0  0
 10 16  1  0  0  0  0
 11 14  2  0  0  0  0
 11 12  1  0  0  0  0
 12 13  2  0  0  0  0
 13 15  1  0  0  0  0
 14 17  1  0  0  0  0
 15 17  2  0  0  0  0
 15 26  1  0  0  0  0
 16  3  1  1  0  0  0
 16 18  1  0  0  0  0
 18 19  1  0  0  0  0
 19  4  1  6  0  0  0
 19 21  1  0  0  0  0
 19 24  1  0  0  0  0
 20 21  1  0  0  0  0
 21  6  1  6  0  0  0
 21 22  1  0  0  0  0
 22 23  1  0  0  0  0
 23 25  1  0  0  0  0
 23 34  1  1  0  0  0
 24 25  1  0  0  0  0
 24 28  1  1  0  0  0
 25 32  1  6  0  0  0
 26 27  1  0  0  0  0
 28 29  2  0  0  0  0
 28 30  1  0  0  0  0
 30 31  1  0  0  0  0
 32 33  1  0  0  0  0
 34 35  1  0  0  0  0
 35 36  2  0  0  0  0
 35 37  1  0  0  0  0
 37 38  1  0  0  0  0
 38 39  2  0  0  0  0
 38 40  1  0  0  0  0
M  END
