153365
 OpenBabel03021519512D

 17 17  0  0  1  0  0  0  0  0999 V2000
   -6.2745    1.0245    0.0000 O   0  0  0  0  0  0  0  0  0  0  0  0
   -7.7745    1.0245    0.0000 C   0  0  0  0  0  0  0  0  0  0  0  0
   -8.5245   -0.2745    0.0000 C   0  0  3  0  0  0  0  0  0  0  0  0
   -7.7745   -1.5736    0.0000 C   0  0  3  0  0  0  0  0  0  0  0  0
   -6.2745   -1.5736    0.0000 C   0  0  3  0  0  0  0  0  0  0  0  0
   -5.5245   -0.2745    0.0000 C   0  0  3  0  0  0  0  0  0  0  0  0
  -10.0245   -0.2745    0.0000 O   0  0  0  0  0  0  0  0  0  0  0  0
   -7.0245   -0.2745    0.0000 N   0  0  0  0  0  0  0  0  0  0  0  0
   -8.6154    1.6214    0.0000 C   0  0  0  0  0  0  0  0  0  0  0  0
  -10.0926    1.3610    0.0000 O   0  0  0  0  0  0  0  0  0  0  0  0
   -5.5245   -2.8726    0.0000 O   0  0  0  0  0  0  0  0  0  0  0  0
   -4.0245   -0.2745    0.0000 O   0  0  0  0  0  0  0  0  0  0  0  0
   -3.2745    1.0245    0.0000 C   0  0  0  0  0  0  0  0  0  0  0  0
   -8.1024    3.0310    0.0000 N   0  0  0  0  0  0  0  0  0  0  0  0
   -9.0666    4.1800    0.0000 N   0  0  0  0  0  0  0  0  0  0  0  0
   -8.5535    5.5896    0.0000 O   0  0  0  0  0  0  0  0  0  0  0  0
   -6.6252    3.2915    0.0000 C   0  0  0  0  0  0  0  0  0  0  0  0
  1  2  1  0  0  0  0
  1  6  1  0  0  0  0
  2  3  1  0  0  0  0
  3  4  1  0  0  0  0
  3  7  1  0  0  0  0
  4  5  1  0  0  0  0
  4  8  1  0  0  0  0
  5  6  1  0  0  0  0
  5 11  1  0  0  0  0
  6 12  1  0  0  0  0
  8  9  1  0  0  0  0
  9 10  2  0  0  0  0
  9 14  1  0  0  0  0
 12 13  1  0  0  0  0
 14 15  1  0  0  0  0
 14 17  1  0  0  0  0
 15 16  2  0  0  0  0
M  END
