22939
 OpenBabel03021519512D

 16 16  0  0  1  0  0  0  0  0999 V2000
    7.5197   -0.4754    0.0000 C   0  0  0  0  0  0  0  0  0  0  0  0
    4.9216   -0.4755    0.0000 C   0  0  0  0  0  0  0  0  0  0  0  0
    7.5197   -1.9754    0.0000 C   0  0  0  0  0  0  0  0  0  0  0  0
    4.9216   -1.9755    0.0000 C   0  0  0  0  0  0  0  0  0  0  0  0
    6.2207    0.2746    0.0000 N   0  0  0  0  0  0  0  0  0  0  0  0
    6.2207   -2.7254    0.0000 N   0  0  0  0  0  0  0  0  0  0  0  0
    8.8187    0.2746    0.0000 O   0  0  0  0  0  0  0  0  0  0  0  0
    1.0245    0.2745    0.0000 C   0  0  0  0  0  0  0  0  0  0  0  0
    2.3236   -0.4755    0.0000 C   0  0  0  0  0  0  0  0  0  0  0  0
    3.6226    0.2745    0.0000 C   0  0  3  0  0  0  0  0  0  0  0  0
    3.6226    1.7745    0.0000 C   0  0  0  0  0  0  0  0  0  0  0  0
    6.2207    1.7746    0.0000 O   0  0  0  0  0  0  0  0  0  0  0  0
    8.8188   -2.7254    0.0000 C   0  0  0  0  0  0  0  0  0  0  0  0
   10.1178   -1.9754    0.0000 C   0  0  0  0  0  0  0  0  0  0  0  0
   11.4168   -2.7254    0.0000 C   0  0  0  0  0  0  0  0  0  0  0  0
   10.1178   -0.4754    0.0000 C   0  0  0  0  0  0  0  0  0  0  0  0
  1  7  2  0  0  0  0
  1  5  1  0  0  0  0
  1  3  1  0  0  0  0
  2  5  1  0  0  0  0
  2  4  2  0  0  0  0
  2 10  1  0  0  0  0
  3  6  2  0  0  0  0
  3 13  1  0  0  0  0
  4  6  1  0  0  0  0
  5 12  1  0  0  0  0
  8  9  1  0  0  0  0
  9 10  1  0  0  0  0
 10 11  1  0  0  0  0
 13 14  1  0  0  0  0
 14 15  1  0  0  0  0
 14 16  1  0  0  0  0
M  END
