82560
 OpenBabel03021519512D

 22 23  0  0  0  0  0  0  0  0999 V2000
   -4.7770    4.4290    0.0000 N   0  0  0  0  0  0  0  0  0  0  0  0
   -2.7628    6.0700    0.0000 N   0  0  0  0  0  0  0  0  0  0  0  0
   -4.3630    1.8641    0.0000 O   0  0  0  0  0  0  0  0  0  0  0  0
   -2.2294    7.4720    0.0000 H   0  0  0  0  0  0  0  0  0  0  0  0
   -1.4013    2.3422    0.0000 N   0  0  0  0  0  0  0  0  0  0  0  0
    0.0795    2.5813    0.0000 N   0  0  0  0  0  0  0  0  0  0  0  0
   -3.8296    3.2661    0.0000 C   0  0  0  0  0  0  0  0  0  0  0  0
   -2.3488    3.5051    0.0000 C   0  0  0  0  0  0  0  0  0  0  0  0
   -1.8154    4.9071    0.0000 C   0  0  0  0  0  0  0  0  0  0  0  0
    0.9326    0.1273    0.0000 C   0  0  0  0  0  0  0  0  0  0  0  0
    2.0676   -0.8535    0.0000 C   0  0  0  0  0  0  0  0  0  0  0  0
    1.2145    1.6005    0.0000 C   0  0  0  0  0  0  0  0  0  0  0  0
    3.4844   -0.3609    0.0000 C   0  0  0  0  0  0  0  0  0  0  0  0
    2.6313    2.0931    0.0000 C   0  0  0  0  0  0  0  0  0  0  0  0
    3.7663    1.1124    0.0000 C   0  0  0  0  0  0  0  0  0  0  0  0
   -4.2436    5.8309    0.0000 C   0  0  0  0  0  0  0  0  0  0  0  0
   -5.1911    6.9939    0.0000 N   0  0  0  0  0  0  0  0  0  0  0  0
   -0.3345    5.1461    0.0000 N   0  0  0  0  0  0  0  0  0  0  0  0
    4.6194   -1.3416    0.0000 S   0  0  0  0  0  0  0  0  0  0  0  0
    5.6002   -0.2066    0.0000 O   0  0  0  0  0  0  0  0  0  0  0  0
    3.6387   -2.4766    0.0000 O   0  0  0  0  0  0  0  0  0  0  0  0
    5.7544   -2.3223    0.0000 N   0  0  0  0  0  0  0  0  0  0  0  0
  1 16  2  0  0  0  0
  1  7  1  0  0  0  0
  2  9  1  0  0  0  0
  2 16  1  0  0  0  0
  2  4  1  0  0  0  0
  3  7  2  0  0  0  0
  5  8  1  0  0  0  0
  5  6  2  0  0  0  0
  6 12  1  0  0  0  0
  7  8  1  0  0  0  0
  8  9  2  0  0  0  0
  9 18  1  0  0  0  0
 10 11  2  0  0  0  0
 10 12  1  0  0  0  0
 11 13  1  0  0  0  0
 12 14  2  0  0  0  0
 13 15  2  0  0  0  0
 13 19  1  0  0  0  0
 14 15  1  0  0  0  0
 16 17  1  0  0  0  0
 19 20  2  0  0  0  0
 19 21  2  0  0  0  0
 19 22  1  0  0  0  0
M  END
