163639
 OpenBabel03021519512D

 25 26  0  0  1  0  0  0  0  0999 V2000
  -11.2257   -1.8991    0.0000 Cl  0  0  0  0  0  0  0  0  0  0  0  0
  -11.2257   -4.8991    0.0000 Cl  0  0  0  0  0  0  0  0  0  0  0  0
   -6.9937   -0.7500    0.0000 O   0  0  0  0  0  0  0  0  0  0  0  0
   -6.0295   -1.8991    0.0000 S   0  0  0  0  0  0  0  0  0  0  0  0
   -6.0295   -4.8991    0.0000 N   0  0  0  0  0  0  0  0  0  0  0  0
   -6.0295   -6.3991    0.0000 H   0  0  0  0  0  0  0  0  0  0  0  0
   -5.0653   -0.7500    0.0000 O   0  0  0  0  0  0  0  0  0  0  0  0
   -4.7305   -2.6491    0.0000 N   0  0  0  0  0  0  0  0  0  0  0  0
   -8.6276   -1.8991    0.0000 C   0  0  0  0  0  0  0  0  0  0  0  0
   -9.9266   -2.6491    0.0000 C   0  0  0  0  0  0  0  0  0  0  0  0
   -7.3286   -2.6491    0.0000 C   0  0  0  0  0  0  0  0  0  0  0  0
   -7.3286   -4.1491    0.0000 C   0  0  0  0  0  0  0  0  0  0  0  0
   -9.9266   -4.1491    0.0000 C   0  0  0  0  0  0  0  0  0  0  0  0
   -8.6276   -4.8991    0.0000 C   0  0  0  0  0  0  0  0  0  0  0  0
   -4.7305   -4.1491    0.0000 C   0  0  3  0  0  0  0  0  0  0  0  0
   -4.2174   -5.5586    0.0000 C   0  0  0  0  0  0  0  0  0  0  0  0
   -2.7402   -5.8191    0.0000 O   0  0  0  0  0  0  0  0  0  0  0  0
   -3.4314   -1.8991    0.0000 O   0  0  0  0  0  0  0  0  0  0  0  0
   -2.2931   -3.7193    0.0000 C   0  0  0  0  0  0  0  0  0  0  0  0
   -5.1816   -6.7077    0.0000 O   0  0  0  0  0  0  0  0  0  0  0  0
   -4.6686   -8.1172    0.0000 C   0  0  0  0  0  0  0  0  0  0  0  0
   -1.7800   -2.3097    0.0000 C   0  0  0  0  0  0  0  0  0  0  0  0
   -2.7442   -1.1607    0.0000 O   0  0  0  0  0  0  0  0  0  0  0  0
   -0.3028   -2.0493    0.0000 O   0  0  0  0  0  0  0  0  0  0  0  0
    0.2102   -0.6397    0.0000 C   0  0  0  0  0  0  0  0  0  0  0  0
  1 10  1  0  0  0  0
  2 13  1  0  0  0  0
  3  4  2  0  0  0  0
  4  7  2  0  0  0  0
  4  8  1  0  0  0  0
  4 11  1  0  0  0  0
  5 12  1  0  0  0  0
  5 15  1  0  0  0  0
  5  6  1  0  0  0  0
  8 15  1  0  0  0  0
  8 18  1  0  0  0  0
  9 10  2  0  0  0  0
  9 11  1  0  0  0  0
 10 13  1  0  0  0  0
 11 12  2  0  0  0  0
 12 14  1  0  0  0  0
 13 14  2  0  0  0  0
 15 16  1  0  0  0  0
 15 19  1  0  0  0  0
 16 17  2  0  0  0  0
 16 20  1  0  0  0  0
 19 22  1  0  0  0  0
 20 21  1  0  0  0  0
 22 23  2  0  0  0  0
 22 24  1  0  0  0  0
 24 25  1  0  0  0  0
M  END
