9358
 OpenBabel03021519512D

 17 18  0  0  0  0  0  0  0  0999 V2000
    2.9731    6.6495    0.0000 N   0  0  0  0  0  0  0  0  0  0  0  0
    2.9731    8.1495    0.0000 N   0  0  0  0  0  0  0  0  0  0  0  0
    0.3750    8.1495    0.0000 N   0  0  0  0  0  0  0  0  0  0  0  0
    4.2721    4.3995    0.0000 C   0  0  0  0  0  0  0  0  0  0  0  0
    4.2721    5.8995    0.0000 C   0  0  0  0  0  0  0  0  0  0  0  0
    5.5711    3.6495    0.0000 C   0  0  0  0  0  0  0  0  0  0  0  0
    5.5711    6.6495    0.0000 C   0  0  0  0  0  0  0  0  0  0  0  0
    6.8702    4.3995    0.0000 C   0  0  0  0  0  0  0  0  0  0  0  0
    6.8702    5.8995    0.0000 C   0  0  0  0  0  0  0  0  0  0  0  0
   -0.9240    8.8995    0.0000 C   0  0  0  0  0  0  0  0  0  0  0  0
   -0.9240   10.3995    0.0000 C   0  0  0  0  0  0  0  0  0  0  0  0
    0.3750   11.1495    0.0000 C   0  0  0  0  0  0  0  0  0  0  0  0
    1.6740   10.3995    0.0000 C   0  0  0  0  0  0  0  0  0  0  0  0
    1.6740    8.8995    0.0000 C   0  0  0  0  0  0  0  0  0  0  0  0
    8.1692    3.6495    0.0000 N   0  0  0  0  0  0  0  0  0  0  0  0
    8.1692    2.1495    0.0000 C   0  0  0  0  0  0  0  0  0  0  0  0
    9.4683    4.3995    0.0000 C   0  0  0  0  0  0  0  0  0  0  0  0
  1  5  1  0  0  0  0
  1  2  2  0  0  0  0
  2 14  1  0  0  0  0
  3 14  2  0  0  0  0
  3 10  1  0  0  0  0
  4  6  2  0  0  0  0
  4  5  1  0  0  0  0
  5  7  2  0  0  0  0
  6  8  1  0  0  0  0
  7  9  1  0  0  0  0
  8  9  2  0  0  0  0
  8 15  1  0  0  0  0
 10 11  2  0  0  0  0
 11 12  1  0  0  0  0
 12 13  2  0  0  0  0
 13 14  1  0  0  0  0
 15 16  1  0  0  0  0
 15 17  1  0  0  0  0
M  END
