117908
 OpenBabel03021519512D

 19 21  0  0  0  0  0  0  0  0999 V2000
   -1.7834    1.2901    0.0000 S   0  0  0  0  0  0  0  0  0  0  0  0
   -1.0832   -1.0337    0.0000 N   0  0  0  0  0  0  0  0  0  0  0  0
    0.8471    0.8153    0.0000 S   0  0  0  0  0  0  0  0  0  0  0  0
    2.1018   -0.0068    0.0000 C   0  0  0  0  0  0  0  0  0  0  0  0
    3.4410    0.6687    0.0000 C   0  0  0  0  0  0  0  0  0  0  0  0
    2.0172   -1.5044    0.0000 C   0  0  0  0  0  0  0  0  0  0  0  0
    3.2719   -2.3265    0.0000 C   0  0  0  0  0  0  0  0  0  0  0  0
    4.6957   -0.1533    0.0000 C   0  0  0  0  0  0  0  0  0  0  0  0
    4.6111   -1.6509    0.0000 C   0  0  0  0  0  0  0  0  0  0  0  0
   -4.4758    0.7781    0.0000 C   0  0  0  0  0  0  0  0  0  0  0  0
   -5.5032   -0.3147    0.0000 C   0  0  0  0  0  0  0  0  0  0  0  0
   -3.0156    0.4348    0.0000 C   0  0  0  0  0  0  0  0  0  0  0  0
   -2.5829   -1.0015    0.0000 C   0  0  0  0  0  0  0  0  0  0  0  0
   -5.0705   -1.7510    0.0000 C   0  0  0  0  0  0  0  0  0  0  0  0
   -3.6103   -2.0943    0.0000 C   0  0  0  0  0  0  0  0  0  0  0  0
   -0.5891    0.3825    0.0000 C   0  0  0  0  0  0  0  0  0  0  0  0
    0.9317    2.3129    0.0000 C   0  0  0  0  0  0  0  0  0  0  0  0
    2.2710    2.9884    0.0000 C   0  0  0  0  0  0  0  0  0  0  0  0
    3.5256    2.1664    0.0000 N   0  0  0  0  0  0  0  0  0  0  0  0
  1 12  1  0  0  0  0
  1 16  1  0  0  0  0
  2 16  2  0  0  0  0
  2 13  1  0  0  0  0
  3 16  1  0  0  0  0
  3 17  1  0  0  0  0
  4  6  2  0  0  0  0
  4  5  1  0  0  0  0
  5  8  2  0  0  0  0
  5 19  1  0  0  0  0
  6  7  1  0  0  0  0
  7  9  2  0  0  0  0
  8  9  1  0  0  0  0
 10 11  2  0  0  0  0
 10 12  1  0  0  0  0
 11 14  1  0  0  0  0
 12 13  2  0  0  0  0
 13 15  1  0  0  0  0
 14 15  2  0  0  0  0
 17 18  1  0  0  0  0
 18 19  1  0  0  0  0
M  END
