166637
 OpenBabel03021519512D

 24 26  0  0  0  0  0  0  0  0999 V2000
   -6.7598   -7.6331    0.0000 Cl  0  0  0  0  0  0  0  0  0  0  0  0
   -4.9964  -10.0601    0.0000 Cl  0  0  0  0  0  0  0  0  0  0  0  0
   -4.6579   -6.1059    0.0000 N   0  0  0  0  0  0  0  0  0  0  0  0
   -2.8945   -8.5330    0.0000 N   0  0  0  0  0  0  0  0  0  0  0  0
   -2.2844   -4.7356    0.0000 N   0  0  0  0  0  0  0  0  0  0  0  0
    0.9816    2.3852    0.0000 O   0  0  0  0  0  0  0  0  0  0  0  0
   -1.0258    0.1557    0.0000 N   0  0  0  0  0  0  0  0  0  0  0  0
   -0.8578   -6.6992    0.0000 N   0  0  0  0  0  0  0  0  0  0  0  0
    1.4451    0.9586    0.0000 C   0  0  0  0  0  0  0  0  0  0  0  0
    0.4414   -0.1561    0.0000 C   0  0  0  0  0  0  0  0  0  0  0  0
   -0.4856    2.6970    0.0000 C   0  0  0  0  0  0  0  0  0  0  0  0
   -1.4893    1.5823    0.0000 C   0  0  0  0  0  0  0  0  0  0  0  0
   -5.2680   -7.4763    0.0000 C   0  0  0  0  0  0  0  0  0  0  0  0
   -4.3863   -8.6898    0.0000 C   0  0  0  0  0  0  0  0  0  0  0  0
   -0.8578   -5.1992    0.0000 C   0  0  0  0  0  0  0  0  0  0  0  0
   -3.1661   -5.9492    0.0000 C   0  0  0  0  0  0  0  0  0  0  0  0
   -2.2844   -7.1627    0.0000 C   0  0  0  0  0  0  0  0  0  0  0  0
   -2.0295   -0.9590    0.0000 C   0  0  0  0  0  0  0  0  0  0  0  0
   -1.5659   -2.3856    0.0000 C   0  0  0  0  0  0  0  0  0  0  0  0
   -2.7480   -3.3090    0.0000 C   0  0  0  0  0  0  0  0  0  0  0  0
    0.3557   -4.3175    0.0000 C   0  0  0  0  0  0  0  0  0  0  0  0
   -0.5260   -3.1040    0.0000 F   0  0  0  0  0  0  0  0  0  0  0  0
    1.2374   -5.5310    0.0000 F   0  0  0  0  0  0  0  0  0  0  0  0
    1.5692   -3.4358    0.0000 F   0  0  0  0  0  0  0  0  0  0  0  0
  1 13  1  0  0  0  0
  2 14  1  0  0  0  0
  3 13  2  0  0  0  0
  3 16  1  0  0  0  0
  4 14  2  0  0  0  0
  4 17  1  0  0  0  0
  5 15  1  0  0  0  0
  5 16  1  0  0  0  0
  5 20  1  0  0  0  0
  6  9  1  0  0  0  0
  6 11  1  0  0  0  0
  7 10  1  0  0  0  0
  7 12  1  0  0  0  0
  7 18  1  0  0  0  0
  8 15  2  0  0  0  0
  8 17  1  0  0  0  0
  9 10  1  0  0  0  0
 11 12  1  0  0  0  0
 13 14  1  0  0  0  0
 15 21  1  0  0  0  0
 16 17  2  0  0  0  0
 18 19  1  0  0  0  0
 19 20  1  0  0  0  0
 21 22  1  0  0  0  0
 21 23  1  0  0  0  0
 21 24  1  0  0  0  0
M  END
