322661
 OpenBabel03021519512D

 30 31  0  0  1  0  0  0  0  0999 V2000
    1.2256    9.0736    0.0000 C   0  0  0  0  0  0  0  0  0  0  0  0
    1.2256    7.5736    0.0000 C   0  0  0  0  0  0  0  0  0  0  0  0
    2.5247    6.8236    0.0000 C   0  0  0  0  0  0  0  0  0  0  0  0
    3.8237    7.5736    0.0000 C   0  0  0  0  0  0  0  0  0  0  0  0
    3.8237    9.0736    0.0000 C   0  0  0  0  0  0  0  0  0  0  0  0
    2.5247    9.8236    0.0000 C   0  0  0  0  0  0  0  0  0  0  0  0
    5.1228    6.8236    0.0000 N   0  0  0  0  0  0  0  0  0  0  0  0
    6.4218    7.5736    0.0000 C   0  0  0  0  0  0  0  0  0  0  0  0
    6.4218    9.0736    0.0000 C   0  0  0  0  0  0  0  0  0  0  0  0
    5.1228    9.8236    0.0000 C   0  0  0  0  0  0  0  0  0  0  0  0
   -0.0734    9.8236    0.0000 Cl  0  0  0  0  0  0  0  0  0  0  0  0
    2.5247    5.3236    0.0000 Cl  0  0  0  0  0  0  0  0  0  0  0  0
    7.7208    6.8236    0.0000 C   0  0  0  0  0  0  0  0  0  0  0  0
    6.9708    5.5246    0.0000 F   0  0  0  0  0  0  0  0  0  0  0  0
    8.4708    8.1227    0.0000 F   0  0  0  0  0  0  0  0  0  0  0  0
    9.0199    6.0736    0.0000 F   0  0  0  0  0  0  0  0  0  0  0  0
    5.1228   11.3236    0.0000 C   0  0  3  0  0  0  0  0  0  0  0  0
    3.8237   12.0736    0.0000 O   0  0  0  0  0  0  0  0  0  0  0  0
    6.4218   12.0736    0.0000 C   0  0  3  0  0  0  0  0  0  0  0  0
    9.0199   12.0736    0.0000 C   0  0  0  0  0  0  0  0  0  0  0  0
    9.0199   13.5736    0.0000 C   0  0  0  0  0  0  0  0  0  0  0  0
    7.7208   14.3236    0.0000 C   0  0  0  0  0  0  0  0  0  0  0  0
    6.4218   13.5736    0.0000 C   0  0  0  0  0  0  0  0  0  0  0  0
    7.7208   11.3236    0.0000 N   0  0  0  0  0  0  0  0  0  0  0  0
    1.5001    4.0981    0.0000 C   0  0  0  0  0  0  0  0  0  0  0  0
    0.7501    2.7991    0.0000 S   0  0  0  0  0  0  0  0  0  0  0  0
    2.0492    2.0491    0.0000 O   0  0  0  0  0  0  0  0  0  0  0  0
    0.0001    1.5001    0.0000 O   0  0  0  0  0  0  0  0  0  0  0  0
   -0.5489    3.5491    0.0000 O   0  0  0  0  0  0  0  0  0  0  0  0
    2.5247   11.3236    0.0000 H   0  0  0  0  0  0  0  0  0  0  0  0
  1  2  2  0  0  0  0
  1  6  1  0  0  0  0
  1 11  1  0  0  0  0
  2  3  1  0  0  0  0
  3  4  2  0  0  0  0
  3 12  1  0  0  0  0
  4  5  1  0  0  0  0
  4  7  1  0  0  0  0
  5  6  2  0  0  0  0
  5 10  1  0  0  0  0
  7  8  2  0  0  0  0
  8  9  1  0  0  0  0
  8 13  1  0  0  0  0
  9 10  2  0  0  0  0
 10 17  1  0  0  0  0
 13 14  1  0  0  0  0
 13 15  1  0  0  0  0
 13 16  1  0  0  0  0
 17 19  1  0  0  0  0
 17 18  1  0  0  0  0
 18 30  1  0  0  0  0
 19 23  1  0  0  0  0
 19 24  1  0  0  0  0
 20 21  1  0  0  0  0
 20 24  1  0  0  0  0
 21 22  1  0  0  0  0
 22 23  1  0  0  0  0
 25 26  1  0  0  0  0
 26 27  2  0  0  0  0
 26 28  2  0  0  0  0
 26 29  1  0  0  0  0
M  END
