30622
 OpenBabel03021519512D

 27 29  0  0  1  0  0  0  0  0999 V2000
    1.4224   -2.6629    0.0000 H   0  0  0  0  0  0  0  0  0  0  0  0
    1.8737   -8.0241    0.0000 H   0  0  0  0  0  0  0  0  0  0  0  0
    1.8107   -4.1118    0.0000 C   0  0  0  0  0  0  0  0  0  0  0  0
    3.2595   -7.0981    0.0000 O   0  0  0  0  0  0  0  0  0  0  0  0
    4.0095   -5.7990    0.0000 O   0  0  0  0  0  0  0  0  0  0  0  0
    4.5586   -7.8481    0.0000 H   0  0  0  0  0  0  0  0  0  0  0  0
    4.5586  -10.8481    0.0000 N   0  0  3  0  0  0  0  0  0  0  0  0
    6.6076   -5.7990    0.0000 O   0  0  0  0  0  0  0  0  0  0  0  0
    7.3065   -4.1118    0.0000 O   0  0  0  0  0  0  0  0  0  0  0  0
    4.5586   -2.2500    0.0000 C   0  0  0  0  0  0  0  0  0  0  0  0
    5.8576   -3.0000    0.0000 C   0  0  2  0  0  0  0  0  0  0  0  0
    3.2596   -3.0000    0.0000 C   0  0  0  0  0  0  0  0  0  0  0  0
    5.8576   -4.5000    0.0000 C   0  0  0  0  0  0  0  0  0  0  0  0
    3.2595   -4.5000    0.0000 C   0  0  0  0  0  0  0  0  0  0  0  0
    2.5095   -5.7990    0.0000 C   0  0  0  0  0  0  0  0  0  0  0  0
    5.8576   -7.0981    0.0000 C   0  0  0  0  0  0  0  0  0  0  0  0
    5.8576   -8.5981    0.0000 C   0  0  0  0  0  0  0  0  0  0  0  0
    4.5586   -9.3481    0.0000 C   0  0  2  0  0  0  0  0  0  0  0  0
    6.9183   -9.6587    0.0000 C   0  0  0  0  0  0  0  0  0  0  0  0
    3.2595   -8.5981    0.0000 C   0  0  1  0  0  0  0  0  0  0  0  0
    2.1989   -9.6587    0.0000 C   0  0  0  0  0  0  0  0  0  0  0  0
    6.1683  -10.9578    0.0000 C   0  0  0  0  0  0  0  0  0  0  0  0
    2.9489  -10.9578    0.0000 C   0  0  0  0  0  0  0  0  0  0  0  0
    0.7500   -5.1724    0.0000 C   0  0  0  0  0  0  0  0  0  0  0  0
    4.5586   -0.7500    0.0000 C   0  0  0  0  0  0  0  0  0  0  0  0
    6.3707   -1.5905    0.0000 O   0  0  0  0  0  0  0  0  0  0  0  0
    7.3348   -3.2605    0.0000 C   0  0  0  0  0  0  0  0  0  0  0  0
  1  3  1  0  0  0  0
  3 14  2  0  0  0  0
  3 24  1  0  0  0  0
  4 15  1  0  0  0  0
  4 20  1  0  0  0  0
  5 15  2  0  0  0  0
  7 18  1  0  0  0  0
  7 22  1  0  0  0  0
  7 23  1  0  0  0  0
  8 13  1  0  0  0  0
  8 16  1  0  0  0  0
  9 13  2  0  0  0  0
 10 11  1  0  0  0  0
 10 12  1  0  0  0  0
 10 25  2  0  0  0  0
 11 13  1  0  0  0  0
 11 26  1  1  0  0  0
 11 27  1  0  0  0  0
 12 14  1  0  0  0  0
 14 15  1  0  0  0  0
 16 17  1  0  0  0  0
 17 19  2  0  0  0  0
 17 18  1  0  0  0  0
 18  6  1  6  0  0  0
 18 20  1  0  0  0  0
 19 22  1  0  0  0  0
 20  2  1  6  0  0  0
 20 21  1  0  0  0  0
 21 23  1  0  0  0  0
M  END
