177862
 OpenBabel03021519512D

 26 29  0  0  1  0  0  0  0  0999 V2000
    3.8617   -0.2005    0.0000 O   0  0  0  0  0  0  0  0  0  0  0  0
    6.3021    5.2807    0.0000 O   0  0  0  0  0  0  0  0  0  0  0  0
    9.6972   -0.6681    0.0000 N   0  0  0  0  0  0  0  0  0  0  0  0
    8.4040    6.8078    0.0000 O   0  0  0  0  0  0  0  0  0  0  0  0
    3.5901    2.3833    0.0000 C   0  0  0  0  0  0  0  0  0  0  0  0
    4.2002    3.7536    0.0000 C   0  0  0  0  0  0  0  0  0  0  0  0
    5.6920    3.9104    0.0000 C   0  0  0  0  0  0  0  0  0  0  0  0
    6.5737    2.6969    0.0000 C   0  0  0  0  0  0  0  0  0  0  0  0
    4.4718    1.1698    0.0000 C   0  0  0  0  0  0  0  0  0  0  0  0
    8.0655    2.8537    0.0000 C   0  0  3  0  0  0  0  0  0  0  0  0
    7.7939    5.4375    0.0000 C   0  0  0  0  0  0  0  0  0  0  0  0
    8.6756    4.2240    0.0000 C   0  0  0  0  0  0  0  0  0  0  0  0
    5.9636    1.3266    0.0000 C   0  0  0  0  0  0  0  0  0  0  0  0
    8.9472    1.6402    0.0000 C   0  0  0  0  0  0  0  0  0  0  0  0
   10.4472    1.6402    0.0000 C   0  0  0  0  0  0  0  0  0  0  0  0
   11.4509    2.7549    0.0000 C   0  0  0  0  0  0  0  0  0  0  0  0
   12.9181    2.4430    0.0000 C   0  0  0  0  0  0  0  0  0  0  0  0
   13.3816    1.0164    0.0000 C   0  0  0  0  0  0  0  0  0  0  0  0
   10.9107    0.2136    0.0000 C   0  0  0  0  0  0  0  0  0  0  0  0
    8.4836    0.2136    0.0000 C   0  0  0  0  0  0  0  0  0  0  0  0
   12.3779   -0.0983    0.0000 C   0  0  0  0  0  0  0  0  0  0  0  0
    2.5481    1.3043    0.0000 C   0  0  0  0  0  0  0  0  0  0  0  0
    2.3466    3.2221    0.0000 C   0  0  0  0  0  0  0  0  0  0  0  0
    9.6972   -2.1681    0.0000 C   0  0  0  0  0  0  0  0  0  0  0  0
    8.3981   -2.9181    0.0000 O   0  0  0  0  0  0  0  0  0  0  0  0
   10.9962   -2.9181    0.0000 C   0  0  0  0  0  0  0  0  0  0  0  0
  1  9  2  0  0  0  0
  2  7  1  0  0  0  0
  2 11  1  0  0  0  0
  3 19  1  0  0  0  0
  3 20  1  0  0  0  0
  3 24  1  0  0  0  0
  4 11  2  0  0  0  0
  5  6  1  0  0  0  0
  5  9  1  0  0  0  0
  5 22  1  0  0  0  0
  5 23  1  0  0  0  0
  6  7  1  0  0  0  0
  7  8  2  0  0  0  0
  8 10  1  0  0  0  0
  8 13  1  0  0  0  0
  9 13  1  0  0  0  0
 10 12  1  0  0  0  0
 10 14  1  0  0  0  0
 11 12  1  0  0  0  0
 14 20  2  0  0  0  0
 14 15  1  0  0  0  0
 15 19  2  0  0  0  0
 15 16  1  0  0  0  0
 16 17  2  0  0  0  0
 17 18  1  0  0  0  0
 18 21  2  0  0  0  0
 19 21  1  0  0  0  0
 24 25  2  0  0  0  0
 24 26  1  0  0  0  0
M  END
