5157
 OpenBabel03021519512D

 29 32  0  0  0  0  0  0  0  0999 V2000
  -12.4119    4.8000    0.0000 O   0  0  0  0  0  0  0  0  0  0  0  0
   -9.8139    4.8000    0.0000 O   0  0  0  0  0  0  0  0  0  0  0  0
   -3.3187   -0.4500    0.0000 O   0  0  0  0  0  0  0  0  0  0  0  0
  -15.0100    4.8000    0.0000 C   0  0  0  0  0  0  0  0  0  0  0  0
  -13.7110    4.0500    0.0000 C   0  0  0  0  0  0  0  0  0  0  0  0
  -16.3091    4.0500    0.0000 C   0  0  0  0  0  0  0  0  0  0  0  0
  -13.7110    2.5500    0.0000 C   0  0  0  0  0  0  0  0  0  0  0  0
  -16.3091    2.5500    0.0000 C   0  0  0  0  0  0  0  0  0  0  0  0
  -15.0100    1.8000    0.0000 C   0  0  0  0  0  0  0  0  0  0  0  0
  -12.4119    1.8000    0.0000 C   0  0  0  0  0  0  0  0  0  0  0  0
  -11.1129    4.0500    0.0000 C   0  0  0  0  0  0  0  0  0  0  0  0
  -11.1129    2.5500    0.0000 C   0  0  0  0  0  0  0  0  0  0  0  0
   -3.3187   -1.9500    0.0000 C   0  0  0  0  0  0  0  0  0  0  0  0
   -4.6177   -2.7000    0.0000 C   0  0  0  0  0  0  0  0  0  0  0  0
   -5.9168   -1.9500    0.0000 C   0  0  0  0  0  0  0  0  0  0  0  0
   -5.9168   -0.4500    0.0000 C   0  0  0  0  0  0  0  0  0  0  0  0
   -4.6177    1.8000    0.0000 C   0  0  0  0  0  0  0  0  0  0  0  0
   -4.6177    0.3000    0.0000 C   0  0  0  0  0  0  0  0  0  0  0  0
   -5.9168    2.5500    0.0000 C   0  0  0  0  0  0  0  0  0  0  0  0
   -7.2158    1.8000    0.0000 C   0  0  0  0  0  0  0  0  0  0  0  0
   -7.2158    0.3000    0.0000 C   0  0  0  0  0  0  0  0  0  0  0  0
  -17.6081    4.8000    0.0000 O   0  0  0  0  0  0  0  0  0  0  0  0
  -15.0100    6.3000    0.0000 C   0  0  0  0  0  0  0  0  0  0  0  0
  -12.4119    0.3000    0.0000 O   0  0  0  0  0  0  0  0  0  0  0  0
   -9.8139    1.8000    0.0000 N   0  0  0  0  0  0  0  0  0  0  0  0
   -8.5148    2.5500    0.0000 C   0  0  0  0  0  0  0  0  0  0  0  0
   -8.5148    4.0500    0.0000 O   0  0  0  0  0  0  0  0  0  0  0  0
   -1.8415   -1.6895    0.0000 C   0  0  0  0  0  0  0  0  0  0  0  0
   -2.8057   -3.3595    0.0000 C   0  0  0  0  0  0  0  0  0  0  0  0
  1  5  1  0  0  0  0
  1 11  1  0  0  0  0
  2 11  2  0  0  0  0
  3 13  1  0  0  0  0
  3 18  1  0  0  0  0
  4  6  2  0  0  0  0
  4  5  1  0  0  0  0
  4 23  1  0  0  0  0
  5  7  2  0  0  0  0
  6  8  1  0  0  0  0
  6 22  1  0  0  0  0
  7  9  1  0  0  0  0
  7 10  1  0  0  0  0
  8  9  2  0  0  0  0
 10 12  2  0  0  0  0
 10 24  1  0  0  0  0
 11 12  1  0  0  0  0
 12 25  1  0  0  0  0
 13 14  1  0  0  0  0
 13 28  1  0  0  0  0
 13 29  1  0  0  0  0
 14 15  1  0  0  0  0
 15 16  1  0  0  0  0
 16 18  2  0  0  0  0
 16 21  1  0  0  0  0
 17 19  2  0  0  0  0
 17 18  1  0  0  0  0
 19 20  1  0  0  0  0
 20 21  2  0  0  0  0
 20 26  1  0  0  0  0
 25 26  1  0  0  0  0
 26 27  2  0  0  0  0
M  END
