13434
 OpenBabel03021519512D

 20 20  0  0  0  0  0  0  0  0999 V2000
    0.1561    1.7700    0.0000 N   0  0  0  0  0  0  0  0  0  0  0  0
    0.5433    3.2192    0.0000 H   0  0  0  0  0  0  0  0  0  0  0  0
    1.1008    0.6050    0.0000 C   0  0  0  0  0  0  0  0  0  0  0  0
    0.2847   -0.6536    0.0000 C   0  0  0  0  0  0  0  0  0  0  0  0
   -1.1644   -0.2663    0.0000 C   0  0  0  0  0  0  0  0  0  0  0  0
   -1.2440    1.2315    0.0000 C   0  0  0  0  0  0  0  0  0  0  0  0
   -3.2590   -3.6372    0.0000 C   0  0  0  0  0  0  0  0  0  0  0  0
   -3.0233   -5.1186    0.0000 C   0  0  0  0  0  0  0  0  0  0  0  0
   -2.0939   -2.6925    0.0000 C   0  0  0  0  0  0  0  0  0  0  0  0
   -0.6932   -3.2291    0.0000 O   0  0  0  0  0  0  0  0  0  0  0  0
   -2.3295   -1.2111    0.0000 O   0  0  0  0  0  0  0  0  0  0  0  0
   -2.5025    2.0477    0.0000 C   0  0  0  0  0  0  0  0  0  0  0  0
   -3.8386    1.3658    0.0000 O   0  0  0  0  0  0  0  0  0  0  0  0
   -2.4250    3.5457    0.0000 O   0  0  0  0  0  0  0  0  0  0  0  0
    0.8232   -2.0536    0.0000 C   0  0  0  0  0  0  0  0  0  0  0  0
    2.5987    0.6845    0.0000 C   0  0  0  0  0  0  0  0  0  0  0  0
    3.4165   -0.5730    0.0000 O   0  0  0  0  0  0  0  0  0  0  0  0
    3.2788    2.0214    0.0000 O   0  0  0  0  0  0  0  0  0  0  0  0
    4.7767    2.1009    0.0000 C   0  0  0  0  0  0  0  0  0  0  0  0
    5.5945    0.8435    0.0000 C   0  0  0  0  0  0  0  0  0  0  0  0
  1  3  1  0  0  0  0
  1  6  1  0  0  0  0
  1  2  1  0  0  0  0
  3  4  2  0  0  0  0
  3 16  1  0  0  0  0
  4  5  1  0  0  0  0
  4 15  1  0  0  0  0
  5  6  2  0  0  0  0
  5 11  1  0  0  0  0
  6 12  1  0  0  0  0
  7  8  1  0  0  0  0
  7  9  1  0  0  0  0
  9 10  2  0  0  0  0
  9 11  1  0  0  0  0
 12 13  2  0  0  0  0
 12 14  1  0  0  0  0
 16 17  2  0  0  0  0
 16 18  1  0  0  0  0
 18 19  1  0  0  0  0
 19 20  1  0  0  0  0
M  END
