11891
 OpenBabel03021519512D

 14 15  0  0  0  0  0  0  0  0999 V2000
   -5.7055   -4.1601    0.0000 C   0  0  0  0  0  0  0  0  0  0  0  0
   -2.0982   -5.6601    0.0000 C   0  0  0  0  0  0  0  0  0  0  0  0
   -4.4064   -4.9101    0.0000 C   0  0  0  0  0  0  0  0  0  0  0  0
   -7.0045   -4.9101    0.0000 C   0  0  0  0  0  0  0  0  0  0  0  0
   -4.4064   -6.4101    0.0000 C   0  0  0  0  0  0  0  0  0  0  0  0
   -7.0045   -6.4101    0.0000 C   0  0  0  0  0  0  0  0  0  0  0  0
   -5.7055   -7.1601    0.0000 C   0  0  0  0  0  0  0  0  0  0  0  0
   -2.9798   -4.4466    0.0000 N   0  0  0  0  0  0  0  0  0  0  0  0
   -2.9798   -6.8736    0.0000 S   0  0  0  0  0  0  0  0  0  0  0  0
   -0.5982   -5.6601    0.0000 S   0  0  0  0  0  0  0  0  0  0  0  0
    0.1518   -4.3610    0.0000 C   0  0  0  0  0  0  0  0  0  0  0  0
   -0.5982   -3.0620    0.0000 C   0  0  0  0  0  0  0  0  0  0  0  0
   -2.0982   -3.0620    0.0000 O   0  0  0  0  0  0  0  0  0  0  0  0
    0.1518   -1.7630    0.0000 O   0  0  0  0  0  0  0  0  0  0  0  0
  1  4  2  0  0  0  0
  1  3  1  0  0  0  0
  2 10  1  0  0  0  0
  2  8  2  0  0  0  0
  2  9  1  0  0  0  0
  3  8  1  0  0  0  0
  3  5  2  0  0  0  0
  4  6  1  0  0  0  0
  5  9  1  0  0  0  0
  5  7  1  0  0  0  0
  6  7  2  0  0  0  0
 10 11  1  0  0  0  0
 11 12  1  0  0  0  0
 12 13  2  0  0  0  0
 12 14  1  0  0  0  0
M  END
