276736
 OpenBabel03021519512D

 21 24  0  0  0  0  0  0  0  0999 V2000
    2.0490    5.2500    0.0000 O   0  0  0  0  0  0  0  0  0  0  0  0
    2.0490    2.2500    0.0000 O   0  0  0  0  0  0  0  0  0  0  0  0
    3.3481    4.5000    0.0000 C   0  0  0  0  0  0  0  0  0  0  0  0
    3.3481    3.0000    0.0000 C   0  0  0  0  0  0  0  0  0  0  0  0
    4.6471    2.2500    0.0000 C   0  0  0  0  0  0  0  0  0  0  0  0
    4.6471    5.2500    0.0000 C   0  0  0  0  0  0  0  0  0  0  0  0
    5.9462    4.5000    0.0000 C   0  0  0  0  0  0  0  0  0  0  0  0
    5.9462    3.0000    0.0000 C   0  0  0  0  0  0  0  0  0  0  0  0
    7.2452    5.2500    0.0000 C   0  0  0  0  0  0  0  0  0  0  0  0
    7.2452    6.7500    0.0000 C   0  0  0  0  0  0  0  0  0  0  0  0
    7.2452    2.2500    0.0000 C   0  0  0  0  0  0  0  0  0  0  0  0
    7.2452    0.7500    0.0000 O   0  0  0  0  0  0  0  0  0  0  0  0
    8.5442    3.0000    0.0000 N   0  0  0  0  0  0  0  0  0  0  0  0
    8.5442    7.5000    0.0000 C   0  0  0  0  0  0  0  0  0  0  0  0
    8.5442    4.5000    0.0000 C   0  0  0  0  0  0  0  0  0  0  0  0
    9.8433    5.2500    0.0000 C   0  0  0  0  0  0  0  0  0  0  0  0
    9.8433    6.7500    0.0000 C   0  0  0  0  0  0  0  0  0  0  0  0
   10.9039    4.1893    0.0000 C   0  0  0  0  0  0  0  0  0  0  0  0
   10.1539    2.8903    0.0000 C   0  0  0  0  0  0  0  0  0  0  0  0
    0.7500    4.5000    0.0000 C   0  0  0  0  0  0  0  0  0  0  0  0
    0.7500    3.0000    0.0000 C   0  0  0  0  0  0  0  0  0  0  0  0
  1  3  1  0  0  0  0
  1 20  1  0  0  0  0
  2  4  1  0  0  0  0
  2 21  1  0  0  0  0
  3  6  2  0  0  0  0
  3  4  1  0  0  0  0
  4  5  2  0  0  0  0
  5  8  1  0  0  0  0
  6  7  1  0  0  0  0
  7  9  1  0  0  0  0
  7  8  2  0  0  0  0
  8 11  1  0  0  0  0
  9 10  1  0  0  0  0
  9 15  2  0  0  0  0
 10 14  2  0  0  0  0
 11 13  1  0  0  0  0
 11 12  2  0  0  0  0
 13 15  1  0  0  0  0
 13 19  1  0  0  0  0
 14 17  1  0  0  0  0
 15 16  1  0  0  0  0
 16 17  2  0  0  0  0
 16 18  1  0  0  0  0
 18 19  1  0  0  0  0
M  END
