329052
 OpenBabel03021519512D

 23 24  0  0  0  0  0  0  0  0999 V2000
    5.9800    1.0865    0.0000 C   0  0  0  0  0  0  0  0  0  0  0  0
    4.6809    1.8365    0.0000 C   0  0  0  0  0  0  0  0  0  0  0  0
    5.6681   -0.3807    0.0000 C   0  0  0  0  0  0  0  0  0  0  0  0
    3.5662    0.8328    0.0000 O   0  0  0  0  0  0  0  0  0  0  0  0
    4.1763   -0.5375    0.0000 C   0  0  0  0  0  0  0  0  0  0  0  0
    5.6763   -3.1356    0.0000 C   0  0  0  0  0  0  0  0  0  0  0  0
    6.4263   -1.8365    0.0000 O   0  0  0  0  0  0  0  0  0  0  0  0
    6.4263   -4.4346    0.0000 C   0  0  0  0  0  0  0  0  0  0  0  0
    7.9263   -4.4346    0.0000 O   0  0  0  0  0  0  0  0  0  0  0  0
    6.4264   -7.0327    0.0000 N   0  0  0  0  0  0  0  0  0  0  0  0
    8.6764   -5.7336    0.0000 O   0  0  0  0  0  0  0  0  0  0  0  0
    7.9264   -7.0327    0.0000 C   0  0  0  0  0  0  0  0  0  0  0  0
   10.1764   -8.3317    0.0000 C   0  0  0  0  0  0  0  0  0  0  0  0
   10.9264   -9.6307    0.0000 C   0  0  0  0  0  0  0  0  0  0  0  0
   10.9264   -7.0327    0.0000 C   0  0  0  0  0  0  0  0  0  0  0  0
   12.4264   -9.6307    0.0000 C   0  0  0  0  0  0  0  0  0  0  0  0
   12.4264   -7.0327    0.0000 C   0  0  0  0  0  0  0  0  0  0  0  0
   13.1764   -8.3317    0.0000 C   0  0  0  0  0  0  0  0  0  0  0  0
    3.4263   -1.8365    0.0000 C   0  0  0  0  0  0  0  0  0  0  0  0
    4.1763   -3.1356    0.0000 N   0  0  0  0  0  0  0  0  0  0  0  0
    5.6764   -5.7337    0.0000 N   0  0  0  0  0  0  0  0  0  0  0  0
    5.6764   -8.3317    0.0000 C   0  0  0  0  0  0  0  0  0  0  0  0
    8.6764   -8.3317    0.0000 N   0  0  0  0  0  0  0  0  0  0  0  0
  1  3  1  0  0  0  0
  1  2  2  0  0  0  0
  2  4  1  0  0  0  0
  3  5  2  0  0  0  0
  4  5  1  0  0  0  0
  5 19  1  0  0  0  0
  6  7  2  0  0  0  0
  6  8  1  0  0  0  0
  6 20  1  0  0  0  0
  8  9  2  0  0  0  0
  8 21  1  0  0  0  0
 10 12  1  0  0  0  0
 10 21  1  0  0  0  0
 10 22  1  0  0  0  0
 11 12  2  0  0  0  0
 12 23  1  0  0  0  0
 13 15  1  0  0  0  0
 13 14  1  0  0  0  0
 13 23  1  0  0  0  0
 14 16  1  0  0  0  0
 15 17  1  0  0  0  0
 16 18  1  0  0  0  0
 17 18  1  0  0  0  0
 19 20  1  0  0  0  0
M  END
