13151
 OpenBabel03021519512D

 18 19  0  0  0  0  0  0  0  0999 V2000
   -4.6471   -5.2500    0.0000 Cl  0  0  0  0  0  0  0  0  0  0  0  0
   -2.0490   -2.2500    0.0000 C   0  0  0  0  0  0  0  0  0  0  0  0
   -3.3481   -3.0000    0.0000 C   0  0  0  0  0  0  0  0  0  0  0  0
   -0.7500   -3.0000    0.0000 C   0  0  0  0  0  0  0  0  0  0  0  0
   -0.7500   -4.5000    0.0000 C   0  0  0  0  0  0  0  0  0  0  0  0
   -3.3481   -4.5000    0.0000 C   0  0  0  0  0  0  0  0  0  0  0  0
   -2.0490   -5.2500    0.0000 C   0  0  0  0  0  0  0  0  0  0  0  0
   -9.8433   -2.2500    0.0000 C   0  0  0  0  0  0  0  0  0  0  0  0
   -8.5442   -3.0000    0.0000 C   0  0  0  0  0  0  0  0  0  0  0  0
  -11.1423   -3.0000    0.0000 C   0  0  0  0  0  0  0  0  0  0  0  0
   -8.5442   -4.5000    0.0000 C   0  0  0  0  0  0  0  0  0  0  0  0
  -11.1423   -4.5000    0.0000 C   0  0  0  0  0  0  0  0  0  0  0  0
   -9.8433   -5.2500    0.0000 C   0  0  0  0  0  0  0  0  0  0  0  0
  -12.4413   -5.2500    0.0000 O   0  0  0  0  0  0  0  0  0  0  0  0
   -7.2452   -2.2500    0.0000 C   0  0  0  0  0  0  0  0  0  0  0  0
   -7.2452   -0.7500    0.0000 O   0  0  0  0  0  0  0  0  0  0  0  0
   -5.9462   -3.0000    0.0000 C   0  0  0  0  0  0  0  0  0  0  0  0
   -4.6471   -2.2500    0.0000 C   0  0  0  0  0  0  0  0  0  0  0  0
  1  6  1  0  0  0  0
  2  4  2  0  0  0  0
  2  3  1  0  0  0  0
  3  6  2  0  0  0  0
  3 18  1  0  0  0  0
  4  5  1  0  0  0  0
  5  7  2  0  0  0  0
  6  7  1  0  0  0  0
  8 10  2  0  0  0  0
  8  9  1  0  0  0  0
  9 11  2  0  0  0  0
  9 15  1  0  0  0  0
 10 12  1  0  0  0  0
 11 13  1  0  0  0  0
 12 13  2  0  0  0  0
 12 14  1  0  0  0  0
 15 16  2  0  0  0  0
 15 17  1  0  0  0  0
 17 18  2  0  0  0  0
M  END
