241619
 OpenBabel03021519512D

 22 23  0  0  0  0  0  0  0  0999 V2000
   -1.6501    5.1095    0.0000 C   0  0  0  0  0  0  0  0  0  0  0  0
   -0.9001    6.4085    0.0000 C   0  0  0  0  0  0  0  0  0  0  0  0
   -0.9001    3.8104    0.0000 C   0  0  0  0  0  0  0  0  0  0  0  0
    0.5999    6.4085    0.0000 C   0  0  0  0  0  0  0  0  0  0  0  0
    0.5999    3.8104    0.0000 C   0  0  0  0  0  0  0  0  0  0  0  0
    1.3499    5.1095    0.0000 C   0  0  0  0  0  0  0  0  0  0  0  0
    1.3499    2.5114    0.0000 O   0  0  0  0  0  0  0  0  0  0  0  0
    2.8499    7.7076    0.0000 O   0  0  0  0  0  0  0  0  0  0  0  0
    3.5999    6.4085    0.0000 C   0  0  0  0  0  0  0  0  0  0  0  0
    5.0999    6.4085    0.0000 N   0  0  0  0  0  0  0  0  0  0  0  0
    5.0999    9.0066    0.0000 C   0  0  0  0  0  0  0  0  0  0  0  0
    3.6081    9.1634    0.0000 C   0  0  0  0  0  0  0  0  0  0  0  0
    5.7100   10.3769    0.0000 O   0  0  0  0  0  0  0  0  0  0  0  0
    4.5953   11.3806    0.0000 C   0  0  0  0  0  0  0  0  0  0  0  0
    3.2962   10.6306    0.0000 C   0  0  0  0  0  0  0  0  0  0  0  0
   -1.6501    7.7076    0.0000 N   0  3  0  0  0  0  0  0  0  0  0  0
   -3.1501    7.7076    0.0000 O   0  5  0  0  0  0  0  0  0  0  0  0
   -0.9001    9.0066    0.0000 O   0  0  0  0  0  0  0  0  0  0  0  0
    2.8499    5.1095    0.0000 N   0  0  0  0  0  0  0  0  0  0  0  0
    2.8499    2.5114    0.0000 C   0  0  0  0  0  0  0  0  0  0  0  0
    5.8499    5.1095    0.0000 C   0  0  0  0  0  0  0  0  0  0  0  0
    5.8499    7.7076    0.0000 C   0  0  0  0  0  0  0  0  0  0  0  0
  1  2  2  0  0  0  0
  1  3  1  0  0  0  0
  2  4  1  0  0  0  0
  2 16  1  0  0  0  0
  3  5  2  0  0  0  0
  4  6  2  0  0  0  0
  5  6  1  0  0  0  0
  5  7  1  0  0  0  0
  6 19  1  0  0  0  0
  7 20  1  0  0  0  0
  8  9  2  0  0  0  0
  9 10  1  0  0  0  0
  9 19  1  0  0  0  0
 10 21  1  0  0  0  0
 10 22  1  0  0  0  0
 11 12  2  0  0  0  0
 11 13  1  0  0  0  0
 11 22  1  0  0  0  0
 12 15  1  0  0  0  0
 13 14  1  0  0  0  0
 14 15  2  0  0  0  0
 16 17  1  0  0  0  0
 16 18  2  0  0  0  0
M  CHG  2  16   1  17  -1
M  END
