331198
 OpenBabel03021519512D

 10  9  0  0  0  0  0  0  0  0999 V2000
    3.2745   -1.0245    0.0000 N   0  0  0  0  0  0  0  0  0  0  0  0
    4.7745   -1.0245    0.0000 C   0  0  0  0  0  0  0  0  0  0  0  0
    5.5245    0.2745    0.0000 S   0  0  0  0  0  0  0  0  0  0  0  0
    2.5245    0.2745    0.0000 C   0  0  0  0  0  0  0  0  0  0  0  0
    1.7745    1.5736    0.0000 N   0  0  0  0  0  0  0  0  0  0  0  0
    5.5245   -2.3235    0.0000 N   0  0  0  0  0  0  0  0  0  0  0  0
    4.7745    1.5736    0.0000 C   0  0  0  0  0  0  0  0  0  0  0  0
    7.0245   -2.3235    0.0000 C   0  0  0  0  0  0  0  0  0  0  0  0
    7.7745   -1.0245    0.0000 C   0  0  0  0  0  0  0  0  0  0  0  0
    7.0245    0.2745    0.0000 C   0  0  0  0  0  0  0  0  0  0  0  0
  1  2  2  0  0  0  0
  1  4  1  0  0  0  0
  2  3  1  0  0  0  0
  2  6  1  0  0  0  0
  3  7  1  0  0  0  0
  4  5  3  0  0  0  0
  6  8  1  0  0  0  0
  8  9  1  0  0  0  0
  9 10  2  0  0  0  0
M  END
