93033
 OpenBabel03021519512D

 23 24  0  0  0  0  0  0  0  0999 V2000
    5.5711   11.1495    0.0000 O   0  0  0  0  0  0  0  0  0  0  0  0
    2.9730   11.1495    0.0000 N   0  0  0  0  0  0  0  0  0  0  0  0
    4.2721   13.3995    0.0000 N   0  0  0  0  0  0  0  0  0  0  0  0
    5.5711   14.1495    0.0000 H   0  0  0  0  0  0  0  0  0  0  0  0
    2.9730   15.6495    0.0000 O   0  0  0  0  0  0  0  0  0  0  0  0
    1.6740   11.8995    0.0000 C   0  0  0  0  0  0  0  0  0  0  0  0
    1.6740   13.3995    0.0000 C   0  0  0  0  0  0  0  0  0  0  0  0
    2.9730   14.1495    0.0000 C   0  0  0  0  0  0  0  0  0  0  0  0
   -0.9241    7.3995    0.0000 C   0  0  0  0  0  0  0  0  0  0  0  0
    0.3750    6.6495    0.0000 C   0  0  0  0  0  0  0  0  0  0  0  0
   -2.2231    6.6495    0.0000 C   0  0  0  0  0  0  0  0  0  0  0  0
    0.3750    5.1495    0.0000 C   0  0  0  0  0  0  0  0  0  0  0  0
   -2.2231    5.1495    0.0000 C   0  0  0  0  0  0  0  0  0  0  0  0
   -0.9240    4.3995    0.0000 C   0  0  0  0  0  0  0  0  0  0  0  0
    4.2721   11.8995    0.0000 C   0  0  0  0  0  0  0  0  0  0  0  0
   -3.5221    4.3995    0.0000 C   0  0  0  0  0  0  0  0  0  0  0  0
   -4.8212    5.1495    0.0000 O   0  0  0  0  0  0  0  0  0  0  0  0
   -3.5221    2.8995    0.0000 O   0  0  0  0  0  0  0  0  0  0  0  0
   -3.5221    7.3995    0.0000 O   0  0  0  0  0  0  0  0  0  0  0  0
    1.6740    7.3995    0.0000 N   0  0  0  0  0  0  0  0  0  0  0  0
    1.6740    8.8995    0.0000 C   0  0  0  0  0  0  0  0  0  0  0  0
    0.3750    9.6495    0.0000 O   0  0  0  0  0  0  0  0  0  0  0  0
    2.9730    9.6495    0.0000 C   0  0  0  0  0  0  0  0  0  0  0  0
  1 15  2  0  0  0  0
  2  6  1  0  0  0  0
  2 15  1  0  0  0  0
  2 23  1  0  0  0  0
  3  8  1  0  0  0  0
  3 15  1  0  0  0  0
  3  4  1  0  0  0  0
  5  8  2  0  0  0  0
  6  7  2  0  0  0  0
  7  8  1  0  0  0  0
  9 10  2  0  0  0  0
  9 11  1  0  0  0  0
 10 12  1  0  0  0  0
 10 20  1  0  0  0  0
 11 13  2  0  0  0  0
 11 19  1  0  0  0  0
 12 14  2  0  0  0  0
 13 14  1  0  0  0  0
 13 16  1  0  0  0  0
 16 17  2  0  0  0  0
 16 18  1  0  0  0  0
 20 21  1  0  0  0  0
 21 22  2  0  0  0  0
 21 23  1  0  0  0  0
M  END
