175412
 OpenBabel03021519512D

 16 17  0  0  0  0  0  0  0  0999 V2000
    3.1664   -2.0379    0.0000 N   0  0  0  0  0  0  0  0  0  0  0  0
    4.4654   -4.2879    0.0000 N   0  0  0  0  0  0  0  0  0  0  0  0
    5.7644   -2.0379    0.0000 N   0  0  0  0  0  0  0  0  0  0  0  0
    7.1910   -1.5744    0.0000 N   0  0  0  0  0  0  0  0  0  0  0  0
    4.4654   -1.2879    0.0000 C   0  0  0  0  0  0  0  0  0  0  0  0
    8.0727   -2.7879    0.0000 C   0  0  0  0  0  0  0  0  0  0  0  0
    7.1910   -4.0015    0.0000 C   0  0  0  0  0  0  0  0  0  0  0  0
    5.7644   -3.5379    0.0000 C   0  0  0  0  0  0  0  0  0  0  0  0
    3.1664   -3.5379    0.0000 C   0  0  0  0  0  0  0  0  0  0  0  0
    4.4654    0.2121    0.0000 S   0  0  0  0  0  0  0  0  0  0  0  0
    3.1664    0.9621    0.0000 C   0  0  0  0  0  0  0  0  0  0  0  0
    7.6546   -5.4280    0.0000 C   0  0  0  0  0  0  0  0  0  0  0  0
    9.1218   -5.7399    0.0000 O   0  0  0  0  0  0  0  0  0  0  0  0
    6.6509   -6.5428    0.0000 O   0  0  0  0  0  0  0  0  0  0  0  0
    7.1144   -7.9693    0.0000 C   0  0  0  0  0  0  0  0  0  0  0  0
    6.1107   -9.0841    0.0000 C   0  0  0  0  0  0  0  0  0  0  0  0
  1  5  2  0  0  0  0
  1  9  1  0  0  0  0
  2  9  2  0  0  0  0
  2  8  1  0  0  0  0
  3  4  1  0  0  0  0
  3  5  1  0  0  0  0
  3  8  1  0  0  0  0
  4  6  2  0  0  0  0
  5 10  1  0  0  0  0
  6  7  1  0  0  0  0
  7  8  2  0  0  0  0
  7 12  1  0  0  0  0
 10 11  1  0  0  0  0
 12 13  2  0  0  0  0
 12 14  1  0  0  0  0
 14 15  1  0  0  0  0
 15 16  1  0  0  0  0
M  END
