8090
 OpenBabel03021519512D

 19 21  0  0  0  0  0  0  0  0999 V2000
    4.2721    4.3995    0.0000 C   0  0  0  0  0  0  0  0  0  0  0  0
    2.9731    3.6495    0.0000 C   0  0  0  0  0  0  0  0  0  0  0  0
    5.5711    3.6495    0.0000 C   0  0  0  0  0  0  0  0  0  0  0  0
    5.5711    2.1495    0.0000 C   0  0  0  0  0  0  0  0  0  0  0  0
    2.9731    2.1495    0.0000 C   0  0  0  0  0  0  0  0  0  0  0  0
    4.2721    1.3995    0.0000 C   0  0  0  0  0  0  0  0  0  0  0  0
    6.8702   -0.1005    0.0000 C   0  0  0  0  0  0  0  0  0  0  0  0
    8.1692   -0.8505    0.0000 C   0  0  0  0  0  0  0  0  0  0  0  0
    6.8702    1.3995    0.0000 C   0  0  0  0  0  0  0  0  0  0  0  0
    8.1692   -2.3505    0.0000 C   0  0  0  0  0  0  0  0  0  0  0  0
    9.4683   -3.1005    0.0000 C   0  0  0  0  0  0  0  0  0  0  0  0
    8.1692    2.1495    0.0000 C   0  0  0  0  0  0  0  0  0  0  0  0
    9.4683   -0.1005    0.0000 C   0  0  0  0  0  0  0  0  0  0  0  0
   10.7673   -2.3505    0.0000 C   0  0  0  0  0  0  0  0  0  0  0  0
    9.4683    1.3995    0.0000 C   0  0  0  0  0  0  0  0  0  0  0  0
   10.7673   -0.8505    0.0000 C   0  0  0  0  0  0  0  0  0  0  0  0
    4.2721   -0.1005    0.0000 C   0  0  0  0  0  0  0  0  0  0  0  0
    2.9731   -0.8505    0.0000 O   0  0  0  0  0  0  0  0  0  0  0  0
    5.5712   -0.8505    0.0000 N   0  0  0  0  0  0  0  0  0  0  0  0
  1  3  2  0  0  0  0
  1  2  1  0  0  0  0
  2  5  2  0  0  0  0
  3  4  1  0  0  0  0
  4  6  2  0  0  0  0
  5  6  1  0  0  0  0
  6 17  1  0  0  0  0
  7  9  2  0  0  0  0
  7  8  1  0  0  0  0
  7 19  1  0  0  0  0
  8 13  2  0  0  0  0
  8 10  1  0  0  0  0
  9 12  1  0  0  0  0
 10 11  2  0  0  0  0
 11 14  1  0  0  0  0
 12 15  2  0  0  0  0
 13 15  1  0  0  0  0
 13 16  1  0  0  0  0
 14 16  2  0  0  0  0
 17 18  2  0  0  0  0
 17 19  1  0  0  0  0
M  END
