117028
 OpenBabel03021519512D

 25 28  0  0  0  0  0  0  0  0999 V2000
  -11.1423   -1.5000    0.0000 N   0  0  0  0  0  0  0  0  0  0  0  0
  -13.7404   -6.0000    0.0000 Br  0  0  0  0  0  0  0  0  0  0  0  0
   -7.2452   -5.2500    0.0000 N   0  0  0  0  0  0  0  0  0  0  0  0
   -4.6471   -3.7500    0.0000 N   0  0  0  0  0  0  0  0  0  0  0  0
   -3.3481   -1.5000    0.0000 C   0  0  0  0  0  0  0  0  0  0  0  0
   -3.3481   -3.0000    0.0000 C   0  0  0  0  0  0  0  0  0  0  0  0
   -2.0490   -0.7500    0.0000 C   0  0  0  0  0  0  0  0  0  0  0  0
   -0.7500   -1.5000    0.0000 C   0  0  0  0  0  0  0  0  0  0  0  0
   -2.0490   -3.7500    0.0000 C   0  0  0  0  0  0  0  0  0  0  0  0
   -0.7500   -3.0000    0.0000 C   0  0  0  0  0  0  0  0  0  0  0  0
   -5.9461   -3.0000    0.0000 C   0  0  0  0  0  0  0  0  0  0  0  0
   -7.2452   -3.7500    0.0000 C   0  0  0  0  0  0  0  0  0  0  0  0
   -9.8433   -3.7500    0.0000 C   0  0  0  0  0  0  0  0  0  0  0  0
   -9.8433   -5.2500    0.0000 C   0  0  0  0  0  0  0  0  0  0  0  0
  -11.1423   -3.0000    0.0000 C   0  0  0  0  0  0  0  0  0  0  0  0
  -11.1423   -6.0000    0.0000 C   0  0  0  0  0  0  0  0  0  0  0  0
  -12.4413   -3.7500    0.0000 C   0  0  0  0  0  0  0  0  0  0  0  0
  -12.4413   -5.2500    0.0000 C   0  0  0  0  0  0  0  0  0  0  0  0
  -13.7404   -3.0000    0.0000 C   0  0  0  0  0  0  0  0  0  0  0  0
  -13.7404   -1.5000    0.0000 C   0  0  0  0  0  0  0  0  0  0  0  0
  -12.4413   -0.7500    0.0000 C   0  0  0  0  0  0  0  0  0  0  0  0
   -4.6471   -5.2500    0.0000 C   0  0  0  0  0  0  0  0  0  0  0  0
   -5.9461   -6.0000    0.0000 C   0  0  0  0  0  0  0  0  0  0  0  0
   -8.5442   -3.0000    0.0000 O   0  0  0  0  0  0  0  0  0  0  0  0
   -8.5442   -6.0000    0.0000 C   0  0  0  0  0  0  0  0  0  0  0  0
  1 21  2  0  0  0  0
  1 15  1  0  0  0  0
  2 18  1  0  0  0  0
  3 12  1  0  0  0  0
  3 23  1  0  0  0  0
  3 25  1  0  0  0  0
  4  6  1  0  0  0  0
  4 11  1  0  0  0  0
  4 22  1  0  0  0  0
  5  7  2  0  0  0  0
  5  6  1  0  0  0  0
  6  9  2  0  0  0  0
  7  8  1  0  0  0  0
  8 10  2  0  0  0  0
  9 10  1  0  0  0  0
 11 12  1  0  0  0  0
 13 14  2  0  0  0  0
 13 15  1  0  0  0  0
 13 24  1  0  0  0  0
 14 16  1  0  0  0  0
 14 25  1  0  0  0  0
 15 17  2  0  0  0  0
 16 18  2  0  0  0  0
 17 19  1  0  0  0  0
 17 18  1  0  0  0  0
 19 20  2  0  0  0  0
 20 21  1  0  0  0  0
 22 23  1  0  0  0  0
M  END
