50651
 OpenBabel03021519512D

 25 28  0  0  0  0  0  0  0  0999 V2000
    3.7383    5.4895    0.0000 H   0  0  0  0  0  0  0  0  0  0  0  0
    4.2018    4.0629    0.0000 N   0  0  0  0  0  0  0  0  0  0  0  0
   14.7217   -3.1506    0.0000 Cl  0  0  0  0  0  0  0  0  0  0  0  0
    6.9274    4.3494    0.0000 C   0  0  0  0  0  0  0  0  0  0  0  0
    5.6284    3.5994    0.0000 C   0  0  0  0  0  0  0  0  0  0  0  0
    8.2264    3.5994    0.0000 C   0  0  0  0  0  0  0  0  0  0  0  0
    8.2265    2.0994    0.0000 C   0  0  0  0  0  0  0  0  0  0  0  0
    5.6284    2.0994    0.0000 C   0  0  0  0  0  0  0  0  0  0  0  0
    6.9274    1.3494    0.0000 C   0  0  0  0  0  0  0  0  0  0  0  0
    4.2018    1.6359    0.0000 C   0  0  0  0  0  0  0  0  0  0  0  0
    1.8283    2.6926    0.0000 C   0  0  0  0  0  0  0  0  0  0  0  0
    3.3201    2.8494    0.0000 C   0  0  0  0  0  0  0  0  0  0  0  0
    1.2182    1.3223    0.0000 C   0  0  0  0  0  0  0  0  0  0  0  0
    2.0999    0.1087    0.0000 C   0  0  0  0  0  0  0  0  0  0  0  0
    3.5917    0.2655    0.0000 C   0  0  0  0  0  0  0  0  0  0  0  0
   12.1236   -0.1506    0.0000 C   0  0  0  0  0  0  0  0  0  0  0  0
   13.4226   -0.9006    0.0000 C   0  0  0  0  0  0  0  0  0  0  0  0
   10.8245   -0.9006    0.0000 C   0  0  0  0  0  0  0  0  0  0  0  0
   13.4226   -2.4006    0.0000 C   0  0  0  0  0  0  0  0  0  0  0  0
   10.8246   -2.4006    0.0000 C   0  0  0  0  0  0  0  0  0  0  0  0
   12.1236   -3.1506    0.0000 C   0  0  0  0  0  0  0  0  0  0  0  0
    9.5255    4.3494    0.0000 O   0  0  0  0  0  0  0  0  0  0  0  0
    9.5255    1.3494    0.0000 C   0  0  0  0  0  0  0  0  0  0  0  0
   10.8245    2.0994    0.0000 O   0  0  0  0  0  0  0  0  0  0  0  0
    9.5255   -0.1506    0.0000 N   0  0  0  0  0  0  0  0  0  0  0  0
  1  2  1  0  0  0  0
  2  5  1  0  0  0  0
  2 12  1  0  0  0  0
  3 19  1  0  0  0  0
  4  6  2  0  0  0  0
  4  5  1  0  0  0  0
  5  8  2  0  0  0  0
  6  7  1  0  0  0  0
  6 22  1  0  0  0  0
  7  9  2  0  0  0  0
  7 23  1  0  0  0  0
  8  9  1  0  0  0  0
  8 10  1  0  0  0  0
 10 12  2  0  0  0  0
 10 15  1  0  0  0  0
 11 13  2  0  0  0  0
 11 12  1  0  0  0  0
 13 14  1  0  0  0  0
 14 15  2  0  0  0  0
 16 17  2  0  0  0  0
 16 18  1  0  0  0  0
 17 19  1  0  0  0  0
 18 20  2  0  0  0  0
 18 25  1  0  0  0  0
 19 21  2  0  0  0  0
 20 21  1  0  0  0  0
 23 24  2  0  0  0  0
 23 25  1  0  0  0  0
M  END
