73054
 OpenBabel03021519512D

 18 20  0  0  0  0  0  0  0  0999 V2000
    2.0490   -5.2500    0.0000 C   0  0  0  0  0  0  0  0  0  0  0  0
    2.0491   -8.2500    0.0000 C   0  0  0  0  0  0  0  0  0  0  0  0
    0.7500   -6.0000    0.0000 N   0  0  0  0  0  0  0  0  0  0  0  0
    0.7500   -7.5000    0.0000 N   0  0  0  0  0  0  0  0  0  0  0  0
    3.3481   -7.5000    0.0000 N   0  0  0  0  0  0  0  0  0  0  0  0
    3.3481   -6.0000    0.0000 N   0  0  0  0  0  0  0  0  0  0  0  0
    2.0490   -3.7500    0.0000 C   0  0  0  0  0  0  0  0  0  0  0  0
    0.7500   -3.0000    0.0000 C   0  0  0  0  0  0  0  0  0  0  0  0
    0.7500   -1.5000    0.0000 C   0  0  0  0  0  0  0  0  0  0  0  0
    2.0490   -0.7500    0.0000 C   0  0  0  0  0  0  0  0  0  0  0  0
    3.3481   -1.5000    0.0000 C   0  0  0  0  0  0  0  0  0  0  0  0
    3.3481   -3.0000    0.0000 C   0  0  0  0  0  0  0  0  0  0  0  0
    2.0491   -9.7500    0.0000 C   0  0  0  0  0  0  0  0  0  0  0  0
    3.3481  -10.5000    0.0000 C   0  0  0  0  0  0  0  0  0  0  0  0
    3.3481  -12.0000    0.0000 C   0  0  0  0  0  0  0  0  0  0  0  0
    2.0491  -12.7500    0.0000 C   0  0  0  0  0  0  0  0  0  0  0  0
    0.7500  -12.0000    0.0000 C   0  0  0  0  0  0  0  0  0  0  0  0
    0.7500  -10.5000    0.0000 C   0  0  0  0  0  0  0  0  0  0  0  0
  1  6  2  0  0  0  0
  1  3  1  0  0  0  0
  1  7  1  0  0  0  0
  2  5  2  0  0  0  0
  2  4  1  0  0  0  0
  2 13  1  0  0  0  0
  3  4  2  0  0  0  0
  5  6  1  0  0  0  0
  7  8  2  0  0  0  0
  7 12  1  0  0  0  0
  8  9  1  0  0  0  0
  9 10  2  0  0  0  0
 10 11  1  0  0  0  0
 11 12  2  0  0  0  0
 13 14  2  0  0  0  0
 13 18  1  0  0  0  0
 14 15  1  0  0  0  0
 15 16  2  0  0  0  0
 16 17  1  0  0  0  0
 17 18  2  0  0  0  0
M  END
