34794
 OpenBabel03021519512D

 13 14  0  0  0  0  0  0  0  0999 V2000
   -2.3716   -0.9451    0.0000 C   0  0  0  0  0  0  0  0  0  0  0  0
   -4.7987   -0.9451    0.0000 C   0  0  0  0  0  0  0  0  0  0  0  0
   -5.2168   -3.5852    0.0000 H   0  0  0  0  0  0  0  0  0  0  0  0
   -3.5852   -0.0634    0.0000 N   0  0  0  0  0  0  0  0  0  0  0  0
   -4.3352   -2.3717    0.0000 N   0  0  0  0  0  0  0  0  0  0  0  0
   -2.8352   -2.3717    0.0000 N   0  0  0  0  0  0  0  0  0  0  0  0
   -6.2253   -0.4815    0.0000 C   0  0  0  0  0  0  0  0  0  0  0  0
   -7.3400   -1.4852    0.0000 C   0  0  0  0  0  0  0  0  0  0  0  0
   -8.7666   -1.0217    0.0000 C   0  0  0  0  0  0  0  0  0  0  0  0
   -9.0784    0.4455    0.0000 C   0  0  0  0  0  0  0  0  0  0  0  0
   -7.9637    1.4492    0.0000 C   0  0  0  0  0  0  0  0  0  0  0  0
   -6.5371    0.9857    0.0000 C   0  0  0  0  0  0  0  0  0  0  0  0
   -0.9451   -0.4815    0.0000 N   0  0  0  0  0  0  0  0  0  0  0  0
  1  4  1  0  0  0  0
  1  6  2  0  0  0  0
  1 13  1  0  0  0  0
  2  4  2  0  0  0  0
  2  5  1  0  0  0  0
  2  7  1  0  0  0  0
  3  5  1  0  0  0  0
  5  6  1  0  0  0  0
  7  8  2  0  0  0  0
  7 12  1  0  0  0  0
  8  9  1  0  0  0  0
  9 10  2  0  0  0  0
 10 11  1  0  0  0  0
 11 12  2  0  0  0  0
M  END
