42231
 OpenBabel03021519512D

 15 16  0  0  1  0  0  0  0  0999 V2000
    3.6490    8.1689    0.0000 H   0  0  0  0  0  0  0  0  0  0  0  0
    2.8990    4.2718    0.0000 N   0  0  0  0  0  0  0  0  0  0  0  0
    3.6490    2.9728    0.0000 H   0  0  0  0  0  0  0  0  0  0  0  0
    2.8990    6.8699    0.0000 N   0  0  0  0  0  0  0  0  0  0  0  0
    1.3990    6.8699    0.0000 C   0  0  3  0  0  0  0  0  0  0  0  0
    0.6490    5.5708    0.0000 C   0  0  0  0  0  0  0  0  0  0  0  0
    1.3990    4.2718    0.0000 C   0  0  0  0  0  0  0  0  0  0  0  0
    4.5306    6.7844    0.0000 C   0  0  0  0  0  0  0  0  0  0  0  0
    3.6490    5.5708    0.0000 C   0  0  0  0  0  0  0  0  0  0  0  0
    5.9572    6.3208    0.0000 C   0  0  0  0  0  0  0  0  0  0  0  0
    5.9572    4.8208    0.0000 C   0  0  0  0  0  0  0  0  0  0  0  0
    4.5307    4.3573    0.0000 C   0  0  0  0  0  0  0  0  0  0  0  0
   -0.0106    3.7588    0.0000 C   0  0  0  0  0  0  0  0  0  0  0  0
    0.6490    8.1689    0.0000 C   0  0  0  0  0  0  0  0  0  0  0  0
    1.6594    2.7946    0.0000 C   0  0  0  0  0  0  0  0  0  0  0  0
  1  4  1  0  0  0  0
  2  7  1  0  0  0  0
  2  9  1  0  0  0  0
  2  3  1  0  0  0  0
  4  5  1  0  0  0  0
  4  9  1  0  0  0  0
  5  6  1  0  0  0  0
  5 14  1  0  0  0  0
  6  7  1  0  0  0  0
  7 13  1  0  0  0  0
  7 15  1  0  0  0  0
  8  9  1  0  0  0  0
  8 10  1  0  0  0  0
  9 12  1  0  0  0  0
 10 11  1  0  0  0  0
 11 12  1  0  0  0  0
M  END
