11667
 OpenBabel03021519512D

 26 29  0  0  0  0  0  0  0  0999 V2000
   -2.8726    2.5245    0.0000 Br  0  0  0  0  0  0  0  0  0  0  0  0
    3.6226    7.7745    0.0000 N   0  0  0  0  0  0  0  0  0  0  0  0
    1.0245    7.7745    0.0000 N   0  0  0  0  0  0  0  0  0  0  0  0
    4.9217   16.0245    0.0000 Br  0  0  0  0  0  0  0  0  0  0  0  0
   -0.0902   10.2782    0.0000 N   0  0  0  0  0  0  0  0  0  0  0  0
    0.5199   11.6485    0.0000 N   0  0  0  0  0  0  0  0  0  0  0  0
   -0.2745    5.5245    0.0000 C   0  0  0  0  0  0  0  0  0  0  0  0
    1.0245    4.7745    0.0000 C   0  0  0  0  0  0  0  0  0  0  0  0
   -1.5736    4.7745    0.0000 C   0  0  0  0  0  0  0  0  0  0  0  0
    1.0245    3.2745    0.0000 C   0  0  0  0  0  0  0  0  0  0  0  0
   -1.5736    3.2745    0.0000 C   0  0  0  0  0  0  0  0  0  0  0  0
   -0.2745    2.5245    0.0000 C   0  0  0  0  0  0  0  0  0  0  0  0
    1.0245    9.2745    0.0000 C   0  0  0  0  0  0  0  0  0  0  0  0
    2.3236   10.0245    0.0000 C   0  0  0  0  0  0  0  0  0  0  0  0
    3.6226    9.2745    0.0000 C   0  0  0  0  0  0  0  0  0  0  0  0
    2.0117   11.4917    0.0000 C   0  0  0  0  0  0  0  0  0  0  0  0
    2.3236    7.0245    0.0000 C   0  0  0  0  0  0  0  0  0  0  0  0
    4.9217   11.5245    0.0000 C   0  0  0  0  0  0  0  0  0  0  0  0
    3.6226   12.2745    0.0000 C   0  0  0  0  0  0  0  0  0  0  0  0
    6.2207   12.2745    0.0000 C   0  0  0  0  0  0  0  0  0  0  0  0
    3.6226   13.7745    0.0000 C   0  0  0  0  0  0  0  0  0  0  0  0
    6.2207   13.7745    0.0000 C   0  0  0  0  0  0  0  0  0  0  0  0
    4.9217   14.5245    0.0000 C   0  0  0  0  0  0  0  0  0  0  0  0
    2.3236    5.5245    0.0000 N   0  0  0  0  0  0  0  0  0  0  0  0
    4.9216   10.0245    0.0000 N   0  0  0  0  0  0  0  0  0  0  0  0
   -1.5574    9.9664    0.0000 C   0  0  0  0  0  0  0  0  0  0  0  0
  1 11  1  0  0  0  0
  2 15  2  0  0  0  0
  2 17  1  0  0  0  0
  3 17  2  0  0  0  0
  3 13  1  0  0  0  0
  4 23  1  0  0  0  0
  5  6  1  0  0  0  0
  5 13  1  0  0  0  0
  5 26  1  0  0  0  0
  6 16  2  0  0  0  0
  7  9  2  0  0  0  0
  7  8  1  0  0  0  0
  8 10  2  0  0  0  0
  8 24  1  0  0  0  0
  9 11  1  0  0  0  0
 10 12  1  0  0  0  0
 11 12  2  0  0  0  0
 13 14  2  0  0  0  0
 14 15  1  0  0  0  0
 14 16  1  0  0  0  0
 15 25  1  0  0  0  0
 17 24  1  0  0  0  0
 18 19  2  0  0  0  0
 18 20  1  0  0  0  0
 18 25  1  0  0  0  0
 19 21  1  0  0  0  0
 20 22  2  0  0  0  0
 21 23  2  0  0  0  0
 22 23  1  0  0  0  0
M  END
