166846
 OpenBabel03021519512D

 19 19  0  0  0  0  0  0  0  0999 V2000
    5.9462    2.2500    0.0000 N   0  0  0  0  0  0  0  0  0  0  0  0
    7.2452    4.5000    0.0000 N   0  0  0  0  0  0  0  0  0  0  0  0
    8.5442    2.2500    0.0000 O   0  0  0  0  0  0  0  0  0  0  0  0
    5.9461    5.2500    0.0000 C   0  0  0  0  0  0  0  0  0  0  0  0
    4.6471    4.5000    0.0000 C   0  0  0  0  0  0  0  0  0  0  0  0
    4.6471    3.0000    0.0000 C   0  0  0  0  0  0  0  0  0  0  0  0
    7.2452    3.0000    0.0000 C   0  0  0  0  0  0  0  0  0  0  0  0
    2.0490    3.0000    0.0000 C   0  0  0  0  0  0  0  0  0  0  0  0
    2.0490    4.5000    0.0000 O   0  0  0  0  0  0  0  0  0  0  0  0
    0.7500    2.2500    0.0000 C   0  0  0  0  0  0  0  0  0  0  0  0
    3.3481    2.2500    0.0000 N   0  0  0  0  0  0  0  0  0  0  0  0
    8.5442    5.2500    0.0000 C   0  0  0  0  0  0  0  0  0  0  0  0
    8.5442    6.7500    0.0000 C   0  0  0  0  0  0  0  0  0  0  0  0
    9.8433    7.5000    0.0000 O   0  0  0  0  0  0  0  0  0  0  0  0
    7.2452    7.5000    0.0000 N   0  0  0  0  0  0  0  0  0  0  0  0
    7.2452    9.0000    0.0000 C   0  0  0  0  0  0  0  0  0  0  0  0
    5.9461    9.7500    0.0000 C   0  0  0  0  0  0  0  0  0  0  0  0
    5.9461    6.7500    0.0000 C   0  0  0  0  0  0  0  0  0  0  0  0
    4.6471    7.5000    0.0000 C   0  0  0  0  0  0  0  0  0  0  0  0
  1  6  2  0  0  0  0
  1  7  1  0  0  0  0
  2  4  1  0  0  0  0
  2  7  1  0  0  0  0
  2 12  1  0  0  0  0
  3  7  2  0  0  0  0
  4  5  2  0  0  0  0
  5  6  1  0  0  0  0
  6 11  1  0  0  0  0
  8  9  2  0  0  0  0
  8 10  1  0  0  0  0
  8 11  1  0  0  0  0
 12 13  1  0  0  0  0
 13 14  2  0  0  0  0
 13 15  1  0  0  0  0
 15 16  1  0  0  0  0
 15 18  1  0  0  0  0
 16 17  1  0  0  0  0
 18 19  1  0  0  0  0
M  END
