87690
 OpenBabel03021519512D

 21 23  0  0  0  0  0  0  0  0999 V2000
  -13.0806    3.6497    0.0000 N   0  0  0  0  0  0  0  0  0  0  0  0
  -11.7815    5.8997    0.0000 O   0  0  0  0  0  0  0  0  0  0  0  0
  -11.7816    1.3997    0.0000 N   0  0  0  0  0  0  0  0  0  0  0  0
  -11.7816   -0.1003    0.0000 H   0  0  0  0  0  0  0  0  0  0  0  0
   -9.0559    4.1133    0.0000 N   0  0  0  0  0  0  0  0  0  0  0  0
   -9.0559    1.6862    0.0000 N   0  0  0  0  0  0  0  0  0  0  0  0
  -11.7816    4.3997    0.0000 C   0  0  0  0  0  0  0  0  0  0  0  0
  -10.4825    3.6497    0.0000 C   0  0  0  0  0  0  0  0  0  0  0  0
  -10.4825    2.1497    0.0000 C   0  0  0  0  0  0  0  0  0  0  0  0
   -8.1742    2.8998    0.0000 C   0  0  0  0  0  0  0  0  0  0  0  0
  -13.0806    2.1497    0.0000 C   0  0  0  0  0  0  0  0  0  0  0  0
   -6.1215    1.0625    0.0000 C   0  0  0  0  0  0  0  0  0  0  0  0
   -4.6543    0.7506    0.0000 C   0  0  0  0  0  0  0  0  0  0  0  0
   -7.1252   -0.0522    0.0000 C   0  0  0  0  0  0  0  0  0  0  0  0
   -4.1907   -0.6759    0.0000 C   0  0  0  0  0  0  0  0  0  0  0  0
   -6.6616   -1.4788    0.0000 C   0  0  0  0  0  0  0  0  0  0  0  0
   -5.1944   -1.7907    0.0000 C   0  0  0  0  0  0  0  0  0  0  0  0
   -8.5924    0.2596    0.0000 C   0  0  0  0  0  0  0  0  0  0  0  0
   -2.7235   -0.9878    0.0000 N   0  3  0  0  0  0  0  0  0  0  0  0
   -1.7198    0.1269    0.0000 O   0  5  0  0  0  0  0  0  0  0  0  0
   -2.2600   -2.4144    0.0000 O   0  0  0  0  0  0  0  0  0  0  0  0
  1 11  2  0  0  0  0
  1  7  1  0  0  0  0
  2  7  2  0  0  0  0
  3  9  1  0  0  0  0
  3 11  1  0  0  0  0
  3  4  1  0  0  0  0
  5 10  2  0  0  0  0
  5  8  1  0  0  0  0
  6  9  1  0  0  0  0
  6 10  1  0  0  0  0
  6 18  1  0  0  0  0
  7  8  1  0  0  0  0
  8  9  2  0  0  0  0
 12 13  2  0  0  0  0
 12 14  1  0  0  0  0
 13 15  1  0  0  0  0
 14 16  2  0  0  0  0
 14 18  1  0  0  0  0
 15 17  2  0  0  0  0
 15 19  1  0  0  0  0
 16 17  1  0  0  0  0
 19 20  1  0  0  0  0
 19 21  2  0  0  0  0
M  CHG  2  19   1  20  -1
M  END
