106282
 OpenBabel03021519512D

 19 21  0  0  0  0  0  0  0  0999 V2000
   -3.1317    8.2597    0.0000 N   0  0  0  0  0  0  0  0  0  0  0  0
   -5.8573    8.5461    0.0000 C   0  0  0  0  0  0  0  0  0  0  0  0
   -7.1564    7.7961    0.0000 C   0  0  0  0  0  0  0  0  0  0  0  0
   -4.5583    7.7961    0.0000 C   0  0  0  0  0  0  0  0  0  0  0  0
   -4.5583    6.2961    0.0000 C   0  0  0  0  0  0  0  0  0  0  0  0
   -7.1564    6.2961    0.0000 C   0  0  0  0  0  0  0  0  0  0  0  0
   -3.1317    5.8326    0.0000 C   0  0  0  0  0  0  0  0  0  0  0  0
   -2.2500    7.0461    0.0000 C   0  0  0  0  0  0  0  0  0  0  0  0
   -5.8573    5.5461    0.0000 C   0  0  0  0  0  0  0  0  0  0  0  0
   -3.2083    1.8647    0.0000 C   0  0  0  0  0  0  0  0  0  0  0  0
   -3.6718    3.2913    0.0000 C   0  0  0  0  0  0  0  0  0  0  0  0
   -4.2120    0.7500    0.0000 C   0  0  0  0  0  0  0  0  0  0  0  0
   -5.6792    1.0619    0.0000 C   0  0  0  0  0  0  0  0  0  0  0  0
   -5.1391    3.6032    0.0000 C   0  0  0  0  0  0  0  0  0  0  0  0
   -6.1428    2.4884    0.0000 C   0  0  0  0  0  0  0  0  0  0  0  0
   -2.6682    9.6862    0.0000 C   0  0  0  0  0  0  0  0  0  0  0  0
   -0.7500    7.0461    0.0000 C   0  0  0  0  0  0  0  0  0  0  0  0
   -2.6682    4.4060    0.0000 C   0  0  0  0  0  0  0  0  0  0  0  0
   -1.2009    4.0942    0.0000 O   0  0  0  0  0  0  0  0  0  0  0  0
  1  4  1  0  0  0  0
  1  8  1  0  0  0  0
  1 16  1  0  0  0  0
  2  3  2  0  0  0  0
  2  4  1  0  0  0  0
  3  6  1  0  0  0  0
  4  5  2  0  0  0  0
  5  7  1  0  0  0  0
  5  9  1  0  0  0  0
  6  9  2  0  0  0  0
  7  8  2  0  0  0  0
  7 18  1  0  0  0  0
  8 17  1  0  0  0  0
 10 12  2  0  0  0  0
 10 11  1  0  0  0  0
 11 14  2  0  0  0  0
 11 18  1  0  0  0  0
 12 13  1  0  0  0  0
 13 15  2  0  0  0  0
 14 15  1  0  0  0  0
 18 19  2  0  0  0  0
M  END
