43308
 OpenBabel03021519512D

 22 23  0  0  0  0  0  0  0  0999 V2000
    2.9731   -2.1495    0.0000 C   0  0  0  0  0  0  0  0  0  0  0  0
    6.8702   -5.8995    0.0000 C   0  0  0  0  0  0  0  0  0  0  0  0
    6.8702   -7.3995    0.0000 N   0  0  0  0  0  0  0  0  0  0  0  0
    9.4683   -7.3995    0.0000 C   0  0  0  0  0  0  0  0  0  0  0  0
   10.7673   -8.1495    0.0000 C   0  0  0  0  0  0  0  0  0  0  0  0
    8.1692   -8.1495    0.0000 C   0  0  0  0  0  0  0  0  0  0  0  0
   10.7673   -9.6495    0.0000 C   0  0  0  0  0  0  0  0  0  0  0  0
    8.1693   -9.6495    0.0000 C   0  0  0  0  0  0  0  0  0  0  0  0
    9.4683  -10.3995    0.0000 C   0  0  0  0  0  0  0  0  0  0  0  0
    5.5712   -0.6495    0.0000 C   0  0  0  0  0  0  0  0  0  0  0  0
    4.2721    0.1005    0.0000 C   0  0  0  0  0  0  0  0  0  0  0  0
    6.8702    0.1005    0.0000 C   0  0  0  0  0  0  0  0  0  0  0  0
    4.2721    1.6005    0.0000 C   0  0  0  0  0  0  0  0  0  0  0  0
    6.8702    1.6005    0.0000 C   0  0  0  0  0  0  0  0  0  0  0  0
    5.5711    2.3505    0.0000 C   0  0  0  0  0  0  0  0  0  0  0  0
    2.9731   -0.6495    0.0000 C   0  0  0  0  0  0  0  0  0  0  0  0
    2.9731   -3.6495    0.0000 N   0  0  0  0  0  0  0  0  0  0  0  0
    4.2721   -4.3995    0.0000 C   0  0  0  0  0  0  0  0  0  0  0  0
    4.2721   -5.8995    0.0000 O   0  0  0  0  0  0  0  0  0  0  0  0
    5.5712   -3.6495    0.0000 C   0  0  0  0  0  0  0  0  0  0  0  0
    5.5712   -2.1495    0.0000 O   0  0  0  0  0  0  0  0  0  0  0  0
    6.8702   -4.3995    0.0000 C   0  0  0  0  0  0  0  0  0  0  0  0
  1 16  2  0  0  0  0
  1 17  2  0  0  0  0
  2  3  2  0  0  0  0
  2 22  2  0  0  0  0
  3  6  1  0  0  0  0
  4  5  2  0  0  0  0
  4  6  1  0  0  0  0
  5  7  1  0  0  0  0
  6  8  2  0  0  0  0
  7  9  2  0  0  0  0
  8  9  1  0  0  0  0
 10 12  2  0  0  0  0
 10 11  1  0  0  0  0
 11 13  2  0  0  0  0
 11 16  1  0  0  0  0
 12 14  1  0  0  0  0
 13 15  1  0  0  0  0
 14 15  2  0  0  0  0
 17 18  1  0  0  0  0
 18 19  2  0  0  0  0
 18 20  1  0  0  0  0
 20 21  2  0  0  0  0
 20 22  1  0  0  0  0
M  END
