191454
 OpenBabel03021519512D

 27 29  0  0  0  0  0  0  0  0999 V2000
    2.0490  -12.0000    0.0000 O   0  0  0  0  0  0  0  0  0  0  0  0
    5.0181   -3.2598    0.0000 C   0  0  0  0  0  0  0  0  0  0  0  0
    3.6085   -3.7728    0.0000 C   0  0  0  0  0  0  0  0  0  0  0  0
    5.2786   -1.7825    0.0000 C   0  0  0  0  0  0  0  0  0  0  0  0
    4.1295   -0.8184    0.0000 C   0  0  0  0  0  0  0  0  0  0  0  0
    2.4595   -2.8086    0.0000 C   0  0  0  0  0  0  0  0  0  0  0  0
    2.7199   -1.3314    0.0000 C   0  0  0  0  0  0  0  0  0  0  0  0
    2.0490   -7.5000    0.0000 C   0  0  0  0  0  0  0  0  0  0  0  0
    0.7500   -8.2500    0.0000 C   0  0  0  0  0  0  0  0  0  0  0  0
    3.3481   -8.2500    0.0000 C   0  0  0  0  0  0  0  0  0  0  0  0
    3.3481   -9.7500    0.0000 C   0  0  0  0  0  0  0  0  0  0  0  0
    0.7500   -9.7500    0.0000 C   0  0  0  0  0  0  0  0  0  0  0  0
    2.0490  -10.5000    0.0000 C   0  0  0  0  0  0  0  0  0  0  0  0
    4.6471  -12.0000    0.0000 C   0  0  0  0  0  0  0  0  0  0  0  0
    5.9462  -12.7500    0.0000 C   0  0  0  0  0  0  0  0  0  0  0  0
    4.6471  -10.5000    0.0000 C   0  0  0  0  0  0  0  0  0  0  0  0
    5.9462   -9.7500    0.0000 C   0  0  0  0  0  0  0  0  0  0  0  0
    7.2452  -12.0000    0.0000 C   0  0  0  0  0  0  0  0  0  0  0  0
    7.2452  -10.5000    0.0000 C   0  0  0  0  0  0  0  0  0  0  0  0
    3.3481  -12.7500    0.0000 C   0  0  0  0  0  0  0  0  0  0  0  0
    3.3481  -14.2500    0.0000 O   0  0  0  0  0  0  0  0  0  0  0  0
    4.6471   -7.5000    0.0000 O   0  0  0  0  0  0  0  0  0  0  0  0
    4.6471   -6.0000    0.0000 C   0  0  0  0  0  0  0  0  0  0  0  0
    5.9462   -5.2500    0.0000 O   0  0  0  0  0  0  0  0  0  0  0  0
    3.3481   -5.2500    0.0000 N   0  0  0  0  0  0  0  0  0  0  0  0
    1.0499   -3.3216    0.0000 O   0  0  0  0  0  0  0  0  0  0  0  0
    0.7895   -4.7989    0.0000 C   0  0  0  0  0  0  0  0  0  0  0  0
  1 13  1  0  0  0  0
  1 20  1  0  0  0  0
  2  4  2  0  0  0  0
  2  3  1  0  0  0  0
  3  6  2  0  0  0  0
  3 25  1  0  0  0  0
  4  5  1  0  0  0  0
  5  7  2  0  0  0  0
  6  7  1  0  0  0  0
  6 26  1  0  0  0  0
  8  9  2  0  0  0  0
  8 10  1  0  0  0  0
  9 12  1  0  0  0  0
 10 11  2  0  0  0  0
 10 22  1  0  0  0  0
 11 13  1  0  0  0  0
 12 13  2  0  0  0  0
 14 16  2  0  0  0  0
 14 15  1  0  0  0  0
 14 20  1  0  0  0  0
 15 18  2  0  0  0  0
 16 17  1  0  0  0  0
 17 19  2  0  0  0  0
 18 19  1  0  0  0  0
 20 21  2  0  0  0  0
 22 23  1  0  0  0  0
 23 24  2  0  0  0  0
 23 25  1  0  0  0  0
 26 27  1  0  0  0  0
M  END
