362093
 OpenBabel03021519512D

 19 21  0  0  0  0  0  0  0  0999 V2000
   -3.9767    2.7147    0.0000 Cl  0  0  0  0  0  0  0  0  0  0  0  0
   -2.7218    1.8930    0.0000 C   0  0  0  0  0  0  0  0  0  0  0  0
   -2.8059    0.3954    0.0000 C   0  0  0  0  0  0  0  0  0  0  0  0
   -1.3827    2.5690    0.0000 C   0  0  0  0  0  0  0  0  0  0  0  0
   -1.2986    4.0666    0.0000 O   0  0  0  0  0  0  0  0  0  0  0  0
   -1.5510   -0.4263    0.0000 O   0  0  0  0  0  0  0  0  0  0  0  0
   -0.2119    0.2496    0.0000 C   0  0  0  0  0  0  0  0  0  0  0  0
   -0.1278    1.7473    0.0000 C   0  0  0  0  0  0  0  0  0  0  0  0
    1.3226    2.1301    0.0000 C   0  0  0  0  0  0  0  0  0  0  0  0
    1.1864   -0.2932    0.0000 N   0  0  0  0  0  0  0  0  0  0  0  0
    2.1348    0.8690    0.0000 N   0  0  0  0  0  0  0  0  0  0  0  0
   -4.1449   -0.2806    0.0000 C   0  0  0  0  0  0  0  0  0  0  0  0
    1.8654    3.5284    0.0000 C   0  0  0  0  0  0  0  0  0  0  0  0
    1.5692   -1.7435    0.0000 C   0  0  0  0  0  0  0  0  0  0  0  0
    3.0167   -2.1372    0.0000 C   0  0  0  0  0  0  0  0  0  0  0  0
    3.3994   -3.5875    0.0000 C   0  0  0  0  0  0  0  0  0  0  0  0
    2.3348   -4.6442    0.0000 C   0  0  0  0  0  0  0  0  0  0  0  0
    0.8874   -4.2505    0.0000 C   0  0  0  0  0  0  0  0  0  0  0  0
    0.5046   -2.8002    0.0000 C   0  0  0  0  0  0  0  0  0  0  0  0
  1  2  1  0  0  0  0
  2  4  1  0  0  0  0
  2  3  2  0  0  0  0
  3  6  1  0  0  0  0
  3 12  1  0  0  0  0
  4  5  2  0  0  0  0
  4  8  1  0  0  0  0
  6  7  1  0  0  0  0
  7  8  2  0  0  0  0
  7 10  1  0  0  0  0
  8  9  1  0  0  0  0
  9 11  2  0  0  0  0
  9 13  1  0  0  0  0
 10 11  1  0  0  0  0
 10 14  1  0  0  0  0
 14 15  2  0  0  0  0
 14 19  1  0  0  0  0
 15 16  1  0  0  0  0
 16 17  2  0  0  0  0
 17 18  1  0  0  0  0
 18 19  2  0  0  0  0
M  END
