295300
 OpenBabel03021519512D

 25 28  0  0  0  0  0  0  0  0999 V2000
    1.7852    0.4644    0.0000 C   0  0  0  0  0  0  0  0  0  0  0  0
    1.7852   -1.0357    0.0000 C   0  0  0  0  0  0  0  0  0  0  0  0
    3.0842    1.2144    0.0000 C   0  0  0  0  0  0  0  0  0  0  0  0
    3.0842   -1.7857    0.0000 C   0  0  0  0  0  0  0  0  0  0  0  0
    4.3833    0.4644    0.0000 C   0  0  0  0  0  0  0  0  0  0  0  0
    4.3833   -1.0356    0.0000 C   0  0  0  0  0  0  0  0  0  0  0  0
    5.2222    2.8620    0.0000 O   0  0  0  0  0  0  0  0  0  0  0  0
    5.5560    1.3996    0.0000 C   0  0  0  0  0  0  0  0  0  0  0  0
    5.5560   -1.9709    0.0000 C   0  0  0  0  0  0  0  0  0  0  0  0
    7.0184    1.0658    0.0000 N   0  0  0  0  0  0  0  0  0  0  0  0
    7.0184   -1.6371    0.0000 C   0  0  0  0  0  0  0  0  0  0  0  0
    7.6693   -0.2856    0.0000 C   0  0  0  0  0  0  0  0  0  0  0  0
    7.8634   -2.8764    0.0000 C   0  0  0  0  0  0  0  0  0  0  0  0
    9.1651   -0.1735    0.0000 N   0  0  0  0  0  0  0  0  0  0  0  0
    9.3592   -2.7643    0.0000 N   0  0  0  0  0  0  0  0  0  0  0  0
   10.0100   -1.4129    0.0000 C   0  0  0  0  0  0  0  0  0  0  0  0
    7.9537    2.2386    0.0000 C   0  0  0  0  0  0  0  0  0  0  0  0
    7.2126   -4.2279    0.0000 N   0  0  0  0  0  0  0  0  0  0  0  0
    8.0576   -5.4672    0.0000 C   0  0  0  0  0  0  0  0  0  0  0  0
    9.5534   -5.3551    0.0000 C   0  0  0  0  0  0  0  0  0  0  0  0
   10.2042   -4.0037    0.0000 C   0  0  0  0  0  0  0  0  0  0  0  0
   11.7000   -3.8916    0.0000 C   0  0  0  0  0  0  0  0  0  0  0  0
   12.5450   -5.1310    0.0000 C   0  0  0  0  0  0  0  0  0  0  0  0
   11.8942   -6.4824    0.0000 C   0  0  0  0  0  0  0  0  0  0  0  0
   10.3984   -6.5945    0.0000 C   0  0  0  0  0  0  0  0  0  0  0  0
  1  3  1  0  0  0  0
  1  2  2  0  0  0  0
  2  4  1  0  0  0  0
  3  5  2  0  0  0  0
  4  6  2  0  0  0  0
  5  8  1  0  0  0  0
  5  6  1  0  0  0  0
  6  9  1  0  0  0  0
  7  8  2  0  0  0  0
  8 10  1  0  0  0  0
  9 11  1  0  0  0  0
 10 12  1  0  0  0  0
 10 17  1  0  0  0  0
 11 12  1  0  0  0  0
 11 13  2  0  0  0  0
 12 14  2  0  0  0  0
 13 15  1  0  0  0  0
 13 18  1  0  0  0  0
 14 16  1  0  0  0  0
 15 16  2  0  0  0  0
 18 19  1  0  0  0  0
 19 20  1  0  0  0  0
 20 21  2  0  0  0  0
 20 25  1  0  0  0  0
 21 22  1  0  0  0  0
 22 23  2  0  0  0  0
 23 24  1  0  0  0  0
 24 25  2  0  0  0  0
M  END
