43512
 OpenBabel03021519512D

 16 18  0  0  1  0  0  0  0  0999 V2000
   -5.2030    7.5118    0.0000 H   0  0  0  0  0  0  0  0  0  0  0  0
   -5.6665    6.0852    0.0000 N   0  0  0  0  0  0  0  0  0  0  0  0
   -3.7764    0.2680    0.0000 N   0  0  0  0  0  0  0  0  0  0  0  0
   -8.3921    6.3717    0.0000 C   0  0  0  0  0  0  0  0  0  0  0  0
   -7.0931    5.6217    0.0000 C   0  0  0  0  0  0  0  0  0  0  0  0
   -9.6912    5.6217    0.0000 C   0  0  0  0  0  0  0  0  0  0  0  0
   -7.0931    4.1217    0.0000 C   0  0  0  0  0  0  0  0  0  0  0  0
   -9.6912    4.1217    0.0000 C   0  0  0  0  0  0  0  0  0  0  0  0
   -8.3921    3.3717    0.0000 C   0  0  0  0  0  0  0  0  0  0  0  0
   -5.6665    3.6581    0.0000 C   0  0  0  0  0  0  0  0  0  0  0  0
   -4.7848    4.8717    0.0000 C   0  0  0  0  0  0  0  0  0  0  0  0
   -5.2030    2.2316    0.0000 C   0  0  3  0  0  0  0  0  0  0  0  0
   -3.7764    1.7680    0.0000 C   0  0  0  0  0  0  0  0  0  0  0  0
   -6.0846    1.0180    0.0000 C   0  0  0  0  0  0  0  0  0  0  0  0
   -5.2030   -0.1955    0.0000 C   0  0  0  0  0  0  0  0  0  0  0  0
   -2.5628   -0.6136    0.0000 C   0  0  0  0  0  0  0  0  0  0  0  0
  1  2  1  0  0  0  0
  2  5  1  0  0  0  0
  2 11  1  0  0  0  0
  3 13  1  0  0  0  0
  3 15  1  0  0  0  0
  3 16  1  0  0  0  0
  4  6  2  0  0  0  0
  4  5  1  0  0  0  0
  5  7  2  0  0  0  0
  6  8  1  0  0  0  0
  7  9  1  0  0  0  0
  7 10  1  0  0  0  0
  8  9  2  0  0  0  0
 10 11  2  0  0  0  0
 10 12  1  0  0  0  0
 12 13  1  0  0  0  0
 12 14  1  0  0  0  0
 14 15  1  0  0  0  0
M  END
