79253
 OpenBabel03021519512D

 18 19  0  0  0  0  0  0  0  0999 V2000
    9.4683   -0.1005    0.0000 C   0  0  0  0  0  0  0  0  0  0  0  0
   10.7673   -0.8505    0.0000 C   0  0  0  0  0  0  0  0  0  0  0  0
    8.1692   -0.8505    0.0000 C   0  0  0  0  0  0  0  0  0  0  0  0
   10.7673   -2.3505    0.0000 C   0  0  0  0  0  0  0  0  0  0  0  0
    8.1692   -2.3505    0.0000 C   0  0  0  0  0  0  0  0  0  0  0  0
    9.4683   -3.1005    0.0000 C   0  0  0  0  0  0  0  0  0  0  0  0
    5.5712    2.1495    0.0000 C   0  0  0  0  0  0  0  0  0  0  0  0
    4.2721    1.3995    0.0000 C   0  0  0  0  0  0  0  0  0  0  0  0
    5.5711    3.6495    0.0000 C   0  0  0  0  0  0  0  0  0  0  0  0
    2.9731    2.1495    0.0000 C   0  0  0  0  0  0  0  0  0  0  0  0
    4.2721    4.3995    0.0000 C   0  0  0  0  0  0  0  0  0  0  0  0
    2.9731    3.6495    0.0000 C   0  0  0  0  0  0  0  0  0  0  0  0
    4.2721    5.8995    0.0000 O   0  0  0  0  0  0  0  0  0  0  0  0
    4.2721   -0.1005    0.0000 N   0  0  0  0  0  0  0  0  0  0  0  0
    5.5712   -0.8505    0.0000 C   0  0  0  0  0  0  0  0  0  0  0  0
    5.5712   -2.3505    0.0000 O   0  0  0  0  0  0  0  0  0  0  0  0
    6.8702   -0.1005    0.0000 O   0  0  0  0  0  0  0  0  0  0  0  0
   12.0664   -3.1005    0.0000 N   0  0  0  0  0  0  0  0  0  0  0  0
  1  2  2  0  0  0  0
  1  3  1  0  0  0  0
  2  4  1  0  0  0  0
  3  5  2  0  0  0  0
  3 17  1  0  0  0  0
  4  6  2  0  0  0  0
  4 18  1  0  0  0  0
  5  6  1  0  0  0  0
  7  9  2  0  0  0  0
  7  8  1  0  0  0  0
  8 10  2  0  0  0  0
  8 14  1  0  0  0  0
  9 11  1  0  0  0  0
 10 12  1  0  0  0  0
 11 12  2  0  0  0  0
 11 13  1  0  0  0  0
 14 15  1  0  0  0  0
 15 16  2  0  0  0  0
 15 17  1  0  0  0  0
M  END
