89201
 OpenBabel03021519512D

 32 35  0  0  1  0  0  0  0  0999 V2000
   -8.1962  -10.2236    0.0000 Cl  0  0  0  0  0  0  0  0  0  0  0  0
   -9.2765  -15.3062    0.0000 Cl  0  0  0  0  0  0  0  0  0  0  0  0
   -7.2691  -13.0768    0.0000 N   0  0  0  0  0  0  0  0  0  0  0  0
   -4.7982  -12.2739    0.0000 O   0  0  0  0  0  0  0  0  0  0  0  0
   -0.3199   -9.2417    0.0000 H   0  0  0  0  0  0  0  0  0  0  0  0
    0.2203   -6.7004    0.0000 H   0  0  0  0  0  0  0  0  0  0  0  0
    2.2976   -8.3825    0.0000 H   0  0  0  0  0  0  0  0  0  0  0  0
    2.4375   -4.7040    0.0000 C   0  0  2  0  0  0  0  0  0  0  0  0
    1.2240   -5.5856    0.0000 C   0  0  1  0  0  0  0  0  0  0  0  0
    3.6510   -5.5856    0.0000 C   0  0  0  0  0  0  0  0  0  0  0  0
   -0.2432   -5.2738    0.0000 C   0  0  0  0  0  0  0  0  0  0  0  0
   -1.2469   -6.3885    0.0000 C   0  0  0  0  0  0  0  0  0  0  0  0
    3.1875   -7.0122    0.0000 C   0  0  0  0  0  0  0  0  0  0  0  0
    1.6875   -7.0122    0.0000 C   0  0  1  0  0  0  0  0  0  0  0  0
   -0.7834   -7.8151    0.0000 C   0  0  1  0  0  0  0  0  0  0  0  0
    0.6838   -8.1269    0.0000 C   0  0  1  0  0  0  0  0  0  0  0  0
   -1.7871   -8.9298    0.0000 C   0  0  0  0  0  0  0  0  0  0  0  0
   -3.2543   -8.6179    0.0000 C   0  0  0  0  0  0  0  0  0  0  0  0
   -4.2580   -9.7326    0.0000 C   0  0  0  0  0  0  0  0  0  0  0  0
    1.1473   -9.5535    0.0000 C   0  0  0  0  0  0  0  0  0  0  0  0
   -1.3236  -10.3564    0.0000 C   0  0  0  0  0  0  0  0  0  0  0  0
   -3.7945  -11.1592    0.0000 C   0  0  0  0  0  0  0  0  0  0  0  0
    0.1436  -10.6682    0.0000 C   0  0  0  0  0  0  0  0  0  0  0  0
   -2.3273  -11.4711    0.0000 C   0  0  0  0  0  0  0  0  0  0  0  0
   -9.1999  -11.3383    0.0000 C   0  0  0  0  0  0  0  0  0  0  0  0
   -8.7363  -12.7649    0.0000 C   0  0  0  0  0  0  0  0  0  0  0  0
   -7.8093  -15.6181    0.0000 C   0  0  0  0  0  0  0  0  0  0  0  0
   -6.8056  -14.5034    0.0000 C   0  0  0  0  0  0  0  0  0  0  0  0
   -6.2654  -11.9621    0.0000 C   0  0  0  0  0  0  0  0  0  0  0  0
   -6.7290  -10.5355    0.0000 O   0  0  0  0  0  0  0  0  0  0  0  0
    0.9121   -4.1184    0.0000 C   0  0  0  0  0  0  0  0  0  0  0  0
    2.4375   -3.2040    0.0000 O   0  0  0  0  0  0  0  0  0  0  0  0
  1 25  1  0  0  0  0
  2 27  1  0  0  0  0
  3 26  1  0  0  0  0
  3 28  1  0  0  0  0
  3 29  1  0  0  0  0
  4 22  1  0  0  0  0
  4 29  1  0  0  0  0
  8  9  1  0  0  0  0
  8 10  1  0  0  0  0
  8 32  1  1  0  0  0
  9 11  1  0  0  0  0
  9 14  1  0  0  0  0
  9 31  1  1  0  0  0
 10 13  1  0  0  0  0
 11 12  1  0  0  0  0
 12 15  1  0  0  0  0
 13 14  1  0  0  0  0
 14  7  1  6  0  0  0
 14 16  1  0  0  0  0
 15  5  1  6  0  0  0
 15 16  1  0  0  0  0
 15 17  1  0  0  0  0
 16  6  1  1  0  0  0
 16 20  1  0  0  0  0
 17 21  2  0  0  0  0
 17 18  1  0  0  0  0
 18 19  2  0  0  0  0
 19 22  1  0  0  0  0
 20 23  1  0  0  0  0
 21 24  1  0  0  0  0
 21 23  1  0  0  0  0
 22 24  2  0  0  0  0
 25 26  1  0  0  0  0
 27 28  1  0  0  0  0
 29 30  2  0  0  0  0
M  END
