513815
 OpenBabel03021519512D

 12 13  0  0  0  0  0  0  0  0999 V2000
   -6.5218   -0.7500    0.0000 C   0  0  0  0  0  0  0  0  0  0  0  0
   -8.0218   -0.7500    0.0000 C   0  0  0  0  0  0  0  0  0  0  0  0
   -1.9635   -2.7991    0.0000 C   0  0  0  0  0  0  0  0  0  0  0  0
   -4.2718   -2.0491    0.0000 C   0  0  0  0  0  0  0  0  0  0  0  0
   -5.7718   -2.0491    0.0000 C   0  0  0  0  0  0  0  0  0  0  0  0
   -8.7718   -2.0490    0.0000 C   0  0  0  0  0  0  0  0  0  0  0  0
   -6.5218   -3.3481    0.0000 C   0  0  0  0  0  0  0  0  0  0  0  0
   -8.0218   -3.3481    0.0000 N   0  0  0  0  0  0  0  0  0  0  0  0
   -3.3901   -0.8355    0.0000 N   0  0  0  0  0  0  0  0  0  0  0  0
   -3.3901   -3.2626    0.0000 S   0  0  0  0  0  0  0  0  0  0  0  0
   -1.9635   -1.2991    0.0000 N   0  0  0  0  0  0  0  0  0  0  0  0
   -0.7500   -3.6807    0.0000 N   0  0  0  0  0  0  0  0  0  0  0  0
  1  2  1  0  0  0  0
  1  5  2  0  0  0  0
  2  6  2  0  0  0  0
  3 11  2  0  0  0  0
  3 10  1  0  0  0  0
  3 12  1  0  0  0  0
  4  9  2  0  0  0  0
  4  5  1  0  0  0  0
  4 10  1  0  0  0  0
  5  7  1  0  0  0  0
  6  8  1  0  0  0  0
  7  8  2  0  0  0  0
  9 11  1  0  0  0  0
M  END
