124818
 OpenBabel03021519512D

 20 22  0  0  0  0  0  0  0  0999 V2000
  -11.2499   -4.8901    0.0000 Br  0  0  0  0  0  0  0  0  0  0  0  0
   -5.9262   -2.1766    0.0000 N   0  0  0  0  0  0  0  0  0  0  0  0
   -5.4627   -0.7500    0.0000 H   0  0  0  0  0  0  0  0  0  0  0  0
   -3.9955   -6.3421    0.0000 N   0  0  0  0  0  0  0  0  0  0  0  0
   -5.9136   -8.9822    0.0000 O   0  0  0  0  0  0  0  0  0  0  0  0
   -3.5319   -7.7687    0.0000 N   0  0  0  0  0  0  0  0  0  0  0  0
   -0.8918   -7.3505    0.0000 S   0  0  0  0  0  0  0  0  0  0  0  0
   -2.1054   -9.7322    0.0000 S   0  0  0  0  0  0  0  0  0  0  0  0
   -8.6519   -1.8901    0.0000 C   0  0  0  0  0  0  0  0  0  0  0  0
   -9.9509   -2.6401    0.0000 C   0  0  0  0  0  0  0  0  0  0  0  0
   -7.3528   -2.6401    0.0000 C   0  0  0  0  0  0  0  0  0  0  0  0
   -7.3528   -4.1401    0.0000 C   0  0  0  0  0  0  0  0  0  0  0  0
   -9.9509   -4.1401    0.0000 C   0  0  0  0  0  0  0  0  0  0  0  0
   -5.9262   -4.6036    0.0000 C   0  0  0  0  0  0  0  0  0  0  0  0
   -5.0446   -3.3901    0.0000 C   0  0  0  0  0  0  0  0  0  0  0  0
   -8.6519   -4.8901    0.0000 C   0  0  0  0  0  0  0  0  0  0  0  0
   -2.1054   -8.2322    0.0000 C   0  0  0  0  0  0  0  0  0  0  0  0
   -3.5319  -10.1957    0.0000 C   0  0  0  0  0  0  0  0  0  0  0  0
   -4.4136   -8.9822    0.0000 C   0  0  0  0  0  0  0  0  0  0  0  0
   -5.4627   -6.0302    0.0000 C   0  0  0  0  0  0  0  0  0  0  0  0
  1 13  1  0  0  0  0
  2 11  1  0  0  0  0
  2 15  1  0  0  0  0
  2  3  1  0  0  0  0
  4  6  1  0  0  0  0
  4 20  2  0  0  0  0
  5 19  2  0  0  0  0
  6 17  1  0  0  0  0
  6 19  1  0  0  0  0
  7 17  2  0  0  0  0
  8 17  1  0  0  0  0
  8 18  1  0  0  0  0
  9 10  2  0  0  0  0
  9 11  1  0  0  0  0
 10 13  1  0  0  0  0
 11 12  2  0  0  0  0
 12 14  1  0  0  0  0
 12 16  1  0  0  0  0
 13 16  2  0  0  0  0
 14 15  2  0  0  0  0
 14 20  1  0  0  0  0
 18 19  1  0  0  0  0
M  END
