54709
 OpenBabel03021519512D

 27 31  0  0  1  0  0  0  0  0999 V2000
   -3.4473   -3.5575    0.0000 O   0  0  0  0  0  0  0  0  0  0  0  0
   -0.7791   -7.4966    0.0000 N   0  0  0  0  0  0  0  0  0  0  0  0
   -5.3374   -5.4476    0.0000 C   0  0  3  0  0  0  0  0  0  0  0  0
   -3.9108   -4.9841    0.0000 C   0  0  0  0  0  0  0  0  0  0  0  0
   -3.0291   -6.1976    0.0000 C   0  0  0  0  0  0  0  0  0  0  0  0
   -6.6364   -4.6976    0.0000 C   0  0  0  0  0  0  0  0  0  0  0  0
   -7.9355   -5.4476    0.0000 C   0  0  0  0  0  0  0  0  0  0  0  0
   -3.9108   -7.4111    0.0000 C   0  0  0  0  0  0  0  0  0  0  0  0
   -5.3374   -6.9476    0.0000 C   0  0  3  0  0  0  0  0  0  0  0  0
   -7.9355   -6.9476    0.0000 C   0  0  3  0  0  0  0  0  0  0  0  0
   -6.6364   -7.6976    0.0000 C   0  0  3  0  0  0  0  0  0  0  0  0
   -9.2345   -7.6976    0.0000 C   0  0  3  0  0  0  0  0  0  0  0  0
  -10.5336   -6.9476    0.0000 C   0  0  0  0  0  0  0  0  0  0  0  0
  -11.8326   -7.6976    0.0000 C   0  0  0  0  0  0  0  0  0  0  0  0
   -6.6364   -9.1976    0.0000 C   0  0  0  0  0  0  0  0  0  0  0  0
   -9.2345   -9.1976    0.0000 C   0  0  0  0  0  0  0  0  0  0  0  0
  -11.8326   -9.1976    0.0000 C   0  0  3  0  0  0  0  0  0  0  0  0
   -7.9355   -9.9476    0.0000 C   0  0  0  0  0  0  0  0  0  0  0  0
  -10.5336   -9.9476    0.0000 C   0  0  0  0  0  0  0  0  0  0  0  0
    0.7127   -7.6534    0.0000 C   0  0  0  0  0  0  0  0  0  0  0  0
    1.0245   -9.1206    0.0000 C   0  0  0  0  0  0  0  0  0  0  0  0
   -0.2745   -9.8706    0.0000 C   0  0  0  0  0  0  0  0  0  0  0  0
   -1.3892   -8.8669    0.0000 C   0  0  0  0  0  0  0  0  0  0  0  0
  -13.1316   -9.9476    0.0000 O   0  0  0  0  0  0  0  0  0  0  0  0
   -9.2345   -6.1976    0.0000 C   0  0  0  0  0  0  0  0  0  0  0  0
   -5.1806   -3.9558    0.0000 C   0  0  0  0  0  0  0  0  0  0  0  0
   -1.5291   -6.1976    0.0000 C   0  0  0  0  0  0  0  0  0  0  0  0
  1  4  2  0  0  0  0
  2 20  1  0  0  0  0
  2 23  1  0  0  0  0
  2 27  1  0  0  0  0
  3  4  1  0  0  0  0
  3  6  1  0  0  0  0
  3  9  1  0  0  0  0
  3 26  1  0  0  0  0
  4  5  1  0  0  0  0
  5  8  1  0  0  0  0
  5 27  2  0  0  0  0
  6  7  1  0  0  0  0
  7 10  1  0  0  0  0
  8  9  1  0  0  0  0
  9 11  1  0  0  0  0
 10 12  1  0  0  0  0
 10 11  1  0  0  0  0
 11 15  1  0  0  0  0
 12 13  1  0  0  0  0
 12 16  1  0  0  0  0
 12 25  1  0  0  0  0
 13 14  1  0  0  0  0
 14 17  1  0  0  0  0
 15 18  1  0  0  0  0
 16 18  2  0  0  0  0
 16 19  1  0  0  0  0
 17 19  1  0  0  0  0
 17 24  1  0  0  0  0
 20 21  1  0  0  0  0
 21 22  1  0  0  0  0
 22 23  1  0  0  0  0
M  END
