32838
 OpenBabel03021519512D

 17 19  0  0  1  0  0  0  0  0999 V2000
   -2.4140   -5.7856    0.0000 H   0  0  0  0  0  0  0  0  0  0  0  0
   -1.4056   -2.6819    0.0000 O   0  0  0  0  0  0  0  0  0  0  0  0
   -0.9875   -5.3221    0.0000 N   0  0  0  0  0  0  0  0  0  0  0  0
    0.9761   -3.8955    0.0000 N   0  0  0  0  0  0  0  0  0  0  0  0
    1.8577   -2.6819    0.0000 H   0  0  0  0  0  0  0  0  0  0  0  0
    2.8662   -5.7856    0.0000 O   0  0  0  0  0  0  0  0  0  0  0  0
   -0.5239   -3.8955    0.0000 C   0  0  0  0  0  0  0  0  0  0  0  0
    1.4396   -5.3221    0.0000 C   0  0  0  0  0  0  0  0  0  0  0  0
    0.2261   -6.2037    0.0000 C   0  0  3  0  0  0  0  0  0  0  0  0
    1.4396   -7.0854    0.0000 C   0  0  0  0  0  0  0  0  0  0  0  0
   -0.9875   -7.0854    0.0000 C   0  0  0  0  0  0  0  0  0  0  0  0
   -2.4547   -6.7735    0.0000 C   0  0  0  0  0  0  0  0  0  0  0  0
   -3.4584   -7.8883    0.0000 C   0  0  0  0  0  0  0  0  0  0  0  0
    0.9761   -8.5120    0.0000 C   0  0  0  0  0  0  0  0  0  0  0  0
   -0.5239   -8.5120    0.0000 C   0  0  0  0  0  0  0  0  0  0  0  0
   -2.9949   -9.3148    0.0000 C   0  0  0  0  0  0  0  0  0  0  0  0
   -1.5276   -9.6267    0.0000 C   0  0  0  0  0  0  0  0  0  0  0  0
  1  3  1  0  0  0  0
  2  7  2  0  0  0  0
  3  7  1  0  0  0  0
  3  9  1  0  0  0  0
  4  7  1  0  0  0  0
  4  8  1  0  0  0  0
  4  5  1  0  0  0  0
  6  8  2  0  0  0  0
  8  9  1  0  0  0  0
  9 10  1  0  0  0  0
  9 11  1  0  0  0  0
 10 14  1  0  0  0  0
 11 15  2  0  0  0  0
 11 12  1  0  0  0  0
 12 13  2  0  0  0  0
 13 16  1  0  0  0  0
 14 15  1  0  0  0  0
 15 17  1  0  0  0  0
 16 17  2  0  0  0  0
M  END
