3076
 OpenBabel03021519512D

 21 23  0  0  1  0  0  0  0  0999 V2000
    2.0490   -5.2500    0.0000 N   0  0  0  0  0  0  0  0  0  0  0  0
    3.3481   -3.0000    0.0000 N   0  0  0  0  0  0  0  0  0  0  0  0
    4.6471   -5.2500    0.0000 N   0  0  0  0  0  0  0  0  0  0  0  0
    7.2452   -5.2500    0.0000 H   0  0  0  0  0  0  0  0  0  0  0  0
    5.9461   -1.5000    0.0000 C   0  0  0  0  0  0  0  0  0  0  0  0
    7.2452   -0.7500    0.0000 C   0  0  0  0  0  0  0  0  0  0  0  0
    5.9462   -3.0000    0.0000 C   0  0  0  0  0  0  0  0  0  0  0  0
    8.5442   -1.5000    0.0000 C   0  0  0  0  0  0  0  0  0  0  0  0
    7.2452   -3.7500    0.0000 C   0  0  0  0  0  0  0  0  0  0  0  0
    4.6471   -3.7500    0.0000 C   0  0  3  0  0  0  0  0  0  0  0  0
    8.5442   -3.0000    0.0000 C   0  0  0  0  0  0  0  0  0  0  0  0
    2.0490   -3.7500    0.0000 C   0  0  0  0  0  0  0  0  0  0  0  0
    3.3481   -6.0000    0.0000 C   0  0  0  0  0  0  0  0  0  0  0  0
    4.6471   -8.2500    0.0000 C   0  0  0  0  0  0  0  0  0  0  0  0
    5.9462   -7.5000    0.0000 C   0  0  0  0  0  0  0  0  0  0  0  0
    4.6471   -9.7500    0.0000 C   0  0  0  0  0  0  0  0  0  0  0  0
    7.2452   -8.2500    0.0000 C   0  0  0  0  0  0  0  0  0  0  0  0
    5.9462  -10.5000    0.0000 C   0  0  0  0  0  0  0  0  0  0  0  0
    7.2452   -9.7500    0.0000 C   0  0  0  0  0  0  0  0  0  0  0  0
    0.7500   -3.0000    0.0000 N   0  0  0  0  0  0  0  0  0  0  0  0
    3.3481   -7.5000    0.0000 N   0  0  0  0  0  0  0  0  0  0  0  0
  1 13  2  0  0  0  0
  1 12  1  0  0  0  0
  2 12  2  0  0  0  0
  2 10  1  0  0  0  0
  3 10  1  0  0  0  0
  3 13  1  0  0  0  0
  4  9  1  0  0  0  0
  5  6  2  0  0  0  0
  5  7  1  0  0  0  0
  6  8  1  0  0  0  0
  7  9  2  0  0  0  0
  7 10  1  0  0  0  0
  8 11  2  0  0  0  0
  9 11  1  0  0  0  0
 12 20  1  0  0  0  0
 13 21  1  0  0  0  0
 14 15  2  0  0  0  0
 14 16  1  0  0  0  0
 14 21  1  0  0  0  0
 15 17  1  0  0  0  0
 16 18  2  0  0  0  0
 17 19  2  0  0  0  0
 18 19  1  0  0  0  0
M  END
