51351
 OpenBabel03021519512D

 21 22  0  0  0  0  0  0  0  0999 V2000
   -9.8433   -3.0000    0.0000 C   0  0  0  0  0  0  0  0  0  0  0  0
  -11.1423   -3.7500    0.0000 C   0  0  0  0  0  0  0  0  0  0  0  0
   -8.5442   -3.7500    0.0000 C   0  0  0  0  0  0  0  0  0  0  0  0
   -8.5442   -5.2500    0.0000 C   0  0  0  0  0  0  0  0  0  0  0  0
  -11.1423   -5.2500    0.0000 C   0  0  0  0  0  0  0  0  0  0  0  0
   -9.8433   -6.0000    0.0000 C   0  0  0  0  0  0  0  0  0  0  0  0
   -2.0490   -3.0000    0.0000 C   0  0  0  0  0  0  0  0  0  0  0  0
   -3.3481   -3.7500    0.0000 C   0  0  0  0  0  0  0  0  0  0  0  0
   -0.7500   -3.7500    0.0000 C   0  0  0  0  0  0  0  0  0  0  0  0
   -0.7500   -5.2500    0.0000 C   0  0  0  0  0  0  0  0  0  0  0  0
   -3.3481   -5.2500    0.0000 C   0  0  0  0  0  0  0  0  0  0  0  0
   -2.0490   -6.0000    0.0000 C   0  0  0  0  0  0  0  0  0  0  0  0
  -12.4413   -6.0000    0.0000 O   0  0  0  0  0  0  0  0  0  0  0  0
  -13.7404   -5.2500    0.0000 C   0  0  0  0  0  0  0  0  0  0  0  0
   -9.8433   -1.5000    0.0000 O   0  0  0  0  0  0  0  0  0  0  0  0
  -11.1423   -0.7500    0.0000 C   0  0  0  0  0  0  0  0  0  0  0  0
   -7.2452   -6.0000    0.0000 O   0  0  0  0  0  0  0  0  0  0  0  0
   -7.2452   -3.0000    0.0000 C   0  0  0  0  0  0  0  0  0  0  0  0
   -7.2452   -1.5000    0.0000 O   0  0  0  0  0  0  0  0  0  0  0  0
   -5.9461   -3.7500    0.0000 C   0  0  0  0  0  0  0  0  0  0  0  0
   -4.6471   -3.0000    0.0000 C   0  0  0  0  0  0  0  0  0  0  0  0
  1  3  2  0  0  0  0
  1  2  1  0  0  0  0
  1 15  1  0  0  0  0
  2  5  2  0  0  0  0
  3  4  1  0  0  0  0
  3 18  1  0  0  0  0
  4  6  2  0  0  0  0
  4 17  1  0  0  0  0
  5  6  1  0  0  0  0
  5 13  1  0  0  0  0
  7  9  2  0  0  0  0
  7  8  1  0  0  0  0
  8 11  2  0  0  0  0
  8 21  1  0  0  0  0
  9 10  1  0  0  0  0
 10 12  2  0  0  0  0
 11 12  1  0  0  0  0
 13 14  1  0  0  0  0
 15 16  1  0  0  0  0
 18 19  2  0  0  0  0
 18 20  1  0  0  0  0
 20 21  2  0  0  0  0
M  END
