177989
 OpenBabel03021519512D

 20 20  0  0  0  0  0  0  0  0999 V2000
    2.2441    4.4795    0.0000 O   0  0  0  0  0  0  0  0  0  0  0  0
    5.0972    5.4066    0.0000 H   0  0  0  0  0  0  0  0  0  0  0  0
    3.3588    3.4759    0.0000 C   0  0  0  0  0  0  0  0  0  0  0  0
    4.7854    3.9394    0.0000 C   0  0  0  0  0  0  0  0  0  0  0  0
    3.0469    2.0086    0.0000 O   0  0  0  0  0  0  0  0  0  0  0  0
    5.9001    2.9357    0.0000 C   0  0  0  0  0  0  0  0  0  0  0  0
    5.5882    1.4685    0.0000 H   0  0  0  0  0  0  0  0  0  0  0  0
    7.7902    4.8258    0.0000 C   0  0  0  0  0  0  0  0  0  0  0  0
    7.3267    3.3992    0.0000 C   0  0  0  0  0  0  0  0  0  0  0  0
    8.5402    1.0176    0.0000 H   0  0  0  0  0  0  0  0  0  0  0  0
    8.5402    2.5176    0.0000 N   0  0  0  0  0  0  0  0  0  0  0  0
    9.7537    3.3992    0.0000 C   0  0  0  0  0  0  0  0  0  0  0  0
    9.2902    4.8258    0.0000 C   0  0  0  0  0  0  0  0  0  0  0  0
   11.1803    2.9357    0.0000 C   0  0  0  0  0  0  0  0  0  0  0  0
   12.2950    3.9394    0.0000 O   0  0  0  0  0  0  0  0  0  0  0  0
   11.4922    1.4685    0.0000 O   0  0  0  0  0  0  0  0  0  0  0  0
    4.1617    1.0049    0.0000 C   0  0  0  0  0  0  0  0  0  0  0  0
    3.8498   -0.4623    0.0000 C   0  0  0  0  0  0  0  0  0  0  0  0
   12.9188    1.0050    0.0000 C   0  0  0  0  0  0  0  0  0  0  0  0
   14.0335    2.0087    0.0000 C   0  0  0  0  0  0  0  0  0  0  0  0
  1  3  2  0  0  0  0
  2  4  1  0  0  0  0
  3  4  1  0  0  0  0
  3  5  1  0  0  0  0
  4  6  2  0  0  0  0
  5 17  1  0  0  0  0
  6  9  1  0  0  0  0
  6  7  1  0  0  0  0
  8 13  1  0  0  0  0
  8  9  2  0  0  0  0
  9 11  1  0  0  0  0
 10 11  1  0  0  0  0
 11 12  1  0  0  0  0
 12 13  2  0  0  0  0
 12 14  1  0  0  0  0
 14 15  2  0  0  0  0
 14 16  1  0  0  0  0
 16 19  1  0  0  0  0
 17 18  1  0  0  0  0
 19 20  1  0  0  0  0
M  END
