12865
 OpenBabel03021519512D

 25 27  0  0  1  0  0  0  0  0999 V2000
   -9.1772    2.8727    0.0000 C   0  0  0  0  0  0  0  0  0  0  0  0
  -10.4763    2.1227    0.0000 C   0  0  0  0  0  0  0  0  0  0  0  0
  -10.4763    0.6227    0.0000 C   0  0  0  0  0  0  0  0  0  0  0  0
   -9.1772   -0.1273    0.0000 C   0  0  0  0  0  0  0  0  0  0  0  0
   -7.8782    0.6227    0.0000 C   0  0  0  0  0  0  0  0  0  0  0  0
   -7.8782    2.1227    0.0000 C   0  0  0  0  0  0  0  0  0  0  0  0
   -6.5792   -0.1273    0.0000 C   0  0  0  0  0  0  0  0  0  0  0  0
   -5.2801    0.6227    0.0000 C   0  0  0  0  0  0  0  0  0  0  0  0
   -5.2801    2.1227    0.0000 C   0  0  0  0  0  0  0  0  0  0  0  0
   -6.5792    2.8727    0.0000 N   0  0  0  0  0  0  0  0  0  0  0  0
  -11.7753   -0.1273    0.0000 O   0  0  0  0  0  0  0  0  0  0  0  0
  -13.0744    0.6227    0.0000 C   0  0  0  0  0  0  0  0  0  0  0  0
   -6.5792   -1.6273    0.0000 C   0  0  3  0  0  0  0  0  0  0  0  0
   -6.1079   -3.1690    0.0000 C   0  0  3  0  0  0  0  0  0  0  0  0
   -4.0908   -2.5330    0.0000 C   0  0  3  0  0  0  0  0  0  0  0  0
   -5.1042   -3.6389    0.0000 N   0  0  3  0  0  0  0  0  0  0  0  0
   -4.1562   -1.0344    0.0000 C   0  0  0  0  0  0  0  0  0  0  0  0
   -5.1696   -2.1403    0.0000 C   0  0  3  0  0  0  0  0  0  0  0  0
   -7.2138   -4.1824    0.0000 C   0  0  0  0  0  0  0  0  0  0  0  0
   -7.5851   -2.9085    0.0000 C   0  0  0  0  0  0  0  0  0  0  0  0
   -8.5493   -4.0576    0.0000 C   0  0  0  0  0  0  0  0  0  0  0  0
   -7.9887   -2.1403    0.0000 O   0  0  0  0  0  0  0  0  0  0  0  0
   -9.5075   -3.4904    0.0000 Br  0  0  0  0  0  0  0  0  0  0  0  0
   -4.2982   -4.9040    0.0000 C   0  0  0  0  0  0  0  0  0  0  0  0
   -3.2849   -3.7981    0.0000 C   0  0  0  0  0  0  0  0  0  0  0  0
  1  2  2  0  0  0  0
  1  6  1  0  0  0  0
  2  3  1  0  0  0  0
  3  4  2  0  0  0  0
  3 11  1  0  0  0  0
  4  5  1  0  0  0  0
  5  6  2  0  0  0  0
  5  7  1  0  0  0  0
  6 10  1  0  0  0  0
  7  8  2  0  0  0  0
  7 13  1  0  0  0  0
  8  9  1  0  0  0  0
  9 10  2  0  0  0  0
 11 12  1  0  0  0  0
 13 22  1  0  0  0  0
 13 18  1  0  0  0  0
 14 15  1  0  0  0  0
 14 19  1  0  0  0  0
 14 20  1  0  0  0  0
 15 17  1  0  0  0  0
 15 25  1  0  0  0  0
 16 18  1  0  0  0  0
 16 19  1  0  0  0  0
 16 24  1  0  0  0  0
 17 18  1  0  0  0  0
 20 21  2  0  0  0  0
 24 25  1  0  0  0  0
M  END
