379639
 OpenBabel03021519512D

 17 19  0  0  0  0  0  0  0  0999 V2000
    1.6740    1.3995    0.0000 C   0  0  0  0  0  0  0  0  0  0  0  0
    1.6740   -0.1005    0.0000 C   0  0  0  0  0  0  0  0  0  0  0  0
    2.9731    2.1495    0.0000 C   0  0  0  0  0  0  0  0  0  0  0  0
    2.9731   -0.8505    0.0000 C   0  0  0  0  0  0  0  0  0  0  0  0
    2.9731    3.6495    0.0000 Cl  0  0  0  0  0  0  0  0  0  0  0  0
    4.2721    1.3995    0.0000 C   0  0  0  0  0  0  0  0  0  0  0  0
    4.2721   -0.1005    0.0000 C   0  0  0  0  0  0  0  0  0  0  0  0
    5.5712   -0.8505    0.0000 N   0  0  0  0  0  0  0  0  0  0  0  0
    5.5712    2.1495    0.0000 C   0  0  0  0  0  0  0  0  0  0  0  0
    6.8702    1.3995    0.0000 N   0  0  0  0  0  0  0  0  0  0  0  0
    6.8702   -0.1005    0.0000 C   0  0  0  0  0  0  0  0  0  0  0  0
    5.8830   -2.3177    0.0000 N   0  0  0  0  0  0  0  0  0  0  0  0
    7.3748   -2.4745    0.0000 N   0  0  0  0  0  0  0  0  0  0  0  0
    7.9849   -1.1042    0.0000 C   0  0  0  0  0  0  0  0  0  0  0  0
    5.5712    3.6495    0.0000 N   0  0  0  0  0  0  0  0  0  0  0  0
    9.4521   -0.7923    0.0000 C   0  0  0  0  0  0  0  0  0  0  0  0
   10.9194   -0.4804    0.0000 N   0  0  0  0  0  0  0  0  0  0  0  0
  1  3  1  0  0  0  0
  1  2  2  0  0  0  0
  2  4  1  0  0  0  0
  3  5  1  0  0  0  0
  3  6  2  0  0  0  0
  4  7  2  0  0  0  0
  6  9  1  0  0  0  0
  6  7  1  0  0  0  0
  7  8  1  0  0  0  0
  8 11  1  0  0  0  0
  8 12  1  0  0  0  0
  9 10  2  0  0  0  0
  9 15  1  0  0  0  0
 10 11  1  0  0  0  0
 11 14  2  0  0  0  0
 12 13  2  0  0  0  0
 13 14  1  0  0  0  0
 14 16  1  0  0  0  0
 16 17  3  0  0  0  0
M  END
