238929
 OpenBabel03021519512D

 16 17  0  0  0  0  0  0  0  0999 V2000
    0.7500    3.3481    0.0000 Cl  0  0  0  0  0  0  0  0  0  0  0  0
    2.2500    3.3481    0.0000 C   0  0  0  0  0  0  0  0  0  0  0  0
    3.0000    4.6471    0.0000 C   0  0  0  0  0  0  0  0  0  0  0  0
    3.0000    2.0490    0.0000 C   0  0  0  0  0  0  0  0  0  0  0  0
    4.5000    4.6471    0.0000 C   0  0  0  0  0  0  0  0  0  0  0  0
    4.5000    2.0490    0.0000 C   0  0  0  0  0  0  0  0  0  0  0  0
    5.2500    3.3481    0.0000 C   0  0  0  0  0  0  0  0  0  0  0  0
    5.2500    0.7500    0.0000 Cl  0  0  0  0  0  0  0  0  0  0  0  0
    7.5000    4.6471    0.0000 O   0  0  0  0  0  0  0  0  0  0  0  0
    6.7500    3.3481    0.0000 C   0  0  0  0  0  0  0  0  0  0  0  0
    9.0000    2.0490    0.0000 C   0  0  0  0  0  0  0  0  0  0  0  0
    9.8817    3.2626    0.0000 N   0  0  0  0  0  0  0  0  0  0  0  0
   11.3083    2.7991    0.0000 S   0  0  0  0  0  0  0  0  0  0  0  0
    7.5000    2.0490    0.0000 N   0  0  0  0  0  0  0  0  0  0  0  0
    9.8817    0.8355    0.0000 C   0  0  0  0  0  0  0  0  0  0  0  0
   11.3083    1.2991    0.0000 C   0  0  0  0  0  0  0  0  0  0  0  0
  1  2  1  0  0  0  0
  2  3  2  0  0  0  0
  2  4  1  0  0  0  0
  3  5  1  0  0  0  0
  4  6  2  0  0  0  0
  5  7  2  0  0  0  0
  6  7  1  0  0  0  0
  6  8  1  0  0  0  0
  7 10  1  0  0  0  0
  9 10  2  0  0  0  0
 10 14  1  0  0  0  0
 11 12  2  0  0  0  0
 11 14  1  0  0  0  0
 11 15  1  0  0  0  0
 12 13  1  0  0  0  0
 13 16  1  0  0  0  0
 15 16  2  0  0  0  0
M  END
