326184
 OpenBabel03021519512D

 22 25  0  0  0  0  0  0  0  0999 V2000
    0.9068    2.8519    0.0000 O   0  0  0  0  0  0  0  0  0  0  0  0
    0.7500    1.3601    0.0000 C   0  0  0  0  0  0  0  0  0  0  0  0
    2.3740    3.1638    0.0000 C   0  0  0  0  0  0  0  0  0  0  0  0
    2.1203    0.7500    0.0000 O   0  0  0  0  0  0  0  0  0  0  0  0
    3.1240    4.4628    0.0000 C   0  0  0  0  0  0  0  0  0  0  0  0
    3.1240    1.8647    0.0000 C   0  0  0  0  0  0  0  0  0  0  0  0
    4.6240    1.8647    0.0000 C   0  0  0  0  0  0  0  0  0  0  0  0
    4.6240    4.4628    0.0000 C   0  0  0  0  0  0  0  0  0  0  0  0
    5.3740    3.1638    0.0000 C   0  0  0  0  0  0  0  0  0  0  0  0
    6.8740    3.1638    0.0000 C   0  0  0  0  0  0  0  0  0  0  0  0
    7.7557    4.3773    0.0000 N   0  0  0  0  0  0  0  0  0  0  0  0
    7.7557    1.9502    0.0000 O   0  0  0  0  0  0  0  0  0  0  0  0
    9.1823    2.4138    0.0000 C   0  0  0  0  0  0  0  0  0  0  0  0
    9.1823    3.9138    0.0000 N   0  0  0  0  0  0  0  0  0  0  0  0
   11.7661    2.1422    0.0000 C   0  0  0  0  0  0  0  0  0  0  0  0
   12.9797    1.2605    0.0000 C   0  0  0  0  0  0  0  0  0  0  0  0
   11.9229    3.6340    0.0000 C   0  0  0  0  0  0  0  0  0  0  0  0
   14.3500    1.8706    0.0000 C   0  0  0  0  0  0  0  0  0  0  0  0
   13.2932    4.2441    0.0000 C   0  0  0  0  0  0  0  0  0  0  0  0
   14.5068    3.3624    0.0000 C   0  0  0  0  0  0  0  0  0  0  0  0
   15.8771    3.9725    0.0000 Cl  0  0  0  0  0  0  0  0  0  0  0  0
   10.3958    1.5321    0.0000 N   0  0  0  0  0  0  0  0  0  0  0  0
  1  3  1  0  0  0  0
  1  2  1  0  0  0  0
  2  4  1  0  0  0  0
  3  5  2  0  0  0  0
  3  6  1  0  0  0  0
  4  6  1  0  0  0  0
  5  8  1  0  0  0  0
  6  7  2  0  0  0  0
  7  9  1  0  0  0  0
  8  9  2  0  0  0  0
  9 10  1  0  0  0  0
 10 11  2  0  0  0  0
 10 12  1  0  0  0  0
 11 14  1  0  0  0  0
 12 13  1  0  0  0  0
 13 14  2  0  0  0  0
 13 22  1  0  0  0  0
 15 17  2  0  0  0  0
 15 16  1  0  0  0  0
 15 22  1  0  0  0  0
 16 18  2  0  0  0  0
 17 19  1  0  0  0  0
 18 20  1  0  0  0  0
 19 20  2  0  0  0  0
 20 21  1  0  0  0  0
M  END
