89349
 OpenBabel03021519512D

 17 18  0  0  0  0  0  0  0  0999 V2000
   -9.0554    4.7923    0.0000 Cl  0  0  0  0  0  0  0  0  0  0  0  0
   -8.5424    3.3828    0.0000 C   0  0  0  0  0  0  0  0  0  0  0  0
   -9.5065    2.2337    0.0000 C   0  0  0  0  0  0  0  0  0  0  0  0
   -7.0652    3.1223    0.0000 C   0  0  0  0  0  0  0  0  0  0  0  0
   -6.5521    1.7128    0.0000 C   0  0  0  0  0  0  0  0  0  0  0  0
   -8.9935    0.8242    0.0000 C   0  0  0  0  0  0  0  0  0  0  0  0
   -7.5163    0.5637    0.0000 C   0  0  0  0  0  0  0  0  0  0  0  0
   -7.0033   -0.8458    0.0000 S   0  0  0  0  0  0  0  0  0  0  0  0
   -5.7174   -0.6958    0.0000 Cl  0  0  0  0  0  0  0  0  0  0  0  0
   -5.7174   -3.2939    0.0000 C   0  0  0  0  0  0  0  0  0  0  0  0
   -4.9674   -4.5930    0.0000 C   0  0  0  0  0  0  0  0  0  0  0  0
   -4.9674   -1.9949    0.0000 C   0  0  0  0  0  0  0  0  0  0  0  0
   -3.4674   -1.9949    0.0000 C   0  0  0  0  0  0  0  0  0  0  0  0
   -3.4674   -4.5929    0.0000 C   0  0  0  0  0  0  0  0  0  0  0  0
   -2.7174   -3.2939    0.0000 C   0  0  0  0  0  0  0  0  0  0  0  0
   -7.9674   -1.9949    0.0000 C   0  0  0  0  0  0  0  0  0  0  0  0
   -7.2174   -3.2939    0.0000 N   0  0  0  0  0  0  0  0  0  0  0  0
  1  2  1  0  0  0  0
  2  3  2  0  0  0  0
  2  4  1  0  0  0  0
  3  6  1  0  0  0  0
  4  5  2  0  0  0  0
  5  7  1  0  0  0  0
  6  7  2  0  0  0  0
  7  8  1  0  0  0  0
  8 16  1  0  0  0  0
  9 12  1  0  0  0  0
 10 12  1  0  0  0  0
 10 11  2  0  0  0  0
 10 17  1  0  0  0  0
 11 14  1  0  0  0  0
 12 13  2  0  0  0  0
 13 15  1  0  0  0  0
 14 15  2  0  0  0  0
 16 17  1  0  0  0  0
M  END
