653004
 OpenBabel03021519512D

 21 23  0  0  1  0  0  0  0  0999 V2000
   -7.8653    0.6750    0.0000 C   0  0  0  0  0  0  0  0  0  0  0  0
   -6.5663    1.4250    0.0000 C   0  0  0  0  0  0  0  0  0  0  0  0
   -5.2672    0.6750    0.0000 C   0  0  0  0  0  0  0  0  0  0  0  0
   -5.2672   -0.8250    0.0000 C   0  0  0  0  0  0  0  0  0  0  0  0
   -6.5663   -1.5750    0.0000 C   0  0  0  0  0  0  0  0  0  0  0  0
   -7.8653   -0.8250    0.0000 C   0  0  0  0  0  0  0  0  0  0  0  0
   -9.1644    1.4250    0.0000 O   0  0  0  0  0  0  0  0  0  0  0  0
  -10.4634    0.6750    0.0000 C   0  0  0  0  0  0  0  0  0  0  0  0
   -9.1643   -1.5750    0.0000 O   0  0  0  0  0  0  0  0  0  0  0  0
  -10.4634   -0.8250    0.0000 C   0  0  0  0  0  0  0  0  0  0  0  0
   -3.9682    1.4250    0.0000 C   0  0  0  0  0  0  0  0  0  0  0  0
   -2.6692    0.6750    0.0000 C   0  0  0  0  0  0  0  0  0  0  0  0
   -2.6692   -0.8250    0.0000 N   0  0  0  0  0  0  0  0  0  0  0  0
   -3.9682   -1.5750    0.0000 C   0  0  3  0  0  0  0  0  0  0  0  0
   -3.9682   -3.0750    0.0000 C   0  0  0  0  0  0  0  0  0  0  0  0
   -2.4910   -2.8145    0.0000 O   0  0  0  0  0  0  0  0  0  0  0  0
   -5.4454   -2.8145    0.0000 C   0  0  0  0  0  0  0  0  0  0  0  0
   -6.4096   -3.9636    0.0000 C   0  0  0  0  0  0  0  0  0  0  0  0
   -5.8965   -5.3731    0.0000 C   0  0  0  0  0  0  0  0  0  0  0  0
   -4.4193   -5.6336    0.0000 C   0  0  0  0  0  0  0  0  0  0  0  0
   -3.4552   -4.4845    0.0000 C   0  0  0  0  0  0  0  0  0  0  0  0
  1  2  2  0  0  0  0
  1  6  1  0  0  0  0
  1  7  1  0  0  0  0
  2  3  1  0  0  0  0
  3  4  2  0  0  0  0
  3 11  1  0  0  0  0
  4  5  1  0  0  0  0
  4 14  1  0  0  0  0
  5  6  2  0  0  0  0
  6  9  1  0  0  0  0
  7  8  1  0  0  0  0
  9 10  1  0  0  0  0
 11 12  1  0  0  0  0
 12 13  1  0  0  0  0
 13 14  1  0  0  0  0
 14 15  1  0  0  0  0
 15 16  1  0  0  0  0
 15 17  1  0  0  0  0
 15 21  1  0  0  0  0
 17 18  1  0  0  0  0
 18 19  1  0  0  0  0
 19 20  1  0  0  0  0
 20 21  1  0  0  0  0
M  END
