130847
 OpenBabel03021519512D

 23 26  0  0  0  0  0  0  0  0999 V2000
    0.7500    3.5761    0.0000 O   0  0  0  0  0  0  0  0  0  0  0  0
    3.2455    4.5341    0.0000 O   0  0  0  0  0  0  0  0  0  0  0  0
    2.9918    2.1203    0.0000 N   0  0  0  0  0  0  0  0  0  0  0  0
    2.3817    0.7500    0.0000 H   0  0  0  0  0  0  0  0  0  0  0  0
    8.5129    6.1740    0.0000 N   0  0  0  0  0  0  0  0  0  0  0  0
    4.4590    2.4322    0.0000 N   0  0  0  0  0  0  0  0  0  0  0  0
   11.1110    4.6740    0.0000 C   0  0  0  0  0  0  0  0  0  0  0  0
   12.4100    3.9240    0.0000 C   0  0  0  0  0  0  0  0  0  0  0  0
    9.8120    3.9240    0.0000 C   0  0  0  0  0  0  0  0  0  0  0  0
   12.4100    2.4240    0.0000 C   0  0  0  0  0  0  0  0  0  0  0  0
    9.8119    2.4240    0.0000 C   0  0  0  0  0  0  0  0  0  0  0  0
    8.5129    4.6740    0.0000 C   0  0  0  0  0  0  0  0  0  0  0  0
    7.2139    3.9240    0.0000 C   0  0  0  0  0  0  0  0  0  0  0  0
   11.1110    1.6740    0.0000 C   0  0  0  0  0  0  0  0  0  0  0  0
    5.9148    4.6740    0.0000 C   0  0  0  0  0  0  0  0  0  0  0  0
    5.9148    6.1740    0.0000 C   0  0  0  0  0  0  0  0  0  0  0  0
    7.2139    8.4240    0.0000 C   0  0  0  0  0  0  0  0  0  0  0  0
    5.9148    9.1740    0.0000 C   0  0  0  0  0  0  0  0  0  0  0  0
    7.2139    6.9240    0.0000 C   0  0  0  0  0  0  0  0  0  0  0  0
    4.6158    8.4240    0.0000 C   0  0  0  0  0  0  0  0  0  0  0  0
    4.6158    6.9240    0.0000 C   0  0  0  0  0  0  0  0  0  0  0  0
    4.6158    3.9240    0.0000 C   0  0  0  0  0  0  0  0  0  0  0  0
    2.2418    3.4194    0.0000 C   0  0  0  0  0  0  0  0  0  0  0  0
  1 23  2  0  0  0  0
  2 22  1  0  0  0  0
  2 23  1  0  0  0  0
  3  6  1  0  0  0  0
  3 23  1  0  0  0  0
  3  4  1  0  0  0  0
  5 12  2  0  0  0  0
  5 19  1  0  0  0  0
  6 22  2  0  0  0  0
  7  8  2  0  0  0  0
  7  9  1  0  0  0  0
  8 10  1  0  0  0  0
  9 11  2  0  0  0  0
  9 12  1  0  0  0  0
 10 14  2  0  0  0  0
 11 14  1  0  0  0  0
 12 13  1  0  0  0  0
 13 15  2  0  0  0  0
 15 16  1  0  0  0  0
 15 22  1  0  0  0  0
 16 19  2  0  0  0  0
 16 21  1  0  0  0  0
 17 18  2  0  0  0  0
 17 19  1  0  0  0  0
 18 20  1  0  0  0  0
 20 21  2  0  0  0  0
M  END
