29200
 OpenBabel03021519512D

 26 28  0  0  0  0  0  0  0  0999 V2000
   12.0663   -4.3995    0.0000 F   0  0  0  0  0  0  0  0  0  0  0  0
    5.5712   -3.6495    0.0000 N   0  0  0  0  0  0  0  0  0  0  0  0
    2.9731   -3.6495    0.0000 N   0  0  0  0  0  0  0  0  0  0  0  0
    9.4683   -8.8995    0.0000 F   0  0  0  0  0  0  0  0  0  0  0  0
    6.8702   -5.8995    0.0000 C   0  0  0  0  0  0  0  0  0  0  0  0
    5.5712   -6.6495    0.0000 C   0  0  0  0  0  0  0  0  0  0  0  0
    8.1693   -6.6495    0.0000 C   0  0  0  0  0  0  0  0  0  0  0  0
    8.1693   -8.1495    0.0000 C   0  0  0  0  0  0  0  0  0  0  0  0
    5.5712   -8.1495    0.0000 C   0  0  0  0  0  0  0  0  0  0  0  0
    6.8702   -8.8995    0.0000 C   0  0  0  0  0  0  0  0  0  0  0  0
    8.1692   -3.6495    0.0000 C   0  0  0  0  0  0  0  0  0  0  0  0
    9.4683   -4.3995    0.0000 C   0  0  0  0  0  0  0  0  0  0  0  0
    8.1692   -2.1495    0.0000 C   0  0  0  0  0  0  0  0  0  0  0  0
    9.4683   -1.3995    0.0000 C   0  0  0  0  0  0  0  0  0  0  0  0
   10.7673   -3.6495    0.0000 C   0  0  0  0  0  0  0  0  0  0  0  0
   10.7673   -2.1495    0.0000 C   0  0  0  0  0  0  0  0  0  0  0  0
    4.2721   -4.3995    0.0000 C   0  0  0  0  0  0  0  0  0  0  0  0
    5.5712   -2.1495    0.0000 C   0  0  0  0  0  0  0  0  0  0  0  0
    4.2721   -1.3995    0.0000 C   0  0  0  0  0  0  0  0  0  0  0  0
    2.9731   -2.1495    0.0000 C   0  0  0  0  0  0  0  0  0  0  0  0
    6.8702   -1.3995    0.0000 N   0  0  0  0  0  0  0  0  0  0  0  0
    4.2721    0.1005    0.0000 N   0  3  0  0  0  0  0  0  0  0  0  0
    5.5711    0.8505    0.0000 O   0  5  0  0  0  0  0  0  0  0  0  0
    2.9731    0.8505    0.0000 O   0  0  0  0  0  0  0  0  0  0  0  0
    1.6740   -1.3995    0.0000 C   0  0  0  0  0  0  0  0  0  0  0  0
    4.2721   -5.8995    0.0000 N   0  0  0  0  0  0  0  0  0  0  0  0
  1 15  1  0  0  0  0
  2 17  2  0  0  0  0
  2 18  1  0  0  0  0
  3 20  2  0  0  0  0
  3 17  1  0  0  0  0
  4  8  1  0  0  0  0
  5  7  2  0  0  0  0
  5  6  1  0  0  0  0
  6  9  2  0  0  0  0
  6 26  1  0  0  0  0
  7  8  1  0  0  0  0
  8 10  2  0  0  0  0
  9 10  1  0  0  0  0
 11 12  2  0  0  0  0
 11 13  1  0  0  0  0
 12 15  1  0  0  0  0
 13 14  2  0  0  0  0
 13 21  1  0  0  0  0
 14 16  1  0  0  0  0
 15 16  2  0  0  0  0
 17 26  1  0  0  0  0
 18 19  2  0  0  0  0
 18 21  1  0  0  0  0
 19 20  1  0  0  0  0
 19 22  1  0  0  0  0
 20 25  1  0  0  0  0
 22 23  1  0  0  0  0
 22 24  2  0  0  0  0
M  CHG  2  22   1  23  -1
M  END
