62375
 OpenBabel03021519512D

 22 23  0  0  1  0  0  0  0  0999 V2000
   -1.6740    4.3995    0.0000 O   0  0  0  0  0  0  0  0  0  0  0  0
    0.9241    4.3995    0.0000 N   0  0  0  0  0  0  0  0  0  0  0  0
    3.5221    5.8995    0.0000 N   0  0  0  0  0  0  0  0  0  0  0  0
    6.1202    8.8995    0.0000 N   0  0  0  0  0  0  0  0  0  0  0  0
    8.7183   10.3995    0.0000 N   0  0  0  0  0  0  0  0  0  0  0  0
   10.0173   12.6495    0.0000 O   0  0  0  0  0  0  0  0  0  0  0  0
    6.1202   10.3995    0.0000 C   0  0  0  0  0  0  0  0  0  0  0  0
    7.4193   11.1495    0.0000 C   0  0  3  0  0  0  0  0  0  0  0  0
    2.2231    6.6495    0.0000 C   0  0  0  0  0  0  0  0  0  0  0  0
    0.9241    5.8995    0.0000 C   0  0  3  0  0  0  0  0  0  0  0  0
    7.4193    8.1495    0.0000 C   0  0  3  0  0  0  0  0  0  0  0  0
    8.7183    8.8995    0.0000 C   0  0  0  0  0  0  0  0  0  0  0  0
    3.5221    4.3995    0.0000 C   0  0  3  0  0  0  0  0  0  0  0  0
    2.2231    3.6495    0.0000 C   0  0  0  0  0  0  0  0  0  0  0  0
   -0.3750    6.6495    0.0000 C   0  0  0  0  0  0  0  0  0  0  0  0
   -0.3750    3.6495    0.0000 C   0  0  0  0  0  0  0  0  0  0  0  0
    4.8212    3.6495    0.0000 C   0  0  0  0  0  0  0  0  0  0  0  0
    4.8212    6.6495    0.0000 C   0  0  0  0  0  0  0  0  0  0  0  0
    4.8212    8.1495    0.0000 C   0  0  0  0  0  0  0  0  0  0  0  0
    7.4193    6.6495    0.0000 C   0  0  0  0  0  0  0  0  0  0  0  0
    7.4193   12.6495    0.0000 C   0  0  0  0  0  0  0  0  0  0  0  0
   10.0173   11.1495    0.0000 C   0  0  0  0  0  0  0  0  0  0  0  0
  1 16  2  0  0  0  0
  2 10  1  0  0  0  0
  2 14  1  0  0  0  0
  2 16  1  0  0  0  0
  3  9  1  0  0  0  0
  3 13  1  0  0  0  0
  3 18  1  0  0  0  0
  4  7  1  0  0  0  0
  4 11  1  0  0  0  0
  4 19  1  0  0  0  0
  5  8  1  0  0  0  0
  5 12  1  0  0  0  0
  5 22  1  0  0  0  0
  6 22  2  0  0  0  0
  7  8  1  0  0  0  0
  8 21  1  0  0  0  0
  9 10  1  0  0  0  0
 10 15  1  0  0  0  0
 11 12  1  0  0  0  0
 11 20  1  0  0  0  0
 13 14  1  0  0  0  0
 13 17  1  0  0  0  0
 18 19  1  0  0  0  0
M  END
