153399
 OpenBabel03021519512D

 18 20  0  0  1  0  0  0  0  0999 V2000
   -2.0284    2.6046    0.0000 O   0  0  0  0  0  0  0  0  0  0  0  0
    4.9386    0.8471    0.0000 N   0  0  0  0  0  0  0  0  0  0  0  0
    5.0078   -0.6513    0.0000 C   0  0  0  0  0  0  0  0  0  0  0  0
    3.7448   -1.4605    0.0000 C   0  0  0  0  0  0  0  0  0  0  0  0
    2.4125   -0.7713    0.0000 C   0  0  0  0  0  0  0  0  0  0  0  0
    2.3433    0.7271    0.0000 C   0  0  0  0  0  0  0  0  0  0  0  0
    3.6063    1.5363    0.0000 C   0  0  0  0  0  0  0  0  0  0  0  0
   -1.6491    1.1533    0.0000 C   0  0  0  0  0  0  0  0  0  0  0  0
   -2.6002   -0.0066    0.0000 C   0  0  0  0  0  0  0  0  0  0  0  0
   -0.2520    0.6071    0.0000 C   0  0  3  0  0  0  0  0  0  0  0  0
   -4.0986   -0.0758    0.0000 C   0  0  0  0  0  0  0  0  0  0  0  0
   -4.7879   -1.4081    0.0000 C   0  0  0  0  0  0  0  0  0  0  0  0
   -0.3398   -0.8903    0.0000 C   0  0  0  0  0  0  0  0  0  0  0  0
   -1.7910   -1.2696    0.0000 C   0  0  0  0  0  0  0  0  0  0  0  0
   -3.9787   -2.6711    0.0000 C   0  0  0  0  0  0  0  0  0  0  0  0
   -2.4803   -2.6019    0.0000 C   0  0  0  0  0  0  0  0  0  0  0  0
    1.0110    1.4163    0.0000 C   0  0  0  0  0  0  0  0  0  0  0  0
    0.9417    2.9147    0.0000 O   0  0  0  0  0  0  0  0  0  0  0  0
  1  8  2  0  0  0  0
  2  7  2  0  0  0  0
  2  3  1  0  0  0  0
  3  4  2  0  0  0  0
  4  5  1  0  0  0  0
  5  6  2  0  0  0  0
  6  7  1  0  0  0  0
  6 17  1  0  0  0  0
  8  9  1  0  0  0  0
  8 10  1  0  0  0  0
  9 14  2  0  0  0  0
  9 11  1  0  0  0  0
 10 13  1  0  0  0  0
 10 17  1  0  0  0  0
 11 12  2  0  0  0  0
 12 15  1  0  0  0  0
 13 14  1  0  0  0  0
 14 16  1  0  0  0  0
 15 16  2  0  0  0  0
 17 18  2  0  0  0  0
M  END
