378711
 OpenBabel03021519512D

 19 21  0  0  0  0  0  0  0  0999 V2000
    4.5000    3.9254    0.0000 C   0  0  0  0  0  0  0  0  0  0  0  0
    3.5358    2.7763    0.0000 N   0  0  0  0  0  0  0  0  0  0  0  0
    1.6074    0.4781    0.0000 O   0  0  0  0  0  0  0  0  0  0  0  0
   12.2942    0.9254    0.0000 Cl  0  0  0  0  0  0  0  0  0  0  0  0
    5.0130    5.3349    0.0000 C   0  0  0  0  0  0  0  0  0  0  0  0
    3.5358    5.0744    0.0000 C   0  0  0  0  0  0  0  0  0  0  0  0
    9.6961    3.9254    0.0000 C   0  0  0  0  0  0  0  0  0  0  0  0
    8.3971    3.1754    0.0000 C   0  0  0  0  0  0  0  0  0  0  0  0
   10.9952    3.1754    0.0000 C   0  0  0  0  0  0  0  0  0  0  0  0
    8.3971    1.6754    0.0000 C   0  0  0  0  0  0  0  0  0  0  0  0
   10.9952    1.6754    0.0000 C   0  0  0  0  0  0  0  0  0  0  0  0
    9.6961    0.9254    0.0000 C   0  0  0  0  0  0  0  0  0  0  0  0
    2.0586    3.0368    0.0000 C   0  0  0  0  0  0  0  0  0  0  0  0
    1.0944    1.8877    0.0000 C   0  0  0  0  0  0  0  0  0  0  0  0
    4.0488    1.3668    0.0000 C   0  0  0  0  0  0  0  0  0  0  0  0
    3.0847    0.2177    0.0000 C   0  0  0  0  0  0  0  0  0  0  0  0
    5.7990    3.1754    0.0000 N   0  0  0  0  0  0  0  0  0  0  0  0
    7.0980    3.9254    0.0000 C   0  0  0  0  0  0  0  0  0  0  0  0
    7.0980    5.4254    0.0000 O   0  0  0  0  0  0  0  0  0  0  0  0
  1  5  1  0  0  0  0
  1  6  1  0  0  0  0
  1  2  1  0  0  0  0
  1 17  1  0  0  0  0
  2 13  1  0  0  0  0
  2 15  1  0  0  0  0
  3 14  1  0  0  0  0
  3 16  1  0  0  0  0
  4 11  1  0  0  0  0
  5  6  1  0  0  0  0
  7  9  2  0  0  0  0
  7  8  1  0  0  0  0
  8 10  2  0  0  0  0
  8 18  1  0  0  0  0
  9 11  1  0  0  0  0
 10 12  1  0  0  0  0
 11 12  2  0  0  0  0
 13 14  1  0  0  0  0
 15 16  1  0  0  0  0
 17 18  1  0  0  0  0
 18 19  2  0  0  0  0
M  END
