22801
 OpenBabel03021519512D

 21 23  0  0  0  0  0  0  0  0999 V2000
   -9.1809    4.4346    0.0000 O   0  0  0  0  0  0  0  0  0  0  0  0
  -10.1388    1.9391    0.0000 N   0  0  0  0  0  0  0  0  0  0  0  0
  -11.8210   -0.1382    0.0000 O   0  0  0  0  0  0  0  0  0  0  0  0
   -4.9426    1.9391    0.0000 N   0  0  0  0  0  0  0  0  0  0  0  0
  -10.2956    3.4309    0.0000 C   0  0  0  0  0  0  0  0  0  0  0  0
  -11.7628    3.7427    0.0000 C   0  0  0  0  0  0  0  0  0  0  0  0
  -12.5128    5.0418    0.0000 C   0  0  0  0  0  0  0  0  0  0  0  0
  -14.0128    5.0418    0.0000 C   0  0  0  0  0  0  0  0  0  0  0  0
  -12.5128    2.4437    0.0000 C   0  0  0  0  0  0  0  0  0  0  0  0
  -14.7628    3.7427    0.0000 C   0  0  0  0  0  0  0  0  0  0  0  0
  -14.0128    2.4437    0.0000 C   0  0  0  0  0  0  0  0  0  0  0  0
  -11.5091    1.3290    0.0000 C   0  0  0  0  0  0  0  0  0  0  0  0
   -3.6436    1.1891    0.0000 C   0  0  0  0  0  0  0  0  0  0  0  0
   -3.6436   -0.3109    0.0000 C   0  0  0  0  0  0  0  0  0  0  0  0
   -4.9426   -1.0609    0.0000 C   0  0  0  0  0  0  0  0  0  0  0  0
   -6.2417   -0.3109    0.0000 C   0  0  0  0  0  0  0  0  0  0  0  0
   -6.2417    1.1891    0.0000 C   0  0  0  0  0  0  0  0  0  0  0  0
   -8.8398    1.1891    0.0000 C   0  0  0  0  0  0  0  0  0  0  0  0
   -7.5407    1.9391    0.0000 C   0  0  0  0  0  0  0  0  0  0  0  0
   -2.3446   -1.0609    0.0000 C   0  0  0  0  0  0  0  0  0  0  0  0
   -1.0455   -0.3109    0.0000 C   0  0  0  0  0  0  0  0  0  0  0  0
  1  5  2  0  0  0  0
  2  5  1  0  0  0  0
  2 12  1  0  0  0  0
  2 18  1  0  0  0  0
  3 12  2  0  0  0  0
  4 17  2  0  0  0  0
  4 13  1  0  0  0  0
  5  6  1  0  0  0  0
  6  9  2  0  0  0  0
  6  7  1  0  0  0  0
  7  8  2  0  0  0  0
  8 10  1  0  0  0  0
  9 11  1  0  0  0  0
  9 12  1  0  0  0  0
 10 11  2  0  0  0  0
 13 14  2  0  0  0  0
 14 15  1  0  0  0  0
 14 20  1  0  0  0  0
 15 16  2  0  0  0  0
 16 17  1  0  0  0  0
 17 19  1  0  0  0  0
 18 19  1  0  0  0  0
 20 21  1  0  0  0  0
M  END
