13051
 OpenBabel03021519512D

 29 32  0  0  0  0  0  0  0  0999 V2000
   -8.0687    5.5245    0.0000 Cl  0  0  0  0  0  0  0  0  0  0  0  0
   -2.8726    5.5245    0.0000 N   0  0  0  0  0  0  0  0  0  0  0  0
    1.8689   12.7620    0.0000 C   0  0  0  0  0  0  0  0  0  0  0  0
    0.5699   13.5120    0.0000 C   0  0  0  0  0  0  0  0  0  0  0  0
    1.8689   11.2620    0.0000 C   0  0  0  0  0  0  0  0  0  0  0  0
    0.5699   10.5120    0.0000 C   0  0  0  0  0  0  0  0  0  0  0  0
   -0.7292   12.7620    0.0000 C   0  0  0  0  0  0  0  0  0  0  0  0
   -0.7292   11.2620    0.0000 C   0  0  0  0  0  0  0  0  0  0  0  0
   -2.8726    8.5245    0.0000 C   0  0  0  0  0  0  0  0  0  0  0  0
   -4.1716    7.7745    0.0000 C   0  0  0  0  0  0  0  0  0  0  0  0
   -1.5735    7.7745    0.0000 C   0  0  0  0  0  0  0  0  0  0  0  0
   -0.2745    8.5245    0.0000 C   0  0  0  0  0  0  0  0  0  0  0  0
    1.0245    7.7745    0.0000 C   0  0  0  0  0  0  0  0  0  0  0  0
   -5.4707    8.5245    0.0000 C   0  0  0  0  0  0  0  0  0  0  0  0
   -6.7697    7.7745    0.0000 C   0  0  0  0  0  0  0  0  0  0  0  0
    1.0245    6.2745    0.0000 C   0  0  0  0  0  0  0  0  0  0  0  0
   -1.5735    6.2745    0.0000 C   0  0  0  0  0  0  0  0  0  0  0  0
   -4.1716    6.2745    0.0000 C   0  0  0  0  0  0  0  0  0  0  0  0
   -6.7697    6.2745    0.0000 C   0  0  0  0  0  0  0  0  0  0  0  0
   -0.2745    5.5245    0.0000 C   0  0  0  0  0  0  0  0  0  0  0  0
   -5.4707    5.5245    0.0000 C   0  0  0  0  0  0  0  0  0  0  0  0
    0.5698   15.0120    0.0000 C   0  0  0  0  0  0  0  0  0  0  0  0
   -0.7292   15.7620    0.0000 C   0  0  0  0  0  0  0  0  0  0  0  0
    1.8689   15.7620    0.0000 C   0  0  0  0  0  0  0  0  0  0  0  0
   -2.8726   10.0245    0.0000 N   0  0  0  0  0  0  0  0  0  0  0  0
    3.1679   13.5120    0.0000 O   0  0  0  0  0  0  0  0  0  0  0  0
    0.5699    9.0120    0.0000 C   0  0  0  0  0  0  0  0  0  0  0  0
    2.3236    8.5245    0.0000 O   0  0  0  0  0  0  0  0  0  0  0  0
    3.6226    7.7745    0.0000 C   0  0  0  0  0  0  0  0  0  0  0  0
  1 19  1  0  0  0  0
  2 18  2  0  0  0  0
  2 17  1  0  0  0  0
  3  5  2  0  0  0  0
  3  4  1  0  0  0  0
  3 26  1  0  0  0  0
  4  7  2  0  0  0  0
  4 22  1  0  0  0  0
  5  6  1  0  0  0  0
  6  8  2  0  0  0  0
  6 27  1  0  0  0  0
  7  8  1  0  0  0  0
  8 25  1  0  0  0  0
  9 10  2  0  0  0  0
  9 11  1  0  0  0  0
  9 25  1  0  0  0  0
 10 14  1  0  0  0  0
 10 18  1  0  0  0  0
 11 17  2  0  0  0  0
 11 12  1  0  0  0  0
 12 13  2  0  0  0  0
 13 16  1  0  0  0  0
 13 28  1  0  0  0  0
 14 15  2  0  0  0  0
 15 19  1  0  0  0  0
 16 20  2  0  0  0  0
 17 20  1  0  0  0  0
 18 21  1  0  0  0  0
 19 21  2  0  0  0  0
 22 23  1  0  0  0  0
 22 24  1  0  0  0  0
 28 29  1  0  0  0  0
M  END
