13213
 OpenBabel03021519512D

 14 15  0  0  0  0  0  0  0  0999 V2000
   -2.2231   -3.6495    0.0000 N   0  0  0  0  0  0  0  0  0  0  0  0
   -0.9240   -5.8995    0.0000 N   0  0  0  0  0  0  0  0  0  0  0  0
   -4.8212   -3.6495    0.0000 C   0  0  0  0  0  0  0  0  0  0  0  0
   -3.5221   -4.3995    0.0000 C   0  0  0  0  0  0  0  0  0  0  0  0
   -6.1202   -4.3995    0.0000 C   0  0  0  0  0  0  0  0  0  0  0  0
   -3.5221   -5.8995    0.0000 C   0  0  0  0  0  0  0  0  0  0  0  0
   -6.1202   -5.8995    0.0000 C   0  0  0  0  0  0  0  0  0  0  0  0
   -4.8212   -6.6495    0.0000 C   0  0  0  0  0  0  0  0  0  0  0  0
   -2.2231   -6.6495    0.0000 C   0  0  0  0  0  0  0  0  0  0  0  0
   -0.9240   -4.3995    0.0000 C   0  0  0  0  0  0  0  0  0  0  0  0
   -2.2231   -8.1495    0.0000 C   0  0  0  0  0  0  0  0  0  0  0  0
    0.3750   -3.6495    0.0000 C   0  0  0  0  0  0  0  0  0  0  0  0
    1.6740   -4.3995    0.0000 O   0  0  0  0  0  0  0  0  0  0  0  0
    0.3750   -2.1495    0.0000 N   0  0  0  0  0  0  0  0  0  0  0  0
  1 10  2  0  0  0  0
  1  4  1  0  0  0  0
  2  9  2  0  0  0  0
  2 10  1  0  0  0  0
  3  5  2  0  0  0  0
  3  4  1  0  0  0  0
  4  6  2  0  0  0  0
  5  7  1  0  0  0  0
  6  8  1  0  0  0  0
  6  9  1  0  0  0  0
  7  8  2  0  0  0  0
  9 11  1  0  0  0  0
 10 12  1  0  0  0  0
 12 13  2  0  0  0  0
 12 14  1  0  0  0  0
M  END
