97865
 OpenBabel03021519512D

 19 20  0  0  1  0  0  0  0  0999 V2000
   -0.7500    6.7500    0.0000 O   0  0  0  0  0  0  0  0  0  0  0  0
   -3.4194    8.3899    0.0000 O   0  0  0  0  0  0  0  0  0  0  0  0
   -3.6731   10.8036    0.0000 N   0  0  0  0  0  0  0  0  0  0  0  0
   -4.2832   12.1740    0.0000 H   0  0  0  0  0  0  0  0  0  0  0  0
   -5.9148    9.3478    0.0000 S   0  0  0  0  0  0  0  0  0  0  0  0
   -3.3481    6.7500    0.0000 C   0  0  0  0  0  0  0  0  0  0  0  0
   -2.0490    6.0000    0.0000 C   0  0  0  0  0  0  0  0  0  0  0  0
   -4.6471    6.0000    0.0000 C   0  0  0  0  0  0  0  0  0  0  0  0
   -2.0490    4.5000    0.0000 C   0  0  0  0  0  0  0  0  0  0  0  0
   -4.6471    4.5000    0.0000 C   0  0  0  0  0  0  0  0  0  0  0  0
   -3.3481    3.7500    0.0000 C   0  0  0  0  0  0  0  0  0  0  0  0
   -2.0491    9.0000    0.0000 C   0  0  3  0  0  0  0  0  0  0  0  0
   -2.2058   10.4918    0.0000 C   0  0  0  0  0  0  0  0  0  0  0  0
   -4.4231    9.5046    0.0000 C   0  0  0  0  0  0  0  0  0  0  0  0
   -3.3481    2.2500    0.0000 C   0  0  0  0  0  0  0  0  0  0  0  0
   -4.8481    2.2500    0.0000 F   0  0  0  0  0  0  0  0  0  0  0  0
   -3.3481    0.7500    0.0000 F   0  0  0  0  0  0  0  0  0  0  0  0
   -1.8481    2.2500    0.0000 F   0  0  0  0  0  0  0  0  0  0  0  0
   -0.7500    8.2500    0.0000 C   0  0  0  0  0  0  0  0  0  0  0  0
  1  7  1  0  0  0  0
  1 19  1  0  0  0  0
  2 12  1  0  0  0  0
  2 14  1  0  0  0  0
  3 13  1  0  0  0  0
  3 14  1  0  0  0  0
  3  4  1  0  0  0  0
  5 14  2  0  0  0  0
  6  8  2  0  0  0  0
  6  7  1  0  0  0  0
  7  9  2  0  0  0  0
  8 10  1  0  0  0  0
  9 11  1  0  0  0  0
 10 11  2  0  0  0  0
 11 15  1  0  0  0  0
 12 13  1  0  0  0  0
 12 19  1  0  0  0  0
 15 16  1  0  0  0  0
 15 17  1  0  0  0  0
 15 18  1  0  0  0  0
M  END
