30930
 OpenBabel03021519512D

 21 23  0  0  0  0  0  0  0  0999 V2000
   -1.8548   -3.7970    0.0000 N   0  0  0  0  0  0  0  0  0  0  0  0
   -1.3913   -2.3705    0.0000 H   0  0  0  0  0  0  0  0  0  0  0  0
   -4.5805   -3.5106    0.0000 C   0  0  0  0  0  0  0  0  0  0  0  0
   -3.2814   -4.2606    0.0000 C   0  0  0  0  0  0  0  0  0  0  0  0
   -5.8795   -4.2606    0.0000 C   0  0  0  0  0  0  0  0  0  0  0  0
   -3.2814   -5.7606    0.0000 C   0  0  0  0  0  0  0  0  0  0  0  0
   -5.8795   -5.7606    0.0000 C   0  0  0  0  0  0  0  0  0  0  0  0
   -4.5805   -6.5106    0.0000 C   0  0  0  0  0  0  0  0  0  0  0  0
   -1.8548   -6.2241    0.0000 C   0  0  0  0  0  0  0  0  0  0  0  0
   -0.9732   -5.0106    0.0000 C   0  0  0  0  0  0  0  0  0  0  0  0
   -9.7766   -8.0106    0.0000 C   0  0  0  0  0  0  0  0  0  0  0  0
   -8.4776   -8.7606    0.0000 C   0  0  0  0  0  0  0  0  0  0  0  0
  -11.0756   -8.7606    0.0000 C   0  0  0  0  0  0  0  0  0  0  0  0
   -8.4776  -10.2606    0.0000 C   0  0  0  0  0  0  0  0  0  0  0  0
  -11.0756  -10.2606    0.0000 C   0  0  0  0  0  0  0  0  0  0  0  0
   -9.7766  -11.0106    0.0000 C   0  0  0  0  0  0  0  0  0  0  0  0
   -7.1785   -8.0106    0.0000 C   0  0  0  0  0  0  0  0  0  0  0  0
   -7.1785   -6.5106    0.0000 O   0  0  0  0  0  0  0  0  0  0  0  0
    0.5268   -5.0106    0.0000 C   0  0  0  0  0  0  0  0  0  0  0  0
    1.2768   -6.3096    0.0000 O   0  0  0  0  0  0  0  0  0  0  0  0
    1.2768   -3.7115    0.0000 O   0  0  0  0  0  0  0  0  0  0  0  0
  1  4  1  0  0  0  0
  1 10  1  0  0  0  0
  1  2  1  0  0  0  0
  3  5  2  0  0  0  0
  3  4  1  0  0  0  0
  4  6  2  0  0  0  0
  5  7  1  0  0  0  0
  6  8  1  0  0  0  0
  6  9  1  0  0  0  0
  7  8  2  0  0  0  0
  7 18  1  0  0  0  0
  9 10  2  0  0  0  0
 10 19  1  0  0  0  0
 11 13  2  0  0  0  0
 11 12  1  0  0  0  0
 12 14  2  0  0  0  0
 12 17  1  0  0  0  0
 13 15  1  0  0  0  0
 14 16  1  0  0  0  0
 15 16  2  0  0  0  0
 17 18  1  0  0  0  0
 19 20  2  0  0  0  0
 19 21  1  0  0  0  0
M  END
