120289
 OpenBabel03021519512D

 26 28  0  0  0  0  0  0  0  0999 V2000
    6.8928    4.0086    0.0000 C   0  0  0  0  0  0  0  0  0  0  0  0
    8.3928    4.0086    0.0000 C   0  0  0  0  0  0  0  0  0  0  0  0
    9.1428    5.3077    0.0000 C   0  0  0  0  0  0  0  0  0  0  0  0
    8.3928    6.6067    0.0000 C   0  0  0  0  0  0  0  0  0  0  0  0
    6.8928    6.6067    0.0000 C   0  0  0  0  0  0  0  0  0  0  0  0
    6.1428    5.3077    0.0000 C   0  0  0  0  0  0  0  0  0  0  0  0
   10.6428    5.3077    0.0000 C   0  0  0  0  0  0  0  0  0  0  0  0
   11.5245    4.0942    0.0000 C   0  0  0  0  0  0  0  0  0  0  0  0
   12.9510    4.5577    0.0000 N   0  0  0  0  0  0  0  0  0  0  0  0
   12.9510    6.0577    0.0000 N   0  0  0  0  0  0  0  0  0  0  0  0
   11.5245    6.5212    0.0000 S   0  0  0  0  0  0  0  0  0  0  0  0
    4.6428    5.3077    0.0000 C   0  0  0  0  0  0  0  0  0  0  0  0
    3.7611    6.5212    0.0000 S   0  0  0  0  0  0  0  0  0  0  0  0
    2.3345    6.0577    0.0000 N   0  0  0  0  0  0  0  0  0  0  0  0
    2.3345    4.5577    0.0000 N   0  0  0  0  0  0  0  0  0  0  0  0
    3.7611    4.0942    0.0000 C   0  0  0  0  0  0  0  0  0  0  0  0
    4.2246    2.6676    0.0000 C   0  0  0  0  0  0  0  0  0  0  0  0
    5.6918    2.3557    0.0000 O   0  0  0  0  0  0  0  0  0  0  0  0
    3.2209    1.5529    0.0000 O   0  0  0  0  0  0  0  0  0  0  0  0
    1.7537    1.8647    0.0000 C   0  0  0  0  0  0  0  0  0  0  0  0
    0.7500    0.7500    0.0000 C   0  0  0  0  0  0  0  0  0  0  0  0
   11.0609    2.6676    0.0000 C   0  0  0  0  0  0  0  0  0  0  0  0
    9.5937    2.3557    0.0000 O   0  0  0  0  0  0  0  0  0  0  0  0
   12.0646    1.5528    0.0000 O   0  0  0  0  0  0  0  0  0  0  0  0
   13.5318    1.8647    0.0000 C   0  0  0  0  0  0  0  0  0  0  0  0
   14.5355    0.7500    0.0000 C   0  0  0  0  0  0  0  0  0  0  0  0
  1  2  2  0  0  0  0
  1  6  1  0  0  0  0
  2  3  1  0  0  0  0
  3  4  2  0  0  0  0
  3  7  1  0  0  0  0
  4  5  1  0  0  0  0
  5  6  2  0  0  0  0
  6 12  1  0  0  0  0
  7  8  2  0  0  0  0
  7 11  1  0  0  0  0
  8  9  1  0  0  0  0
  8 22  1  0  0  0  0
  9 10  2  0  0  0  0
 10 11  1  0  0  0  0
 12 13  1  0  0  0  0
 12 16  2  0  0  0  0
 13 14  1  0  0  0  0
 14 15  2  0  0  0  0
 15 16  1  0  0  0  0
 16 17  1  0  0  0  0
 17 18  2  0  0  0  0
 17 19  1  0  0  0  0
 19 20  1  0  0  0  0
 20 21  1  0  0  0  0
 22 23  2  0  0  0  0
 22 24  1  0  0  0  0
 24 25  1  0  0  0  0
 25 26  1  0  0  0  0
M  END
