294750
 OpenBabel03021519512D

 20 21  0  0  0  0  0  0  0  0999 V2000
    6.7366    3.6414    0.0000 S   0  0  0  0  0  0  0  0  0  0  0  0
    5.3662    3.0313    0.0000 C   0  0  0  0  0  0  0  0  0  0  0  0
    4.0672    3.7813    0.0000 N   0  0  0  0  0  0  0  0  0  0  0  0
    5.0544    1.5640    0.0000 S   0  0  0  0  0  0  0  0  0  0  0  0
    3.5626    1.4072    0.0000 C   0  0  0  0  0  0  0  0  0  0  0  0
    2.9525    2.7776    0.0000 C   0  0  0  0  0  0  0  0  0  0  0  0
    2.8126    0.1082    0.0000 C   0  0  0  0  0  0  0  0  0  0  0  0
    1.3126    0.1082    0.0000 O   0  0  0  0  0  0  0  0  0  0  0  0
    5.0626   -1.1908    0.0000 C   0  0  0  0  0  0  0  0  0  0  0  0
    5.8126    0.1082    0.0000 C   0  0  0  0  0  0  0  0  0  0  0  0
    5.8126   -2.4899    0.0000 C   0  0  0  0  0  0  0  0  0  0  0  0
    7.3126    0.1082    0.0000 C   0  0  0  0  0  0  0  0  0  0  0  0
    7.3126   -2.4899    0.0000 C   0  0  0  0  0  0  0  0  0  0  0  0
    8.0626   -1.1908    0.0000 C   0  0  0  0  0  0  0  0  0  0  0  0
    6.8933    5.1332    0.0000 C   0  0  0  0  0  0  0  0  0  0  0  0
    1.4853    3.0894    0.0000 N   0  0  0  0  0  0  0  0  0  0  0  0
    3.5626   -1.1908    0.0000 N   0  0  0  0  0  0  0  0  0  0  0  0
    9.5626   -1.1908    0.0000 N   0  3  0  0  0  0  0  0  0  0  0  0
   10.3126    0.1082    0.0000 O   0  5  0  0  0  0  0  0  0  0  0  0
   10.3126   -2.4899    0.0000 O   0  0  0  0  0  0  0  0  0  0  0  0
  1  2  1  0  0  0  0
  1 15  1  0  0  0  0
  2  3  2  0  0  0  0
  2  4  1  0  0  0  0
  3  6  1  0  0  0  0
  4  5  1  0  0  0  0
  5  6  2  0  0  0  0
  5  7  1  0  0  0  0
  6 16  1  0  0  0  0
  7  8  2  0  0  0  0
  7 17  1  0  0  0  0
  9 10  2  0  0  0  0
  9 11  1  0  0  0  0
  9 17  1  0  0  0  0
 10 12  1  0  0  0  0
 11 13  2  0  0  0  0
 12 14  2  0  0  0  0
 13 14  1  0  0  0  0
 14 18  1  0  0  0  0
 18 19  1  0  0  0  0
 18 20  2  0  0  0  0
M  CHG  2  18   1  19  -1
M  END
