5053
 OpenBabel03021519512D

 24 26  0  0  0  0  0  0  0  0999 V2000
   11.7800    4.0695    0.0000 Cl  0  5  0  0  0  0  0  0  0  0  0  0
    7.9408    1.2965    0.0000 N   0  0  0  0  0  0  0  0  0  0  0  0
    7.1908   -0.0025    0.0000 N   0  3  0  0  0  0  0  0  0  0  0  0
    9.4080    0.9847    0.0000 N   0  0  0  0  0  0  0  0  0  0  0  0
    8.1945   -1.1172    0.0000 N   0  0  0  0  0  0  0  0  0  0  0  0
    9.5648   -0.5071    0.0000 C   0  0  0  0  0  0  0  0  0  0  0  0
   10.8639   -1.2571    0.0000 C   0  0  0  0  0  0  0  0  0  0  0  0
   12.1629   -0.5071    0.0000 C   0  0  0  0  0  0  0  0  0  0  0  0
   13.4619   -1.2571    0.0000 C   0  0  0  0  0  0  0  0  0  0  0  0
   13.4619   -2.7571    0.0000 C   0  0  0  0  0  0  0  0  0  0  0  0
   10.8639   -2.7571    0.0000 C   0  0  0  0  0  0  0  0  0  0  0  0
   12.1629   -3.5071    0.0000 C   0  0  0  0  0  0  0  0  0  0  0  0
    8.2124    3.8804    0.0000 C   0  0  0  0  0  0  0  0  0  0  0  0
    7.6023    5.2507    0.0000 C   0  0  0  0  0  0  0  0  0  0  0  0
    7.3307    2.6669    0.0000 C   0  0  0  0  0  0  0  0  0  0  0  0
    5.8389    2.8236    0.0000 C   0  0  0  0  0  0  0  0  0  0  0  0
    6.1105    5.4075    0.0000 C   0  0  0  0  0  0  0  0  0  0  0  0
    5.2288    4.1940    0.0000 C   0  0  0  0  0  0  0  0  0  0  0  0
    5.6990   -0.1593    0.0000 C   0  0  0  0  0  0  0  0  0  0  0  0
    4.8173    1.0542    0.0000 C   0  0  0  0  0  0  0  0  0  0  0  0
    5.0889   -1.5296    0.0000 C   0  0  0  0  0  0  0  0  0  0  0  0
    3.5971   -1.6864    0.0000 C   0  0  0  0  0  0  0  0  0  0  0  0
    3.3256    0.8974    0.0000 C   0  0  0  0  0  0  0  0  0  0  0  0
    2.7155   -0.4729    0.0000 C   0  0  0  0  0  0  0  0  0  0  0  0
  2  4  1  0  0  0  0
  2  3  1  0  0  0  0
  2 15  1  0  0  0  0
  3  5  2  0  0  0  0
  3 19  1  0  0  0  0
  4  6  2  0  0  0  0
  5  6  1  0  0  0  0
  6  7  1  0  0  0  0
  7 11  2  0  0  0  0
  7  8  1  0  0  0  0
  8  9  2  0  0  0  0
  9 10  1  0  0  0  0
 10 12  2  0  0  0  0
 11 12  1  0  0  0  0
 13 14  2  0  0  0  0
 13 15  1  0  0  0  0
 14 17  1  0  0  0  0
 15 16  2  0  0  0  0
 16 18  1  0  0  0  0
 17 18  2  0  0  0  0
 19 21  2  0  0  0  0
 19 20  1  0  0  0  0
 20 23  2  0  0  0  0
 21 22  1  0  0  0  0
 22 24  2  0  0  0  0
 23 24  1  0  0  0  0
M  CHG  2   1  -1   3   1
M  END
