49643
 OpenBabel03021519512D

 21 22  0  0  1  0  0  0  0  0999 V2000
    3.4826   10.5320    0.0000 O   0  0  0  0  0  0  0  0  0  0  0  0
    0.8845   10.5320    0.0000 C   0  0  3  0  0  0  0  0  0  0  0  0
    2.1835    9.7820    0.0000 C   0  0  0  0  0  0  0  0  0  0  0  0
   -0.4146    9.7820    0.0000 C   0  0  3  0  0  0  0  0  0  0  0  0
   -1.7136   10.5320    0.0000 C   0  0  3  0  0  0  0  0  0  0  0  0
   -3.0126    9.7820    0.0000 C   0  0  0  0  0  0  0  0  0  0  0  0
    2.1835    8.2820    0.0000 C   0  0  0  0  0  0  0  0  0  0  0  0
   -0.4146    8.2820    0.0000 C   0  0  3  0  0  0  0  0  0  0  0  0
   -3.0126    8.2820    0.0000 C   0  0  0  0  0  0  0  0  0  0  0  0
    0.8845    7.5320    0.0000 C   0  0  0  0  0  0  0  0  0  0  0  0
   -1.7136    7.5320    0.0000 C   0  0  3  0  0  0  0  0  0  0  0  0
   -2.6778    6.3829    0.0000 C   0  0  0  0  0  0  0  0  0  0  0  0
   -4.1550    6.6434    0.0000 O   0  0  0  0  0  0  0  0  0  0  0  0
   -2.1648    4.9734    0.0000 O   0  0  0  0  0  0  0  0  0  0  0  0
   -1.7136   12.0320    0.0000 C   0  0  0  0  0  0  0  0  0  0  0  0
   -3.0126   12.7820    0.0000 O   0  0  0  0  0  0  0  0  0  0  0  0
   -0.4146   12.7820    0.0000 C   0  0  0  0  0  0  0  0  0  0  0  0
   -0.7494    6.3829    0.0000 C   0  0  0  0  0  0  0  0  0  0  0  0
   -0.0797   11.6810    0.0000 O   0  0  0  0  0  0  0  0  0  0  0  0
    1.8487   11.6810    0.0000 C   0  0  0  0  0  0  0  0  0  0  0  0
    3.4826    7.5320    0.0000 C   0  0  0  0  0  0  0  0  0  0  0  0
  1  3  2  0  0  0  0
  2  3  1  0  0  0  0
  2  4  1  0  0  0  0
  2 19  1  0  0  0  0
  2 20  1  0  0  0  0
  3  7  1  0  0  0  0
  4  5  1  0  0  0  0
  4  8  1  0  0  0  0
  5  6  1  0  0  0  0
  5 15  1  0  0  0  0
  6  9  2  0  0  0  0
  7 10  2  0  0  0  0
  7 21  1  0  0  0  0
  8 11  1  0  0  0  0
  8 10  1  0  0  0  0
  9 11  1  0  0  0  0
 11 12  1  0  0  0  0
 11 18  1  0  0  0  0
 12 13  2  0  0  0  0
 12 14  1  0  0  0  0
 15 16  2  0  0  0  0
 15 17  1  0  0  0  0
M  END
