17355
 OpenBabel03021519512D

 26 27  0  0  0  0  0  0  0  0999 V2000
   -2.8726    5.5245    0.0000 N   0  0  0  0  0  0  0  0  0  0  0  0
   -1.5736    7.7745    0.0000 C   0  0  0  0  0  0  0  0  0  0  0  0
   -2.8726    7.0245    0.0000 C   0  0  0  0  0  0  0  0  0  0  0  0
   -0.2745    7.0245    0.0000 C   0  0  0  0  0  0  0  0  0  0  0  0
    1.0245    7.7745    0.0000 C   0  0  0  0  0  0  0  0  0  0  0  0
    1.0245    9.2745    0.0000 C   0  0  0  0  0  0  0  0  0  0  0  0
    2.3235   10.0245    0.0000 C   0  0  0  0  0  0  0  0  0  0  0  0
    3.6226    9.2745    0.0000 C   0  0  0  0  0  0  0  0  0  0  0  0
    2.3235    7.0245    0.0000 C   0  0  0  0  0  0  0  0  0  0  0  0
   -0.2745    5.5245    0.0000 C   0  0  0  0  0  0  0  0  0  0  0  0
    3.6226    7.7745    0.0000 C   0  0  0  0  0  0  0  0  0  0  0  0
   -1.5736    4.7745    0.0000 C   0  0  0  0  0  0  0  0  0  0  0  0
   -4.1716    7.7745    0.0000 C   0  0  0  0  0  0  0  0  0  0  0  0
   -1.5736    9.2745    0.0000 C   0  0  0  0  0  0  0  0  0  0  0  0
   -0.2745   10.0245    0.0000 O   0  0  0  0  0  0  0  0  0  0  0  0
   -2.8726   10.0245    0.0000 O   0  0  0  0  0  0  0  0  0  0  0  0
   -4.1717    9.2745    0.0000 C   0  0  0  0  0  0  0  0  0  0  0  0
   -5.4707   10.0245    0.0000 C   0  0  0  0  0  0  0  0  0  0  0  0
   -1.5736    3.2745    0.0000 C   0  0  0  0  0  0  0  0  0  0  0  0
    1.0245    4.7745    0.0000 C   0  0  0  0  0  0  0  0  0  0  0  0
    2.3235    5.5245    0.0000 O   0  0  0  0  0  0  0  0  0  0  0  0
    1.0245    3.2745    0.0000 O   0  0  0  0  0  0  0  0  0  0  0  0
   -0.2745    2.5245    0.0000 C   0  0  0  0  0  0  0  0  0  0  0  0
   -0.2745    1.0245    0.0000 C   0  0  0  0  0  0  0  0  0  0  0  0
    4.9216   10.0245    0.0000 O   0  0  0  0  0  0  0  0  0  0  0  0
    4.9216   11.5245    0.0000 C   0  0  0  0  0  0  0  0  0  0  0  0
  1  3  2  0  0  0  0
  1 12  1  0  0  0  0
  2  4  2  0  0  0  0
  2  3  1  0  0  0  0
  2 14  1  0  0  0  0
  3 13  1  0  0  0  0
  4  5  1  0  0  0  0
  4 10  1  0  0  0  0
  5  9  2  0  0  0  0
  5  6  1  0  0  0  0
  6  7  2  0  0  0  0
  7  8  1  0  0  0  0
  8 11  2  0  0  0  0
  8 25  1  0  0  0  0
  9 11  1  0  0  0  0
 10 12  2  0  0  0  0
 10 20  1  0  0  0  0
 12 19  1  0  0  0  0
 14 15  2  0  0  0  0
 14 16  1  0  0  0  0
 16 17  1  0  0  0  0
 17 18  1  0  0  0  0
 20 21  2  0  0  0  0
 20 22  1  0  0  0  0
 22 23  1  0  0  0  0
 23 24  1  0  0  0  0
 25 26  1  0  0  0  0
M  END
