164676
 OpenBabel03021519512D

 29 30  0  0  0  0  0  0  0  0999 V2000
   11.6328   -1.8174    0.0000 N   0  0  0  0  0  0  0  0  0  0  0  0
   12.6365   -0.7027    0.0000 H   0  0  0  0  0  0  0  0  0  0  0  0
    8.7741    0.7068    0.0000 N   0  0  0  0  0  0  0  0  0  0  0  0
    9.5309   -3.0310    0.0000 C   0  0  0  0  0  0  0  0  0  0  0  0
   10.1410   -1.6607    0.0000 C   0  0  0  0  0  0  0  0  0  0  0  0
   10.6456   -4.0347    0.0000 C   0  0  0  0  0  0  0  0  0  0  0  0
   11.9447   -3.2847    0.0000 C   0  0  0  0  0  0  0  0  0  0  0  0
   12.7391    3.0743    0.0000 C   0  0  0  0  0  0  0  0  0  0  0  0
   14.0381    2.3243    0.0000 C   0  0  0  0  0  0  0  0  0  0  0  0
   11.4400    2.3243    0.0000 C   0  0  0  0  0  0  0  0  0  0  0  0
   14.0381    0.8243    0.0000 C   0  0  0  0  0  0  0  0  0  0  0  0
   11.4400    0.8243    0.0000 C   0  0  0  0  0  0  0  0  0  0  0  0
   12.7391    0.0743    0.0000 C   0  0  0  0  0  0  0  0  0  0  0  0
   10.4888   -5.5265    0.0000 C   0  0  0  0  0  0  0  0  0  0  0  0
   13.3150   -3.8948    0.0000 C   0  0  0  0  0  0  0  0  0  0  0  0
    8.0637   -3.3429    0.0000 C   0  0  0  0  0  0  0  0  0  0  0  0
    6.5965   -3.6547    0.0000 N   0  0  0  0  0  0  0  0  0  0  0  0
    7.2741    0.7068    0.0000 C   0  0  0  0  0  0  0  0  0  0  0  0
   10.1410    3.0743    0.0000 S   0  0  0  0  0  0  0  0  0  0  0  0
    8.8419    3.8243    0.0000 O   0  0  0  0  0  0  0  0  0  0  0  0
   10.8910    4.3734    0.0000 O   0  0  0  0  0  0  0  0  0  0  0  0
    6.5241    2.0059    0.0000 C   0  0  0  0  0  0  0  0  0  0  0  0
    5.0241    2.0058    0.0000 C   0  0  0  0  0  0  0  0  0  0  0  0
    4.2741    3.3049    0.0000 C   0  0  0  0  0  0  0  0  0  0  0  0
    2.7741    3.3049    0.0000 O   0  0  0  0  0  0  0  0  0  0  0  0
    5.0241    4.6039    0.0000 O   0  0  0  0  0  0  0  0  0  0  0  0
    4.2741    5.9030    0.0000 C   0  0  0  0  0  0  0  0  0  0  0  0
    5.0241    7.2020    0.0000 C   0  0  0  0  0  0  0  0  0  0  0  0
   15.3371    0.0743    0.0000 C   0  0  0  0  0  0  0  0  0  0  0  0
  1  5  1  0  0  0  0
  1  7  1  0  0  0  0
  1  2  1  0  0  0  0
  3  5  1  0  0  0  0
  3 18  1  0  0  0  0
  3 19  1  0  0  0  0
  4  5  2  0  0  0  0
  4  6  1  0  0  0  0
  4 16  1  0  0  0  0
  6  7  2  0  0  0  0
  6 14  1  0  0  0  0
  7 15  1  0  0  0  0
  8  9  2  0  0  0  0
  8 10  1  0  0  0  0
  9 11  1  0  0  0  0
 10 12  2  0  0  0  0
 10 19  1  0  0  0  0
 11 13  2  0  0  0  0
 11 29  1  0  0  0  0
 12 13  1  0  0  0  0
 16 17  3  0  0  0  0
 18 22  1  0  0  0  0
 19 20  2  0  0  0  0
 19 21  2  0  0  0  0
 22 23  1  0  0  0  0
 23 24  1  0  0  0  0
 24 25  2  0  0  0  0
 24 26  1  0  0  0  0
 26 27  1  0  0  0  0
 27 28  1  0  0  0  0
M  END
