211490
 OpenBabel03021519512D

 35 39  0  0  1  0  0  0  0  0999 V2000
  -11.0352    4.1134    0.0000 O   0  0  0  0  0  0  0  0  0  0  0  0
  -11.0352   -0.3866    0.0000 O   0  0  0  0  0  0  0  0  0  0  0  0
   -8.4371   -0.3865    0.0000 O   0  0  0  0  0  0  0  0  0  0  0  0
   -9.7362    9.3635    0.0000 C   0  0  0  0  0  0  0  0  0  0  0  0
   -8.4371    8.6135    0.0000 C   0  0  0  0  0  0  0  0  0  0  0  0
  -11.0352    8.6134    0.0000 C   0  0  0  0  0  0  0  0  0  0  0  0
  -11.0352    7.1134    0.0000 C   0  0  0  0  0  0  0  0  0  0  0  0
   -8.4371    7.1135    0.0000 C   0  0  0  0  0  0  0  0  0  0  0  0
   -9.7362    6.3635    0.0000 C   0  0  0  0  0  0  0  0  0  0  0  0
   -9.7362    4.8634    0.0000 C   0  0  0  0  0  0  0  0  0  0  0  0
   -8.4371    4.1135    0.0000 C   0  0  0  0  0  0  0  0  0  0  0  0
   -8.4371    2.6135    0.0000 C   0  0  3  0  0  0  0  0  0  0  0  0
   -9.7362    1.8634    0.0000 C   0  0  0  0  0  0  0  0  0  0  0  0
  -11.0352    2.6134    0.0000 C   0  0  0  0  0  0  0  0  0  0  0  0
  -12.3342    1.8634    0.0000 C   0  0  0  0  0  0  0  0  0  0  0  0
  -13.6333    2.6134    0.0000 C   0  0  0  0  0  0  0  0  0  0  0  0
  -14.9323    1.8634    0.0000 C   0  0  0  0  0  0  0  0  0  0  0  0
   -7.1381    1.8635    0.0000 C   0  0  0  0  0  0  0  0  0  0  0  0
   -5.8391    2.6135    0.0000 C   0  0  0  0  0  0  0  0  0  0  0  0
   -4.5400    1.8635    0.0000 C   0  0  0  0  0  0  0  0  0  0  0  0
   -7.1381    0.3635    0.0000 C   0  0  0  0  0  0  0  0  0  0  0  0
   -4.5400    0.3635    0.0000 C   0  0  0  0  0  0  0  0  0  0  0  0
  -14.9323    0.3634    0.0000 C   0  0  0  0  0  0  0  0  0  0  0  0
  -12.3342    0.3634    0.0000 C   0  0  0  0  0  0  0  0  0  0  0  0
   -9.7362    0.3634    0.0000 C   0  0  0  0  0  0  0  0  0  0  0  0
   -5.8390   -0.3865    0.0000 C   0  0  0  0  0  0  0  0  0  0  0  0
  -13.6333   -0.3866    0.0000 C   0  0  0  0  0  0  0  0  0  0  0  0
   -9.7362   10.8635    0.0000 O   0  0  0  0  0  0  0  0  0  0  0  0
  -11.0352   11.6134    0.0000 C   0  0  0  0  0  0  0  0  0  0  0  0
   -7.1381    9.3635    0.0000 O   0  0  0  0  0  0  0  0  0  0  0  0
   -5.8391    8.6135    0.0000 C   0  0  0  0  0  0  0  0  0  0  0  0
   -3.2410    2.6135    0.0000 O   0  0  0  0  0  0  0  0  0  0  0  0
   -1.9419    1.8635    0.0000 C   0  0  0  0  0  0  0  0  0  0  0  0
   -3.2410   -0.3865    0.0000 O   0  0  0  0  0  0  0  0  0  0  0  0
   -1.9419    0.3635    0.0000 C   0  0  0  0  0  0  0  0  0  0  0  0
  1 10  1  0  0  0  0
  1 14  1  0  0  0  0
  2 24  1  0  0  0  0
  2 25  1  0  0  0  0
  3 25  2  0  0  0  0
  4  5  2  0  0  0  0
  4  6  1  0  0  0  0
  4 28  1  0  0  0  0
  5  8  1  0  0  0  0
  5 30  1  0  0  0  0
  6  7  2  0  0  0  0
  7  9  1  0  0  0  0
  8  9  2  0  0  0  0
  9 10  1  0  0  0  0
 10 11  2  0  0  0  0
 11 12  1  0  0  0  0
 12 13  1  0  0  0  0
 12 18  1  0  0  0  0
 13 14  2  0  0  0  0
 13 25  1  0  0  0  0
 14 15  1  0  0  0  0
 15 24  2  0  0  0  0
 15 16  1  0  0  0  0
 16 17  2  0  0  0  0
 17 23  1  0  0  0  0
 18 19  2  0  0  0  0
 18 21  1  0  0  0  0
 19 20  1  0  0  0  0
 20 22  2  0  0  0  0
 20 32  1  0  0  0  0
 21 26  2  0  0  0  0
 22 26  1  0  0  0  0
 22 34  1  0  0  0  0
 23 27  2  0  0  0  0
 24 27  1  0  0  0  0
 28 29  1  0  0  0  0
 30 31  1  0  0  0  0
 32 33  1  0  0  0  0
 34 35  1  0  0  0  0
M  END
