149312
 OpenBabel03021519512D

 20 22  0  0  0  0  0  0  0  0999 V2000
   -7.2452   -0.7500    0.0000 O   0  5  0  0  0  0  0  0  0  0  0  0
   -7.2452   -2.2500    0.0000 N   0  3  0  0  0  0  0  0  0  0  0  0
   -7.2452   -5.2500    0.0000 N   0  3  0  0  0  0  0  0  0  0  0  0
   -7.2452   -6.7500    0.0000 O   0  5  0  0  0  0  0  0  0  0  0  0
   -9.8433   -2.2500    0.0000 C   0  0  0  0  0  0  0  0  0  0  0  0
   -8.5442   -3.0000    0.0000 C   0  0  0  0  0  0  0  0  0  0  0  0
  -11.1423   -3.0000    0.0000 C   0  0  0  0  0  0  0  0  0  0  0  0
   -8.5442   -4.5000    0.0000 C   0  0  0  0  0  0  0  0  0  0  0  0
  -11.1423   -4.5000    0.0000 C   0  0  0  0  0  0  0  0  0  0  0  0
   -9.8433   -5.2500    0.0000 C   0  0  0  0  0  0  0  0  0  0  0  0
   -5.9462   -3.0000    0.0000 C   0  0  0  0  0  0  0  0  0  0  0  0
   -5.9461   -4.5000    0.0000 C   0  0  0  0  0  0  0  0  0  0  0  0
   -3.3481   -3.0000    0.0000 C   0  0  0  0  0  0  0  0  0  0  0  0
   -2.0490   -2.2500    0.0000 C   0  0  0  0  0  0  0  0  0  0  0  0
   -3.3481   -4.5000    0.0000 C   0  0  0  0  0  0  0  0  0  0  0  0
   -0.7500   -3.0000    0.0000 C   0  0  0  0  0  0  0  0  0  0  0  0
   -2.0490   -5.2500    0.0000 C   0  0  0  0  0  0  0  0  0  0  0  0
   -0.7500   -4.5000    0.0000 C   0  0  0  0  0  0  0  0  0  0  0  0
   -4.6471   -2.2500    0.0000 C   0  0  0  0  0  0  0  0  0  0  0  0
   -4.6471   -5.2500    0.0000 C   0  0  0  0  0  0  0  0  0  0  0  0
  1  2  1  0  0  0  0
  2 11  2  0  0  0  0
  2  6  1  0  0  0  0
  3 12  2  0  0  0  0
  3  4  1  0  0  0  0
  3  8  1  0  0  0  0
  5  7  2  0  0  0  0
  5  6  1  0  0  0  0
  6  8  2  0  0  0  0
  7  9  1  0  0  0  0
  8 10  1  0  0  0  0
  9 10  2  0  0  0  0
 11 12  1  0  0  0  0
 11 19  1  0  0  0  0
 12 20  1  0  0  0  0
 13 14  2  0  0  0  0
 13 15  1  0  0  0  0
 14 16  1  0  0  0  0
 15 17  2  0  0  0  0
 15 20  1  0  0  0  0
 16 18  2  0  0  0  0
 17 18  1  0  0  0  0
M  CHG  4   1  -1   2   1   3   1   4  -1
M  END
