371178
 OpenBabel03021519512D

 38 41  0  0  1  0  0  0  0  0999 V2000
   -3.4065    4.3854    0.0000 H   0  0  0  0  0  0  0  0  0  0  0  0
   -1.5164    6.2756    0.0000 C   0  0  3  0  0  0  0  0  0  0  0  0
   -1.9800    4.8490    0.0000 N   0  0  0  0  0  0  0  0  0  0  0  0
   -0.7664    3.9673    0.0000 C   0  0  0  0  0  0  0  0  0  0  0  0
   -0.7664    2.4673    0.0000 O   0  0  0  0  0  0  0  0  0  0  0  0
    0.8652    7.4891    0.0000 O   0  0  0  0  0  0  0  0  0  0  0  0
    0.4471    4.8490    0.0000 N   0  0  0  0  0  0  0  0  0  0  0  0
   -0.0164    6.2756    0.0000 C   0  0  0  0  0  0  0  0  0  0  0  0
    4.2826    5.3587    0.0000 C   0  0  0  0  0  0  0  0  0  0  0  0
    4.8445    3.9679    0.0000 C   0  0  0  0  0  0  0  0  0  0  0  0
    5.2061    6.5407    0.0000 C   0  0  0  0  0  0  0  0  0  0  0  0
    6.3299    3.7591    0.0000 C   0  0  0  0  0  0  0  0  0  0  0  0
    6.6915    6.3319    0.0000 C   0  0  0  0  0  0  0  0  0  0  0  0
    7.2534    4.9412    0.0000 C   0  0  0  0  0  0  0  0  0  0  0  0
    8.7388    4.7324    0.0000 C   0  0  0  0  0  0  0  0  0  0  0  0
    9.3007    3.3416    0.0000 O   0  0  0  0  0  0  0  0  0  0  0  0
   11.6417    7.8453    0.0000 N   0  0  0  0  0  0  0  0  0  0  0  0
   -2.9837    6.5874    0.0000 C   0  0  0  0  0  0  0  0  0  0  0  0
   -3.9874    5.4727    0.0000 C   0  0  0  0  0  0  0  0  0  0  0  0
   -5.4546    5.7846    0.0000 C   0  0  0  0  0  0  0  0  0  0  0  0
   -5.9181    7.2112    0.0000 C   0  0  0  0  0  0  0  0  0  0  0  0
   -4.9144    8.3259    0.0000 C   0  0  0  0  0  0  0  0  0  0  0  0
   -3.4472    8.0140    0.0000 C   0  0  0  0  0  0  0  0  0  0  0  0
   -1.3596    7.7673    0.0000 C   0  0  0  0  0  0  0  0  0  0  0  0
   -2.5732    8.6490    0.0000 C   0  0  0  0  0  0  0  0  0  0  0  0
   -2.4164   10.1408    0.0000 C   0  0  0  0  0  0  0  0  0  0  0  0
   -1.0461   10.7509    0.0000 C   0  0  0  0  0  0  0  0  0  0  0  0
    0.1675    9.8692    0.0000 C   0  0  0  0  0  0  0  0  0  0  0  0
    0.0107    8.3774    0.0000 C   0  0  0  0  0  0  0  0  0  0  0  0
    1.8737    4.3854    0.0000 C   0  0  0  0  0  0  0  0  0  0  0  0
    2.7972    5.5675    0.0000 N   0  0  0  0  0  0  0  0  0  0  0  0
    9.6623    5.9144    0.0000 N   0  0  0  0  0  0  0  0  0  0  0  0
   11.0889    5.4509    0.0000 C   0  0  0  0  0  0  0  0  0  0  0  0
   12.2036    6.4546    0.0000 C   0  0  0  0  0  0  0  0  0  0  0  0
   10.1563    8.0541    0.0000 C   0  0  0  0  0  0  0  0  0  0  0  0
    9.2328    6.8721    0.0000 C   0  0  0  0  0  0  0  0  0  0  0  0
   12.5652    9.0274    0.0000 C   0  0  0  0  0  0  0  0  0  0  0  0
   14.0506    8.8186    0.0000 C   0  0  0  0  0  0  0  0  0  0  0  0
  1  3  1  0  0  0  0
  2  8  1  0  0  0  0
  2  3  1  0  0  0  0
  2 18  1  0  0  0  0
  2 24  1  0  0  0  0
  3  4  1  0  0  0  0
  4  7  1  0  0  0  0
  4  5  2  0  0  0  0
  6  8  2  0  0  0  0
  7  8  1  0  0  0  0
  7 30  1  0  0  0  0
  9 10  2  0  0  0  0
  9 11  1  0  0  0  0
  9 31  1  0  0  0  0
 10 12  1  0  0  0  0
 11 13  2  0  0  0  0
 12 14  2  0  0  0  0
 13 14  1  0  0  0  0
 14 15  1  0  0  0  0
 15 16  2  0  0  0  0
 15 32  1  0  0  0  0
 17 34  1  0  0  0  0
 17 35  1  0  0  0  0
 17 37  1  0  0  0  0
 18 19  2  0  0  0  0
 18 23  1  0  0  0  0
 19 20  1  0  0  0  0
 20 21  2  0  0  0  0
 21 22  1  0  0  0  0
 22 23  2  0  0  0  0
 24 25  2  0  0  0  0
 24 29  1  0  0  0  0
 25 26  1  0  0  0  0
 26 27  2  0  0  0  0
 27 28  1  0  0  0  0
 28 29  2  0  0  0  0
 30 31  1  0  0  0  0
 32 33  1  0  0  0  0
 33 34  1  0  0  0  0
 35 36  1  0  0  0  0
 37 38  1  0  0  0  0
M  END
