270063
 OpenBabel03021519512D

 21 22  0  0  0  0  0  0  0  0999 V2000
   -1.7745    6.0736    0.0000 C   0  0  0  0  0  0  0  0  0  0  0  0
   -1.7745    4.5736    0.0000 C   0  0  0  0  0  0  0  0  0  0  0  0
   -0.4755    6.8236    0.0000 C   0  0  0  0  0  0  0  0  0  0  0  0
   -0.4755    3.8235    0.0000 C   0  0  0  0  0  0  0  0  0  0  0  0
    0.8236    6.0736    0.0000 C   0  0  0  0  0  0  0  0  0  0  0  0
    0.8236    4.5736    0.0000 C   0  0  0  0  0  0  0  0  0  0  0  0
    2.1226    6.8236    0.0000 C   0  0  0  0  0  0  0  0  0  0  0  0
    2.1226    3.8236    0.0000 C   0  0  0  0  0  0  0  0  0  0  0  0
    2.1226    2.3236    0.0000 Cl  0  0  0  0  0  0  0  0  0  0  0  0
    3.4216    6.0736    0.0000 C   0  0  0  0  0  0  0  0  0  0  0  0
    3.4216    4.5736    0.0000 C   0  0  0  0  0  0  0  0  0  0  0  0
    4.7207    6.8236    0.0000 C   0  0  0  0  0  0  0  0  0  0  0  0
    4.7207    8.3236    0.0000 O   0  0  0  0  0  0  0  0  0  0  0  0
    7.3187    6.8236    0.0000 C   0  0  0  0  0  0  0  0  0  0  0  0
    2.1226    8.3236    0.0000 O   0  0  0  0  0  0  0  0  0  0  0  0
    6.0197    6.0736    0.0000 N   0  0  0  0  0  0  0  0  0  0  0  0
    8.0688    5.5245    0.0000 C   0  0  0  0  0  0  0  0  0  0  0  0
    6.5687    8.1226    0.0000 C   0  0  0  0  0  0  0  0  0  0  0  0
    8.6178    7.5736    0.0000 C   0  0  0  0  0  0  0  0  0  0  0  0
    8.6178    9.0736    0.0000 O   0  0  0  0  0  0  0  0  0  0  0  0
    9.9168    6.8236    0.0000 O   0  0  0  0  0  0  0  0  0  0  0  0
  1  3  2  0  0  0  0
  1  2  1  0  0  0  0
  2  4  2  0  0  0  0
  3  5  1  0  0  0  0
  4  6  1  0  0  0  0
  5  7  1  0  0  0  0
  5  6  2  0  0  0  0
  6  8  1  0  0  0  0
  7 10  2  0  0  0  0
  7 15  1  0  0  0  0
  8 11  2  0  0  0  0
  8  9  1  0  0  0  0
 10 12  1  0  0  0  0
 10 11  1  0  0  0  0
 12 13  2  0  0  0  0
 12 16  1  0  0  0  0
 14 16  1  0  0  0  0
 14 17  1  0  0  0  0
 14 18  1  0  0  0  0
 14 19  1  0  0  0  0
 19 20  2  0  0  0  0
 19 21  1  0  0  0  0
M  END
