326422
 OpenBabel03021519512D

 21 22  0  0  0  0  0  0  0  0999 V2000
   -5.2721   -0.7604    0.0000 O   0  0  0  0  0  0  0  0  0  0  0  0
   -3.8141   -1.1128    0.0000 C   0  0  0  0  0  0  0  0  0  0  0  0
   -2.7799   -0.0264    0.0000 C   0  0  0  0  0  0  0  0  0  0  0  0
   -3.3903   -2.5517    0.0000 C   0  0  0  0  0  0  0  0  0  0  0  0
   -1.3219   -0.3788    0.0000 C   0  0  0  0  0  0  0  0  0  0  0  0
   -1.9323   -2.9041    0.0000 C   0  0  0  0  0  0  0  0  0  0  0  0
   -0.8981   -1.8177    0.0000 C   0  0  0  0  0  0  0  0  0  0  0  0
    1.5941   -1.0837    0.0000 C   0  0  0  0  0  0  0  0  0  0  0  0
    1.1703    0.3552    0.0000 O   0  0  0  0  0  0  0  0  0  0  0  0
    4.0863   -0.3496    0.0000 C   0  0  0  0  0  0  0  0  0  0  0  0
    5.5732   -0.5477    0.0000 S   0  0  0  0  0  0  0  0  0  0  0  0
    3.8153    1.1257    0.0000 N   0  0  0  0  0  0  0  0  0  0  0  0
    5.1346    1.8394    0.0000 N   0  0  0  0  0  0  0  0  0  0  0  0
    6.2211    0.8051    0.0000 C   0  0  0  0  0  0  0  0  0  0  0  0
   -5.6959    0.6785    0.0000 C   0  0  0  0  0  0  0  0  0  0  0  0
   -4.6617    1.7650    0.0000 C   0  0  0  0  0  0  0  0  0  0  0  0
   -5.0855    3.2038    0.0000 C   0  0  0  0  0  0  0  0  0  0  0  0
   -4.0513    4.2903    0.0000 C   0  0  0  0  0  0  0  0  0  0  0  0
    0.5599   -2.1701    0.0000 N   0  0  0  0  0  0  0  0  0  0  0  0
    3.0521   -1.4361    0.0000 N   0  0  0  0  0  0  0  0  0  0  0  0
    7.6964    1.0762    0.0000 C   0  0  0  0  0  0  0  0  0  0  0  0
  1  2  1  0  0  0  0
  1 15  1  0  0  0  0
  2  3  2  0  0  0  0
  2  4  1  0  0  0  0
  3  5  1  0  0  0  0
  4  6  2  0  0  0  0
  5  7  2  0  0  0  0
  6  7  1  0  0  0  0
  7 19  1  0  0  0  0
  8  9  2  0  0  0  0
  8 19  1  0  0  0  0
  8 20  1  0  0  0  0
 10 12  2  0  0  0  0
 10 11  1  0  0  0  0
 10 20  1  0  0  0  0
 11 14  1  0  0  0  0
 12 13  1  0  0  0  0
 13 14  2  0  0  0  0
 14 21  1  0  0  0  0
 15 16  1  0  0  0  0
 16 17  1  0  0  0  0
 17 18  1  0  0  0  0
M  END
