358311
 OpenBabel03021519512D

 21 22  0  0  0  0  0  0  0  0999 V2000
    5.5711    2.1495    0.0000 O   0  0  0  0  0  0  0  0  0  0  0  0
    5.5712    0.6495    0.0000 C   0  0  0  0  0  0  0  0  0  0  0  0
    6.8702   -1.6005    0.0000 C   0  0  0  0  0  0  0  0  0  0  0  0
    6.8702   -0.1005    0.0000 C   0  0  0  0  0  0  0  0  0  0  0  0
    8.1692    0.6496    0.0000 C   0  0  0  0  0  0  0  0  0  0  0  0
    8.1692   -2.3504    0.0000 N   0  0  0  0  0  0  0  0  0  0  0  0
    8.1692    2.1496    0.0000 O   0  0  0  0  0  0  0  0  0  0  0  0
    9.4683   -0.1004    0.0000 N   0  0  0  0  0  0  0  0  0  0  0  0
    9.4683   -1.6004    0.0000 C   0  0  0  0  0  0  0  0  0  0  0  0
   10.7673   -2.3504    0.0000 O   0  0  0  0  0  0  0  0  0  0  0  0
   10.7673    0.6496    0.0000 H   0  0  0  0  0  0  0  0  0  0  0  0
    1.6740   -0.1005    0.0000 C   0  0  0  0  0  0  0  0  0  0  0  0
    1.6740    1.3995    0.0000 C   0  0  0  0  0  0  0  0  0  0  0  0
    2.9731    2.1495    0.0000 C   0  0  0  0  0  0  0  0  0  0  0  0
    4.2721    1.3995    0.0000 C   0  0  0  0  0  0  0  0  0  0  0  0
    4.2721   -0.1005    0.0000 C   0  0  0  0  0  0  0  0  0  0  0  0
    2.9731   -0.8505    0.0000 C   0  0  0  0  0  0  0  0  0  0  0  0
    2.9731    0.6495    0.0000 C   0  0  0  0  0  0  0  0  0  0  0  0
    4.2721   -0.1005    0.0000 C   0  0  0  0  0  0  0  0  0  0  0  0
    5.5712   -2.3505    0.0000 N   0  0  0  0  0  0  0  0  0  0  0  0
    8.1692   -3.8504    0.0000 C   0  0  0  0  0  0  0  0  0  0  0  0
  1  2  2  0  0  0  0
  2  4  1  0  0  0  0
  2 19  1  0  0  0  0
  3  4  2  0  0  0  0
  3  6  1  0  0  0  0
  3 20  1  0  0  0  0
  4  5  1  0  0  0  0
  5  7  2  0  0  0  0
  5  8  1  0  0  0  0
  6  9  1  0  0  0  0
  6 21  1  0  0  0  0
  8 11  1  0  0  0  0
  8  9  1  0  0  0  0
  9 10  2  0  0  0  0
 12 13  2  0  0  0  0
 12 17  1  0  0  0  0
 12 18  1  0  0  0  0
 13 14  1  0  0  0  0
 14 15  2  0  0  0  0
 15 16  1  0  0  0  0
 16 17  2  0  0  0  0
 18 19  2  0  0  0  0
M  END
