1751
 OpenBabel03021519512D

 15 15  0  0  1  0  0  0  0  0999 V2000
   -5.9462   -1.5000    0.0000 O   0  0  0  0  0  0  0  0  0  0  0  0
   -5.9461   -3.0000    0.0000 C   0  0  3  0  0  0  0  0  0  0  0  0
   -4.6471   -3.7500    0.0000 C   0  0  3  0  0  0  0  0  0  0  0  0
   -3.3481   -3.0000    0.0000 C   0  0  3  0  0  0  0  0  0  0  0  0
   -3.3481   -1.5000    0.0000 O   0  0  0  0  0  0  0  0  0  0  0  0
   -4.6471   -0.7500    0.0000 C   0  0  0  0  0  0  0  0  0  0  0  0
   -4.6471   -5.2500    0.0000 O   0  0  0  0  0  0  0  0  0  0  0  0
   -7.2452   -3.7500    0.0000 C   0  0  3  0  0  0  0  0  0  0  0  0
   -8.5442   -3.0000    0.0000 O   0  0  0  0  0  0  0  0  0  0  0  0
   -7.2452   -5.2500    0.0000 C   0  0  0  0  0  0  0  0  0  0  0  0
   -5.9461   -6.0000    0.0000 O   0  0  0  0  0  0  0  0  0  0  0  0
   -2.0490   -3.7500    0.0000 C   0  0  3  0  0  0  0  0  0  0  0  0
   -0.7500   -3.0000    0.0000 O   0  0  0  0  0  0  0  0  0  0  0  0
   -2.0490   -5.2500    0.0000 C   0  0  0  0  0  0  0  0  0  0  0  0
   -3.3481   -6.0000    0.0000 O   0  0  0  0  0  0  0  0  0  0  0  0
  1  2  1  0  0  0  0
  1  6  1  0  0  0  0
  2  3  1  0  0  0  0
  2  8  1  0  0  0  0
  3  4  1  0  0  0  0
  3  7  1  0  0  0  0
  4  5  1  0  0  0  0
  4 12  1  0  0  0  0
  5  6  1  0  0  0  0
  8  9  1  0  0  0  0
  8 10  1  0  0  0  0
 10 11  1  0  0  0  0
 12 13  1  0  0  0  0
 12 14  1  0  0  0  0
 14 15  1  0  0  0  0
M  END
