327693
 OpenBabel03021519512D

 16 16  0  0  0  0  0  0  0  0999 V2000
  -11.8210    3.3458    0.0000 H   0  0  0  0  0  0  0  0  0  0  0  0
  -11.6642    1.8540    0.0000 S   0  0  0  0  0  0  0  0  0  0  0  0
   -8.9948    1.9939    0.0000 N   0  0  0  0  0  0  0  0  0  0  0  0
  -10.2939    1.2439    0.0000 C   0  0  0  0  0  0  0  0  0  0  0  0
   -9.9820   -0.2233    0.0000 S   0  0  0  0  0  0  0  0  0  0  0  0
   -8.4902   -0.3801    0.0000 C   0  0  0  0  0  0  0  0  0  0  0  0
   -7.8801    0.9902    0.0000 N   0  0  0  0  0  0  0  0  0  0  0  0
   -6.2402   -1.6791    0.0000 C   0  0  0  0  0  0  0  0  0  0  0  0
   -5.4902   -0.3801    0.0000 O   0  0  0  0  0  0  0  0  0  0  0  0
   -3.2402   -1.6791    0.0000 C   0  0  0  0  0  0  0  0  0  0  0  0
   -3.9902   -0.3801    0.0000 O   0  0  0  0  0  0  0  0  0  0  0  0
   -7.7402   -1.6791    0.0000 N   0  0  0  0  0  0  0  0  0  0  0  0
   -5.4902   -2.9782    0.0000 N   0  0  0  0  0  0  0  0  0  0  0  0
   -3.9902   -2.9782    0.0000 C   0  0  0  0  0  0  0  0  0  0  0  0
   -1.7402   -1.6791    0.0000 N   0  0  0  0  0  0  0  0  0  0  0  0
   -0.9902   -0.3801    0.0000 N   0  0  0  0  0  0  0  0  0  0  0  0
  1  2  1  0  0  0  0
  2  4  1  0  0  0  0
  3  7  1  0  0  0  0
  3  4  2  0  0  0  0
  4  5  1  0  0  0  0
  5  6  1  0  0  0  0
  6  7  2  0  0  0  0
  6 12  1  0  0  0  0
  8  9  2  0  0  0  0
  8 12  1  0  0  0  0
  8 13  1  0  0  0  0
 10 11  2  0  0  0  0
 10 14  1  0  0  0  0
 10 15  1  0  0  0  0
 13 14  1  0  0  0  0
 15 16  1  0  0  0  0
M  END
