366289
 OpenBabel03021519512D

 18 20  0  0  0  0  0  0  0  0999 V2000
   -7.2452    3.0000    0.0000 C   0  0  0  0  0  0  0  0  0  0  0  0
   -7.2452    1.5000    0.0000 C   0  0  0  0  0  0  0  0  0  0  0  0
   -6.1471    7.5000    0.0000 Cl  0  0  0  0  0  0  0  0  0  0  0  0
   -5.9462    5.2500    0.0000 N   0  0  0  0  0  0  0  0  0  0  0  0
   -5.9462    3.7500    0.0000 C   0  0  0  0  0  0  0  0  0  0  0  0
   -5.9462    0.7500    0.0000 C   0  0  0  0  0  0  0  0  0  0  0  0
   -4.6471    6.0000    0.0000 C   0  0  0  0  0  0  0  0  0  0  0  0
   -4.6471    7.5000    0.0000 C   0  0  0  0  0  0  0  0  0  0  0  0
   -4.6471    3.0000    0.0000 N   0  0  0  0  0  0  0  0  0  0  0  0
   -4.6471    1.5000    0.0000 C   0  0  0  0  0  0  0  0  0  0  0  0
   -4.6471    9.0000    0.0000 Cl  0  0  0  0  0  0  0  0  0  0  0  0
   -3.3481    5.2500    0.0000 N   0  0  0  0  0  0  0  0  0  0  0  0
   -3.3481    3.7500    0.0000 C   0  0  0  0  0  0  0  0  0  0  0  0
   -3.3481    0.7500    0.0000 N   0  0  0  0  0  0  0  0  0  0  0  0
   -3.1471    7.5000    0.0000 Cl  0  0  0  0  0  0  0  0  0  0  0  0
   -2.0490    1.5000    0.0000 C   0  0  0  0  0  0  0  0  0  0  0  0
   -2.0490    3.0000    0.0000 N   0  0  0  0  0  0  0  0  0  0  0  0
   -0.7500    0.7500    0.0000 C   0  0  0  0  0  0  0  0  0  0  0  0
  1  5  1  0  0  0  0
  1  2  2  0  0  0  0
  2  6  1  0  0  0  0
  3  8  1  0  0  0  0
  4  7  1  0  0  0  0
  4  5  2  0  0  0  0
  5  9  1  0  0  0  0
  6 10  2  0  0  0  0
  7  8  1  0  0  0  0
  7 12  2  0  0  0  0
  8 11  1  0  0  0  0
  8 15  1  0  0  0  0
  9 13  1  0  0  0  0
  9 10  1  0  0  0  0
 10 14  1  0  0  0  0
 12 13  1  0  0  0  0
 13 17  2  0  0  0  0
 14 16  2  0  0  0  0
 16 17  1  0  0  0  0
 16 18  1  0  0  0  0
M  END
