321517
 OpenBabel03021519512D

 20 20  0  0  0  0  0  0  0  0999 V2000
    3.7585    7.6914    0.0000 N   0  0  0  0  0  0  0  0  0  0  0  0
    4.9076    6.7272    0.0000 C   0  0  0  0  0  0  0  0  0  0  0  0
    6.3171    7.2403    0.0000 S   0  0  0  0  0  0  0  0  0  0  0  0
    4.6471    5.2500    0.0000 O   0  0  0  0  0  0  0  0  0  0  0  0
    5.9461    4.5000    0.0000 C   0  0  0  0  0  0  0  0  0  0  0  0
    5.9462    3.0000    0.0000 N   0  0  0  0  0  0  0  0  0  0  0  0
    7.2452    5.2500    0.0000 C   0  0  0  0  0  0  0  0  0  0  0  0
    7.2452    2.2500    0.0000 C   0  0  0  0  0  0  0  0  0  0  0  0
    7.2452    0.7500    0.0000 S   0  0  0  0  0  0  0  0  0  0  0  0
    8.5442    3.0000    0.0000 N   0  0  0  0  0  0  0  0  0  0  0  0
    8.5442    4.5000    0.0000 C   0  0  0  0  0  0  0  0  0  0  0  0
    4.0190    9.1686    0.0000 C   0  0  0  0  0  0  0  0  0  0  0  0
    2.8699   10.1328    0.0000 C   0  0  0  0  0  0  0  0  0  0  0  0
    2.3490    7.1784    0.0000 C   0  0  0  0  0  0  0  0  0  0  0  0
    1.1999    8.1425    0.0000 C   0  0  0  0  0  0  0  0  0  0  0  0
    4.6471    2.2500    0.0000 C   0  0  0  0  0  0  0  0  0  0  0  0
    3.3481    3.0000    0.0000 C   0  0  0  0  0  0  0  0  0  0  0  0
    2.0490    2.2500    0.0000 C   0  0  0  0  0  0  0  0  0  0  0  0
    0.7500    3.0000    0.0000 C   0  0  0  0  0  0  0  0  0  0  0  0
    9.8433    5.2500    0.0000 C   0  0  0  0  0  0  0  0  0  0  0  0
  1  2  1  0  0  0  0
  1 12  1  0  0  0  0
  1 14  1  0  0  0  0
  2  3  2  0  0  0  0
  2  4  1  0  0  0  0
  4  5  1  0  0  0  0
  5  7  2  0  0  0  0
  5  6  1  0  0  0  0
  6  8  1  0  0  0  0
  6 16  1  0  0  0  0
  7 11  1  0  0  0  0
  8 10  1  0  0  0  0
  8  9  2  0  0  0  0
 10 11  2  0  0  0  0
 11 20  1  0  0  0  0
 12 13  1  0  0  0  0
 14 15  1  0  0  0  0
 16 17  1  0  0  0  0
 17 18  1  0  0  0  0
 18 19  1  0  0  0  0
M  END
