100058
 OpenBabel03021519512D

 21 24  0  0  1  0  0  0  0  0999 V2000
    2.0264    8.0969    0.0000 N   0  0  0  0  0  0  0  0  0  0  0  0
    5.0872    3.4264    0.0000 O   0  0  0  0  0  0  0  0  0  0  0  0
    3.5036    8.3574    0.0000 C   0  0  0  0  0  0  0  0  0  0  0  0
    4.4980    7.1253    0.0000 C   0  0  0  0  0  0  0  0  0  0  0  0
    5.7970    7.8753    0.0000 C   0  0  0  0  0  0  0  0  0  0  0  0
    7.0961    7.1253    0.0000 C   0  0  0  0  0  0  0  0  0  0  0  0
    7.0961    5.6253    0.0000 C   0  0  0  0  0  0  0  0  0  0  0  0
    4.4980    5.6253    0.0000 C   0  0  0  0  0  0  0  0  0  0  0  0
    5.7970    4.8753    0.0000 C   0  0  0  0  0  0  0  0  0  0  0  0
    3.1990    4.8753    0.0000 C   0  0  3  0  0  0  0  0  0  0  0  0
    1.2764    6.7979    0.0000 C   0  0  0  0  0  0  0  0  0  0  0  0
    1.7894    5.3883    0.0000 C   0  0  0  0  0  0  0  0  0  0  0  0
    1.7501    5.2635    0.0000 C   0  0  0  0  0  0  0  0  0  0  0  0
    0.6894    4.2029    0.0000 C   0  0  0  0  0  0  0  0  0  0  0  0
    3.5872    3.4264    0.0000 C   0  0  3  0  0  0  0  0  0  0  0  0
    1.0776    2.7540    0.0000 C   0  0  3  0  0  0  0  0  0  0  0  0
    2.5265    2.3658    0.0000 C   0  0  0  0  0  0  0  0  0  0  0  0
    0.0170    1.6933    0.0000 O   0  0  0  0  0  0  0  0  0  0  0  0
    1.1660    9.3256    0.0000 C   0  0  0  0  0  0  0  0  0  0  0  0
    8.3951    4.8753    0.0000 O   0  0  0  0  0  0  0  0  0  0  0  0
    9.6941    5.6253    0.0000 C   0  0  0  0  0  0  0  0  0  0  0  0
  1  3  1  0  0  0  0
  1 11  1  0  0  0  0
  1 19  1  0  0  0  0
  2  9  1  0  0  0  0
  2 15  1  0  0  0  0
  3  4  1  0  0  0  0
  4  8  2  0  0  0  0
  4  5  1  0  0  0  0
  5  6  2  0  0  0  0
  6  7  1  0  0  0  0
  7  9  2  0  0  0  0
  7 20  1  0  0  0  0
  8  9  1  0  0  0  0
  8 10  1  0  0  0  0
 10 12  1  0  0  0  0
 10 13  1  0  0  0  0
 10 15  1  0  0  0  0
 11 12  1  0  0  0  0
 13 14  2  0  0  0  0
 14 16  1  0  0  0  0
 15 17  1  0  0  0  0
 16 17  1  0  0  0  0
 16 18  1  0  0  0  0
 20 21  1  0  0  0  0
M  END
