646976
 OpenBabel03021519512D

 17 18  0  0  1  0  0  0  0  0999 V2000
    0.2967    5.4861    0.0000 C   0  0  0  0  0  0  0  0  0  0  0  0
   -1.0023    4.7361    0.0000 C   0  0  0  0  0  0  0  0  0  0  0  0
   -1.0023    3.2361    0.0000 C   0  0  0  0  0  0  0  0  0  0  0  0
    0.2967    2.4861    0.0000 C   0  0  0  0  0  0  0  0  0  0  0  0
    1.5958    3.2361    0.0000 C   0  0  0  0  0  0  0  0  0  0  0  0
    1.5958    4.7361    0.0000 C   0  0  0  0  0  0  0  0  0  0  0  0
    3.0224    5.1996    0.0000 C   0  0  3  0  0  0  0  0  0  0  0  0
    3.9040    3.9861    0.0000 C   0  0  0  0  0  0  0  0  0  0  0  0
    3.0223    2.7725    0.0000 N   0  0  0  0  0  0  0  0  0  0  0  0
    5.4040    3.9860    0.0000 O   0  0  0  0  0  0  0  0  0  0  0  0
    3.4859    6.6262    0.0000 C   0  0  0  0  0  0  0  0  0  0  0  0
    2.4822    7.7409    0.0000 O   0  0  0  0  0  0  0  0  0  0  0  0
    4.9531    6.9380    0.0000 C   0  0  0  0  0  0  0  0  0  0  0  0
    5.9568    5.8233    0.0000 O   0  0  0  0  0  0  0  0  0  0  0  0
    5.4166    8.3646    0.0000 O   0  0  0  0  0  0  0  0  0  0  0  0
    6.8838    8.6765    0.0000 C   0  0  0  0  0  0  0  0  0  0  0  0
    7.8875    7.5618    0.0000 C   0  0  0  0  0  0  0  0  0  0  0  0
  1  2  2  0  0  0  0
  1  6  1  0  0  0  0
  2  3  1  0  0  0  0
  3  4  2  0  0  0  0
  4  5  1  0  0  0  0
  5  6  2  0  0  0  0
  5  9  1  0  0  0  0
  6  7  1  0  0  0  0
  7  8  1  0  0  0  0
  7 11  1  0  0  0  0
  8  9  1  0  0  0  0
  8 10  2  0  0  0  0
 11 12  2  0  0  0  0
 11 13  1  0  0  0  0
 13 14  2  0  0  0  0
 13 15  1  0  0  0  0
 15 16  1  0  0  0  0
 16 17  1  0  0  0  0
M  END
