4936
 OpenBabel03021519512D

 13 14  0  0  0  0  0  0  0  0999 V2000
   -5.1086   -6.8155    0.0000 H   0  0  0  0  0  0  0  0  0  0  0  0
   -3.8096   -6.0655    0.0000 N   0  0  0  0  0  0  0  0  0  0  0  0
   -2.5105   -3.8155    0.0000 N   0  0  0  0  0  0  0  0  0  0  0  0
   -2.5105   -8.3155    0.0000 O   0  0  0  0  0  0  0  0  0  0  0  0
    0.2151   -4.1020    0.0000 N   0  0  0  0  0  0  0  0  0  0  0  0
    1.0968   -5.3155    0.0000 N   0  0  0  0  0  0  0  0  0  0  0  0
   -1.2115   -4.5655    0.0000 C   0  0  0  0  0  0  0  0  0  0  0  0
   -1.2115   -6.0655    0.0000 C   0  0  0  0  0  0  0  0  0  0  0  0
   -2.5105   -6.8155    0.0000 C   0  0  0  0  0  0  0  0  0  0  0  0
    0.2151   -6.5290    0.0000 C   0  0  0  0  0  0  0  0  0  0  0  0
   -3.8096   -4.5655    0.0000 C   0  0  0  0  0  0  0  0  0  0  0  0
   -5.1086   -3.8155    0.0000 N   0  0  0  0  0  0  0  0  0  0  0  0
    0.6786   -2.6754    0.0000 C   0  0  0  0  0  0  0  0  0  0  0  0
  1  2  1  0  0  0  0
  2  9  1  0  0  0  0
  2 11  1  0  0  0  0
  3 11  2  0  0  0  0
  3  7  1  0  0  0  0
  4  9  2  0  0  0  0
  5  6  1  0  0  0  0
  5  7  1  0  0  0  0
  5 13  1  0  0  0  0
  6 10  2  0  0  0  0
  7  8  2  0  0  0  0
  8  9  1  0  0  0  0
  8 10  1  0  0  0  0
 11 12  1  0  0  0  0
M  END
