153391
 OpenBabel03021519512D

 23 25  0  0  1  0  0  0  0  0999 V2000
   -8.5129   -2.8977    0.0000 S   0  0  0  0  0  0  0  0  0  0  0  0
   -3.6892   -0.7500    0.0000 O   0  0  0  0  0  0  0  0  0  0  0  0
   -4.6471   -3.2455    0.0000 N   0  0  0  0  0  0  0  0  0  0  0  0
   -6.3293   -5.3228    0.0000 O   0  0  0  0  0  0  0  0  0  0  0  0
   -4.8039   -1.7537    0.0000 C   0  0  0  0  0  0  0  0  0  0  0  0
   -6.2711   -1.4418    0.0000 C   0  0  0  0  0  0  0  0  0  0  0  0
   -7.0211   -2.7409    0.0000 C   0  0  3  0  0  0  0  0  0  0  0  0
   -6.0174   -3.8556    0.0000 C   0  0  0  0  0  0  0  0  0  0  0  0
   -2.0490   -3.2455    0.0000 C   0  0  0  0  0  0  0  0  0  0  0  0
   -0.7500   -3.9955    0.0000 C   0  0  0  0  0  0  0  0  0  0  0  0
   -3.3481   -3.9955    0.0000 C   0  0  0  0  0  0  0  0  0  0  0  0
   -0.7500   -5.4955    0.0000 C   0  0  0  0  0  0  0  0  0  0  0  0
   -3.3481   -5.4955    0.0000 C   0  0  0  0  0  0  0  0  0  0  0  0
   -2.0490   -6.2455    0.0000 C   0  0  0  0  0  0  0  0  0  0  0  0
   -9.3946   -1.6842    0.0000 C   0  0  0  0  0  0  0  0  0  0  0  0
  -10.8864   -1.8409    0.0000 C   0  0  0  0  0  0  0  0  0  0  0  0
   -8.7845   -0.3138    0.0000 C   0  0  0  0  0  0  0  0  0  0  0  0
   -9.6662    0.8997    0.0000 C   0  0  0  0  0  0  0  0  0  0  0  0
  -11.7681   -0.6274    0.0000 C   0  0  0  0  0  0  0  0  0  0  0  0
  -11.1580    0.7429    0.0000 C   0  0  0  0  0  0  0  0  0  0  0  0
   -7.2927   -0.1570    0.0000 N   0  0  0  0  0  0  0  0  0  0  0  0
   -4.6471   -6.2455    0.0000 O   0  0  0  0  0  0  0  0  0  0  0  0
   -4.6471   -7.7455    0.0000 C   0  0  0  0  0  0  0  0  0  0  0  0
  1  7  1  0  0  0  0
  1 15  1  0  0  0  0
  2  5  2  0  0  0  0
  3  5  1  0  0  0  0
  3  8  1  0  0  0  0
  3 11  1  0  0  0  0
  4  8  2  0  0  0  0
  5  6  1  0  0  0  0
  6  7  1  0  0  0  0
  7  8  1  0  0  0  0
  9 10  2  0  0  0  0
  9 11  1  0  0  0  0
 10 12  1  0  0  0  0
 11 13  2  0  0  0  0
 12 14  2  0  0  0  0
 13 14  1  0  0  0  0
 13 22  1  0  0  0  0
 15 17  2  0  0  0  0
 15 16  1  0  0  0  0
 16 19  2  0  0  0  0
 17 18  1  0  0  0  0
 17 21  1  0  0  0  0
 18 20  2  0  0  0  0
 19 20  1  0  0  0  0
 22 23  1  0  0  0  0
M  END
