148832
 OpenBabel03021519512D

 19 19  0  0  1  0  0  0  0  0999 V2000
   -1.0245    3.2745    0.0000 O   0  0  0  0  0  0  0  0  0  0  0  0
    1.5736    6.2745    0.0000 C   0  0  0  0  0  0  0  0  0  0  0  0
    0.2745    5.5245    0.0000 C   0  0  0  0  0  0  0  0  0  0  0  0
    2.8726    5.5245    0.0000 C   0  0  3  0  0  0  0  0  0  0  0  0
    2.8726    4.0245    0.0000 C   0  0  0  0  0  0  0  0  0  0  0  0
    0.2745    4.0245    0.0000 C   0  0  0  0  0  0  0  0  0  0  0  0
    1.5736    3.2745    0.0000 C   0  0  0  0  0  0  0  0  0  0  0  0
    0.6094    7.4236    0.0000 C   0  0  0  0  0  0  0  0  0  0  0  0
    2.5377    7.4236    0.0000 C   0  0  0  0  0  0  0  0  0  0  0  0
    3.3856    6.9341    0.0000 C   0  0  0  0  0  0  0  0  0  0  0  0
    4.1716    3.2745    0.0000 C   0  0  0  0  0  0  0  0  0  0  0  0
    4.3498    5.2640    0.0000 O   0  0  0  0  0  0  0  0  0  0  0  0
    4.8628    7.1945    0.0000 C   0  0  0  0  0  0  0  0  0  0  0  0
    5.3759    8.6041    0.0000 C   0  0  0  0  0  0  0  0  0  0  0  0
    4.4117    9.7531    0.0000 C   0  0  0  0  0  0  0  0  0  0  0  0
    6.8531    8.8645    0.0000 C   0  0  0  0  0  0  0  0  0  0  0  0
    7.3661   10.2741    0.0000 C   0  0  0  0  0  0  0  0  0  0  0  0
    8.8433   10.5345    0.0000 O   0  0  0  0  0  0  0  0  0  0  0  0
    6.4019   11.4231    0.0000 O   0  0  0  0  0  0  0  0  0  0  0  0
  1  6  2  0  0  0  0
  2  3  1  0  0  0  0
  2  4  1  0  0  0  0
  2  8  1  0  0  0  0
  2  9  1  0  0  0  0
  3  6  1  0  0  0  0
  4  5  1  0  0  0  0
  4 10  1  0  0  0  0
  4 12  1  0  0  0  0
  5  7  2  0  0  0  0
  5 11  1  0  0  0  0
  6  7  1  0  0  0  0
 10 13  2  0  0  0  0
 13 14  1  0  0  0  0
 14 15  1  0  0  0  0
 14 16  2  0  0  0  0
 16 17  1  0  0  0  0
 17 18  2  0  0  0  0
 17 19  1  0  0  0  0
M  END
