30205
 OpenBabel03021519512D

 24 27  0  0  0  0  0  0  0  0999 V2000
   -2.2231    3.6495    0.0000 N   0  0  0  0  0  0  0  0  0  0  0  0
    1.6740   10.3995    0.0000 C   0  0  0  0  0  0  0  0  0  0  0  0
    0.3750   11.1495    0.0000 C   0  0  0  0  0  0  0  0  0  0  0  0
    1.6740    8.8995    0.0000 C   0  0  0  0  0  0  0  0  0  0  0  0
    0.3750    8.1495    0.0000 C   0  0  0  0  0  0  0  0  0  0  0  0
   -0.9240   10.3995    0.0000 C   0  0  0  0  0  0  0  0  0  0  0  0
   -0.9240    8.8995    0.0000 C   0  0  0  0  0  0  0  0  0  0  0  0
   -2.2231    6.6495    0.0000 C   0  0  0  0  0  0  0  0  0  0  0  0
   -0.9240    5.8995    0.0000 C   0  0  0  0  0  0  0  0  0  0  0  0
    0.3750    6.6495    0.0000 C   0  0  0  0  0  0  0  0  0  0  0  0
    1.6740    5.8995    0.0000 C   0  0  0  0  0  0  0  0  0  0  0  0
   -3.5221    5.8995    0.0000 C   0  0  0  0  0  0  0  0  0  0  0  0
   -4.8211    6.6495    0.0000 C   0  0  0  0  0  0  0  0  0  0  0  0
   -6.1202    5.8995    0.0000 C   0  0  0  0  0  0  0  0  0  0  0  0
    1.6740    4.3995    0.0000 C   0  0  0  0  0  0  0  0  0  0  0  0
   -0.9240    4.3995    0.0000 C   0  0  0  0  0  0  0  0  0  0  0  0
   -3.5221    4.3995    0.0000 C   0  0  0  0  0  0  0  0  0  0  0  0
   -6.1202    4.3995    0.0000 C   0  0  0  0  0  0  0  0  0  0  0  0
    0.3750    3.6495    0.0000 C   0  0  0  0  0  0  0  0  0  0  0  0
   -4.8212    3.6495    0.0000 C   0  0  0  0  0  0  0  0  0  0  0  0
    2.9731   11.1495    0.0000 O   0  0  0  0  0  0  0  0  0  0  0  0
    2.9731   12.6495    0.0000 C   0  0  0  0  0  0  0  0  0  0  0  0
    1.6740   13.3995    0.0000 C   0  0  0  0  0  0  0  0  0  0  0  0
   -2.2231    8.1495    0.0000 N   0  0  0  0  0  0  0  0  0  0  0  0
  1 17  2  0  0  0  0
  1 16  1  0  0  0  0
  2  4  2  0  0  0  0
  2  3  1  0  0  0  0
  2 21  1  0  0  0  0
  3  6  2  0  0  0  0
  4  5  1  0  0  0  0
  5  7  2  0  0  0  0
  6  7  1  0  0  0  0
  7 24  1  0  0  0  0
  8 12  2  0  0  0  0
  8  9  1  0  0  0  0
  8 24  1  0  0  0  0
  9 16  2  0  0  0  0
  9 10  1  0  0  0  0
 10 11  2  0  0  0  0
 11 15  1  0  0  0  0
 12 13  1  0  0  0  0
 12 17  1  0  0  0  0
 13 14  2  0  0  0  0
 14 18  1  0  0  0  0
 15 19  2  0  0  0  0
 16 19  1  0  0  0  0
 17 20  1  0  0  0  0
 18 20  2  0  0  0  0
 21 22  1  0  0  0  0
 22 23  1  0  0  0  0
M  END
