146071
 OpenBabel03021519512D

 19 20  0  0  0  0  0  0  0  0999 V2000
   -1.0245    6.2745    0.0000 Cl  0  0  0  0  0  0  0  0  0  0  0  0
   -1.0245    3.2745    0.0000 Cl  0  0  0  0  0  0  0  0  0  0  0  0
    4.1716    3.2745    0.0000 Cl  0  0  0  0  0  0  0  0  0  0  0  0
    4.1716    6.2745    0.0000 O   0  0  0  0  0  0  0  0  0  0  0  0
    2.8726    8.5245    0.0000 N   0  0  0  0  0  0  0  0  0  0  0  0
    1.5736    6.2745    0.0000 C   0  0  0  0  0  0  0  0  0  0  0  0
    0.2745    5.5245    0.0000 C   0  0  0  0  0  0  0  0  0  0  0  0
    2.8726    5.5245    0.0000 C   0  0  0  0  0  0  0  0  0  0  0  0
    2.8726    4.0245    0.0000 C   0  0  0  0  0  0  0  0  0  0  0  0
    0.2745    4.0245    0.0000 C   0  0  0  0  0  0  0  0  0  0  0  0
    1.5736    3.2745    0.0000 C   0  0  0  0  0  0  0  0  0  0  0  0
    2.8726   10.0245    0.0000 C   0  0  0  0  0  0  0  0  0  0  0  0
    4.1716   10.7745    0.0000 C   0  0  0  0  0  0  0  0  0  0  0  0
    5.4707   10.0245    0.0000 C   0  0  0  0  0  0  0  0  0  0  0  0
    5.4707    8.5245    0.0000 C   0  0  0  0  0  0  0  0  0  0  0  0
    4.1716    7.7745    0.0000 C   0  0  0  0  0  0  0  0  0  0  0  0
    6.7697    7.7745    0.0000 N   0  3  0  0  0  0  0  0  0  0  0  0
    6.7697    6.2745    0.0000 O   0  5  0  0  0  0  0  0  0  0  0  0
    8.0687    8.5245    0.0000 O   0  0  0  0  0  0  0  0  0  0  0  0
  1  7  1  0  0  0  0
  2 10  1  0  0  0  0
  3  9  1  0  0  0  0
  4  8  1  0  0  0  0
  4 16  1  0  0  0  0
  5 16  2  0  0  0  0
  5 12  1  0  0  0  0
  6  7  2  0  0  0  0
  6  8  1  0  0  0  0
  7 10  1  0  0  0  0
  8  9  2  0  0  0  0
  9 11  1  0  0  0  0
 10 11  2  0  0  0  0
 12 13  2  0  0  0  0
 13 14  1  0  0  0  0
 14 15  2  0  0  0  0
 15 16  1  0  0  0  0
 15 17  1  0  0  0  0
 17 18  1  0  0  0  0
 17 19  2  0  0  0  0
M  CHG  2  17   1  18  -1
M  END
