241621
 OpenBabel03021519512D

 14 14  0  0  0  0  0  0  0  0999 V2000
    3.1740    1.3995    0.0000 N   0  0  0  0  0  0  0  0  0  0  0  0
    3.9240    0.1005    0.0000 S   0  0  0  0  0  0  0  0  0  0  0  0
    2.6250   -0.6495    0.0000 O   0  0  0  0  0  0  0  0  0  0  0  0
    5.2231    0.8505    0.0000 O   0  0  0  0  0  0  0  0  0  0  0  0
    6.1740   -1.1985    0.0000 C   0  0  0  0  0  0  0  0  0  0  0  0
    6.9241   -2.4976    0.0000 C   0  0  0  0  0  0  0  0  0  0  0  0
    6.9240    0.1005    0.0000 C   0  0  0  0  0  0  0  0  0  0  0  0
    8.4240    0.1005    0.0000 C   0  0  0  0  0  0  0  0  0  0  0  0
    8.4241   -2.4976    0.0000 C   0  0  0  0  0  0  0  0  0  0  0  0
    9.1740   -1.1985    0.0000 C   0  0  0  0  0  0  0  0  0  0  0  0
    9.1741   -3.7966    0.0000 Br  0  0  0  0  0  0  0  0  0  0  0  0
    3.9240    2.6986    0.0000 C   0  0  0  0  0  0  0  0  0  0  0  0
    1.6740    1.3995    0.0000 C   0  0  0  0  0  0  0  0  0  0  0  0
    4.6740   -1.1985    0.0000 N   0  0  0  0  0  0  0  0  0  0  0  0
  1  2  1  0  0  0  0
  1 12  1  0  0  0  0
  1 13  1  0  0  0  0
  2  4  2  0  0  0  0
  2  3  2  0  0  0  0
  2 14  1  0  0  0  0
  5  7  2  0  0  0  0
  5  6  1  0  0  0  0
  5 14  1  0  0  0  0
  6  9  2  0  0  0  0
  7  8  1  0  0  0  0
  8 10  2  0  0  0  0
  9 10  1  0  0  0  0
  9 11  1  0  0  0  0
M  END
