332670
 OpenBabel03021519512D

 24 28  0  0  0  0  0  0  0  0999 V2000
    0.7500    7.5000    0.0000 C   0  0  0  0  0  0  0  0  0  0  0  0
    0.7500    6.0000    0.0000 C   0  0  0  0  0  0  0  0  0  0  0  0
    0.7500    3.0000    0.0000 C   0  0  0  0  0  0  0  0  0  0  0  0
    0.7500    1.5000    0.0000 C   0  0  0  0  0  0  0  0  0  0  0  0
    2.0490    5.2500    0.0000 C   0  0  0  0  0  0  0  0  0  0  0  0
    2.0490    3.7500    0.0000 C   0  0  0  0  0  0  0  0  0  0  0  0
    2.0490    8.2500    0.0000 C   0  0  0  0  0  0  0  0  0  0  0  0
    2.0490    0.7500    0.0000 C   0  0  0  0  0  0  0  0  0  0  0  0
    3.3481    6.0000    0.0000 C   0  0  0  0  0  0  0  0  0  0  0  0
    3.3481    7.5000    0.0000 C   0  0  0  0  0  0  0  0  0  0  0  0
    3.3481    3.0000    0.0000 C   0  0  0  0  0  0  0  0  0  0  0  0
    3.3481    1.5000    0.0000 C   0  0  0  0  0  0  0  0  0  0  0  0
    4.6471    3.7500    0.0000 C   0  0  0  0  0  0  0  0  0  0  0  0
    4.6471    5.2500    0.0000 C   0  0  0  0  0  0  0  0  0  0  0  0
    6.0737    5.7135    0.0000 N   0  0  0  0  0  0  0  0  0  0  0  0
    6.9554    4.5000    0.0000 C   0  0  0  0  0  0  0  0  0  0  0  0
    8.4554    4.5000    0.0000 C   0  0  0  0  0  0  0  0  0  0  0  0
    9.2054    3.2010    0.0000 C   0  0  0  0  0  0  0  0  0  0  0  0
    9.2054    5.7990    0.0000 C   0  0  0  0  0  0  0  0  0  0  0  0
   10.7054    3.2010    0.0000 C   0  0  0  0  0  0  0  0  0  0  0  0
   10.7054    5.7990    0.0000 C   0  0  0  0  0  0  0  0  0  0  0  0
   11.4554    4.5000    0.0000 C   0  0  0  0  0  0  0  0  0  0  0  0
    6.0737    3.2865    0.0000 N   0  0  0  0  0  0  0  0  0  0  0  0
    8.4554    1.9019    0.0000 O   0  0  0  0  0  0  0  0  0  0  0  0
  1  7  2  0  0  0  0
  1  2  1  0  0  0  0
  2  5  2  0  0  0  0
  3  6  2  0  0  0  0
  3  4  1  0  0  0  0
  4  8  2  0  0  0  0
  5  9  1  0  0  0  0
  5  6  1  0  0  0  0
  6 11  1  0  0  0  0
  7 10  1  0  0  0  0
  8 12  1  0  0  0  0
  9 10  2  0  0  0  0
  9 14  1  0  0  0  0
 11 13  1  0  0  0  0
 11 12  2  0  0  0  0
 13 14  2  0  0  0  0
 13 23  1  0  0  0  0
 14 15  1  0  0  0  0
 15 16  2  0  0  0  0
 16 17  1  0  0  0  0
 16 23  1  0  0  0  0
 17 19  2  0  0  0  0
 17 18  1  0  0  0  0
 18 20  2  0  0  0  0
 18 24  1  0  0  0  0
 19 21  1  0  0  0  0
 20 22  1  0  0  0  0
 21 22  2  0  0  0  0
M  END
