403447
 OpenBabel03021519512D

 25 28  0  0  0  0  0  0  0  0999 V2000
  -11.0209   -0.7500    0.0000 H   0  0  0  0  0  0  0  0  0  0  0  0
  -11.4844   -2.1766    0.0000 N   0  0  0  0  0  0  0  0  0  0  0  0
  -11.4844   -4.6037    0.0000 N   0  0  0  0  0  0  0  0  0  0  0  0
   -4.4628   -3.4614    0.0000 N   0  0  0  0  0  0  0  0  0  0  0  0
   -1.3572   -1.1331    0.0000 H   0  0  0  0  0  0  0  0  0  0  0  0
   -2.3609   -2.2479    0.0000 N   0  0  0  0  0  0  0  0  0  0  0  0
   -0.7500   -4.4651    0.0000 C   0  0  0  0  0  0  0  0  0  0  0  0
   -2.0490   -3.7151    0.0000 C   0  0  0  0  0  0  0  0  0  0  0  0
   -0.7500   -5.9651    0.0000 C   0  0  0  0  0  0  0  0  0  0  0  0
   -2.0490   -6.7151    0.0000 C   0  0  0  0  0  0  0  0  0  0  0  0
   -3.3481   -4.4651    0.0000 C   0  0  0  0  0  0  0  0  0  0  0  0
   -3.3481   -5.9651    0.0000 C   0  0  0  0  0  0  0  0  0  0  0  0
  -14.2100   -1.8901    0.0000 C   0  0  0  0  0  0  0  0  0  0  0  0
  -12.9110   -2.6401    0.0000 C   0  0  0  0  0  0  0  0  0  0  0  0
  -15.5090   -2.6401    0.0000 C   0  0  0  0  0  0  0  0  0  0  0  0
  -12.9110   -4.1401    0.0000 C   0  0  0  0  0  0  0  0  0  0  0  0
  -15.5090   -4.1401    0.0000 C   0  0  0  0  0  0  0  0  0  0  0  0
  -14.2100   -4.8901    0.0000 C   0  0  0  0  0  0  0  0  0  0  0  0
   -3.8527   -2.0911    0.0000 C   0  0  0  0  0  0  0  0  0  0  0  0
  -10.6027   -3.3901    0.0000 C   0  0  0  0  0  0  0  0  0  0  0  0
   -9.1027   -3.3901    0.0000 C   0  0  0  0  0  0  0  0  0  0  0  0
   -8.3527   -2.0911    0.0000 C   0  0  0  0  0  0  0  0  0  0  0  0
   -6.8527   -2.0911    0.0000 C   0  0  0  0  0  0  0  0  0  0  0  0
   -6.1027   -0.7920    0.0000 C   0  0  0  0  0  0  0  0  0  0  0  0
   -4.6027   -0.7920    0.0000 C   0  0  0  0  0  0  0  0  0  0  0  0
  1  2  1  0  0  0  0
  2 14  1  0  0  0  0
  2 20  1  0  0  0  0
  3 20  2  0  0  0  0
  3 16  1  0  0  0  0
  4 19  2  0  0  0  0
  4 11  1  0  0  0  0
  5  6  1  0  0  0  0
  6  8  1  0  0  0  0
  6 19  1  0  0  0  0
  7  9  2  0  0  0  0
  7  8  1  0  0  0  0
  8 11  2  0  0  0  0
  9 10  1  0  0  0  0
 10 12  2  0  0  0  0
 11 12  1  0  0  0  0
 13 15  2  0  0  0  0
 13 14  1  0  0  0  0
 14 16  2  0  0  0  0
 15 17  1  0  0  0  0
 16 18  1  0  0  0  0
 17 18  2  0  0  0  0
 19 25  1  0  0  0  0
 20 21  1  0  0  0  0
 21 22  1  0  0  0  0
 22 23  1  0  0  0  0
 23 24  1  0  0  0  0
 24 25  1  0  0  0  0
M  END
