127886
 OpenBabel03021519512D

 20 21  0  0  1  0  0  0  0  0999 V2000
  -10.6480    2.1568    0.0000 C   0  0  0  0  0  0  0  0  0  0  0  0
  -10.6480    0.6568    0.0000 C   0  0  0  0  0  0  0  0  0  0  0  0
   -9.3489   -0.0932    0.0000 C   0  0  0  0  0  0  0  0  0  0  0  0
   -8.0499    0.6568    0.0000 C   0  0  3  0  0  0  0  0  0  0  0  0
   -8.0499    2.1568    0.0000 C   0  0  3  0  0  0  0  0  0  0  0  0
   -9.3489    2.9068    0.0000 C   0  0  0  0  0  0  0  0  0  0  0  0
   -6.6233    0.1933    0.0000 C   0  0  3  0  0  0  0  0  0  0  0  0
   -5.7416    1.4068    0.0000 C   0  0  0  0  0  0  0  0  0  0  0  0
   -6.6233    2.6203    0.0000 O   0  0  0  0  0  0  0  0  0  0  0  0
   -4.2416    1.4068    0.0000 O   0  0  0  0  0  0  0  0  0  0  0  0
   -6.1598   -1.2333    0.0000 C   0  0  0  0  0  0  0  0  0  0  0  0
   -4.6926   -1.5452    0.0000 C   0  0  3  0  0  0  0  0  0  0  0  0
   -3.6889   -0.4305    0.0000 C   0  0  0  0  0  0  0  0  0  0  0  0
   -2.6852    0.6843    0.0000 N   0  0  0  0  0  0  0  0  0  0  0  0
   -4.2290   -2.9718    0.0000 C   0  0  0  0  0  0  0  0  0  0  0  0
   -2.7618   -3.2836    0.0000 O   0  0  0  0  0  0  0  0  0  0  0  0
   -5.2327   -4.0865    0.0000 O   0  0  0  0  0  0  0  0  0  0  0  0
   -6.7000   -3.7746    0.0000 C   0  0  0  0  0  0  0  0  0  0  0  0
   -7.7037   -4.8893    0.0000 C   0  0  0  0  0  0  0  0  0  0  0  0
   -7.1635   -2.3480    0.0000 N   0  0  0  0  0  0  0  0  0  0  0  0
  1  2  1  0  0  0  0
  1  6  1  0  0  0  0
  2  3  1  0  0  0  0
  3  4  1  0  0  0  0
  4  5  1  0  0  0  0
  4  7  1  0  0  0  0
  5  6  1  0  0  0  0
  5  9  1  0  0  0  0
  7  8  1  0  0  0  0
  7 11  1  0  0  0  0
  8  9  1  0  0  0  0
  8 10  2  0  0  0  0
 11 12  1  0  0  0  0
 11 20  2  0  0  0  0
 12 13  1  0  0  0  0
 12 15  1  0  0  0  0
 13 14  3  0  0  0  0
 15 16  2  0  0  0  0
 15 17  1  0  0  0  0
 17 18  1  0  0  0  0
 18 19  1  0  0  0  0
M  END
