103775
 OpenBabel03021519512D

 14 15  0  0  0  0  0  0  0  0999 V2000
   -2.5857   -0.0576    0.0000 N   0  0  0  0  0  0  0  0  0  0  0  0
   -2.6471   -1.5564    0.0000 N   0  0  0  0  0  0  0  0  0  0  0  0
   -1.2408   -2.0780    0.0000 S   0  0  0  0  0  0  0  0  0  0  0  0
    2.1193    0.2133    0.0000 N   0  0  0  0  0  0  0  0  0  0  0  0
    3.4642   -1.8071    0.0000 S   0  0  0  0  0  0  0  0  0  0  0  0
    3.5257   -0.3084    0.0000 N   0  0  0  0  0  0  0  0  0  0  0  0
   -1.1413    0.3470    0.0000 C   0  0  0  0  0  0  0  0  0  0  0  0
   -0.3101   -0.9016    0.0000 C   0  0  0  0  0  0  0  0  0  0  0  0
    1.1887   -0.9631    0.0000 C   0  0  0  0  0  0  0  0  0  0  0  0
    2.0198   -2.2117    0.0000 C   0  0  0  0  0  0  0  0  0  0  0  0
   -0.6197    1.7534    0.0000 C   0  0  0  0  0  0  0  0  0  0  0  0
    0.8591    2.0049    0.0000 O   0  0  0  0  0  0  0  0  0  0  0  0
   -1.5768    2.9084    0.0000 N   0  0  0  0  0  0  0  0  0  0  0  0
   -3.0556    2.6569    0.0000 N   0  0  0  0  0  0  0  0  0  0  0  0
  1  2  2  0  0  0  0
  1  7  1  0  0  0  0
  2  3  1  0  0  0  0
  3  8  1  0  0  0  0
  4  6  2  0  0  0  0
  4  9  1  0  0  0  0
  5  6  1  0  0  0  0
  5 10  1  0  0  0  0
  7  8  2  0  0  0  0
  7 11  1  0  0  0  0
  8  9  1  0  0  0  0
  9 10  2  0  0  0  0
 11 12  2  0  0  0  0
 11 13  1  0  0  0  0
 13 14  1  0  0  0  0
M  END
