116640
 OpenBabel03021519512D

 24 27  0  0  0  0  0  0  0  0999 V2000
   -2.3656   -7.4427    0.0000 H   0  0  0  0  0  0  0  0  0  0  0  0
   -0.9390   -7.9062    0.0000 N   0  0  0  0  0  0  0  0  0  0  0  0
   -1.0245   -4.7745    0.0000 N   0  0  0  0  0  0  0  0  0  0  0  0
    2.8726   -2.5245    0.0000 C   0  0  0  0  0  0  0  0  0  0  0  0
    4.1716   -3.2745    0.0000 C   0  0  0  0  0  0  0  0  0  0  0  0
    1.5736   -3.2745    0.0000 C   0  0  0  0  0  0  0  0  0  0  0  0
    0.2745   -2.5245    0.0000 C   0  0  0  0  0  0  0  0  0  0  0  0
   -1.0245   -3.2745    0.0000 C   0  0  0  0  0  0  0  0  0  0  0  0
    4.1716   -4.7745    0.0000 C   0  0  0  0  0  0  0  0  0  0  0  0
    1.5736   -4.7745    0.0000 C   0  0  0  0  0  0  0  0  0  0  0  0
    2.8726   -5.5245    0.0000 C   0  0  0  0  0  0  0  0  0  0  0  0
    0.2745   -5.5245    0.0000 C   0  0  0  0  0  0  0  0  0  0  0  0
    0.2745   -7.0245    0.0000 C   0  0  0  0  0  0  0  0  0  0  0  0
    1.4881   -7.9062    0.0000 C   0  0  0  0  0  0  0  0  0  0  0  0
    1.0245   -9.3328    0.0000 C   0  0  0  0  0  0  0  0  0  0  0  0
   -2.8489  -10.3895    0.0000 C   0  0  0  0  0  0  0  0  0  0  0  0
   -3.7306  -11.6031    0.0000 C   0  0  0  0  0  0  0  0  0  0  0  0
   -1.3571  -10.5463    0.0000 C   0  0  0  0  0  0  0  0  0  0  0  0
   -0.7470  -11.9166    0.0000 C   0  0  0  0  0  0  0  0  0  0  0  0
   -0.4755   -9.3328    0.0000 C   0  0  0  0  0  0  0  0  0  0  0  0
   -3.1205  -12.9734    0.0000 C   0  0  0  0  0  0  0  0  0  0  0  0
   -1.6287  -13.1302    0.0000 C   0  0  0  0  0  0  0  0  0  0  0  0
    2.9146   -7.4427    0.0000 C   0  0  0  0  0  0  0  0  0  0  0  0
    4.3412   -6.9791    0.0000 N   0  0  0  0  0  0  0  0  0  0  0  0
  1  2  1  0  0  0  0
  2 13  1  0  0  0  0
  2 20  1  0  0  0  0
  3 12  2  0  0  0  0
  3  8  1  0  0  0  0
  4  5  2  0  0  0  0
  4  6  1  0  0  0  0
  5  9  1  0  0  0  0
  6 10  2  0  0  0  0
  6  7  1  0  0  0  0
  7  8  2  0  0  0  0
  9 11  2  0  0  0  0
 10 11  1  0  0  0  0
 10 12  1  0  0  0  0
 12 13  1  0  0  0  0
 13 14  2  0  0  0  0
 14 15  1  0  0  0  0
 14 23  1  0  0  0  0
 15 20  2  0  0  0  0
 16 17  2  0  0  0  0
 16 18  1  0  0  0  0
 17 21  1  0  0  0  0
 18 19  2  0  0  0  0
 18 20  1  0  0  0  0
 19 22  1  0  0  0  0
 21 22  2  0  0  0  0
 23 24  3  0  0  0  0
M  END
