151721
 OpenBabel03021519512D

 25 25  0  0  1  0  0  0  0  0999 V2000
   -3.8826   -1.0586    0.0000 O   0  0  0  0  0  0  0  0  0  0  0  0
   -6.4807   -1.0586    0.0000 C   0  0  0  0  0  0  0  0  0  0  0  0
   -5.1816   -1.8086    0.0000 C   0  0  0  0  0  0  0  0  0  0  0  0
   -7.7797   -1.8086    0.0000 C   0  0  0  0  0  0  0  0  0  0  0  0
   -9.2063   -1.3451    0.0000 C   0  0  0  0  0  0  0  0  0  0  0  0
  -10.0880   -2.5586    0.0000 C   0  0  0  0  0  0  0  0  0  0  0  0
   -5.1816   -3.3086    0.0000 C   0  0  3  0  0  0  0  0  0  0  0  0
   -9.2063   -3.7722    0.0000 C   0  0  0  0  0  0  0  0  0  0  0  0
   -6.4807   -4.0586    0.0000 C   0  0  0  0  0  0  0  0  0  0  0  0
   -7.7797   -3.3086    0.0000 C   0  0  0  0  0  0  0  0  0  0  0  0
   -6.4807   -5.5586    0.0000 C   0  0  0  0  0  0  0  0  0  0  0  0
   -5.1816   -6.3086    0.0000 O   0  0  0  0  0  0  0  0  0  0  0  0
   -7.7797   -6.3086    0.0000 O   0  0  0  0  0  0  0  0  0  0  0  0
   -9.0787   -5.5586    0.0000 C   0  0  0  0  0  0  0  0  0  0  0  0
   -4.6686   -4.7181    0.0000 C   0  0  0  0  0  0  0  0  0  0  0  0
   -3.1914   -4.9786    0.0000 C   0  0  0  0  0  0  0  0  0  0  0  0
   -2.6784   -6.3882    0.0000 C   0  0  0  0  0  0  0  0  0  0  0  0
   -1.2011   -6.6486    0.0000 O   0  0  0  0  0  0  0  0  0  0  0  0
   -3.6425   -7.5372    0.0000 O   0  0  0  0  0  0  0  0  0  0  0  0
   -5.1197   -7.2768    0.0000 C   0  0  0  0  0  0  0  0  0  0  0  0
   -6.0839   -8.4258    0.0000 C   0  0  0  0  0  0  0  0  0  0  0  0
   -3.7044   -3.0481    0.0000 C   0  0  0  0  0  0  0  0  0  0  0  0
   -2.7402   -4.1972    0.0000 O   0  0  0  0  0  0  0  0  0  0  0  0
   -3.1914   -1.6386    0.0000 O   0  0  0  0  0  0  0  0  0  0  0  0
   -1.7142   -1.3781    0.0000 C   0  0  0  0  0  0  0  0  0  0  0  0
  1  3  2  0  0  0  0
  2  3  1  0  0  0  0
  2  4  1  0  0  0  0
  3  7  1  0  0  0  0
  4  5  1  0  0  0  0
  5  6  1  0  0  0  0
  6  8  1  0  0  0  0
  7  9  1  0  0  0  0
  7 15  1  0  0  0  0
  7 22  1  0  0  0  0
  8 10  1  0  0  0  0
  9 10  2  0  0  0  0
  9 11  1  0  0  0  0
 11 12  2  0  0  0  0
 11 13  1  0  0  0  0
 13 14  1  0  0  0  0
 15 16  1  0  0  0  0
 16 17  1  0  0  0  0
 17 18  2  0  0  0  0
 17 19  1  0  0  0  0
 19 20  1  0  0  0  0
 20 21  1  0  0  0  0
 22 23  2  0  0  0  0
 22 24  1  0  0  0  0
 24 25  1  0  0  0  0
M  END
