42096
 OpenBabel03021519512D

 17 18  0  0  0  0  0  0  0  0999 V2000
   -4.9216    1.9755    0.0000 O   0  0  0  0  0  0  0  0  0  0  0  0
   -3.0736    0.6764    0.0000 C   0  0  0  0  0  0  0  0  0  0  0  0
   -4.3726   -0.0736    0.0000 C   0  0  0  0  0  0  0  0  0  0  0  0
   -1.7745   -0.0736    0.0000 C   0  0  0  0  0  0  0  0  0  0  0  0
   -1.7745   -1.5736    0.0000 C   0  0  0  0  0  0  0  0  0  0  0  0
   -4.3726   -1.5736    0.0000 C   0  0  0  0  0  0  0  0  0  0  0  0
   -3.0736   -2.3236    0.0000 C   0  0  0  0  0  0  0  0  0  0  0  0
   -6.9707    2.9264    0.0000 C   0  0  0  0  0  0  0  0  0  0  0  0
   -6.9707    1.4264    0.0000 C   0  0  0  0  0  0  0  0  0  0  0  0
   -8.2697    3.6764    0.0000 C   0  0  0  0  0  0  0  0  0  0  0  0
   -8.2697    0.6764    0.0000 C   0  0  0  0  0  0  0  0  0  0  0  0
   -9.5687    2.9264    0.0000 C   0  0  0  0  0  0  0  0  0  0  0  0
   -9.5687    1.4264    0.0000 C   0  0  0  0  0  0  0  0  0  0  0  0
  -10.8678    0.6764    0.0000 O   0  0  0  0  0  0  0  0  0  0  0  0
   -5.6716    0.6764    0.0000 As  0  0  3  0  0  0  0  0  0  0  0  0
   -6.4216   -0.6226    0.0000 O   0  0  0  0  0  0  0  0  0  0  0  0
   -3.0735   -3.8236    0.0000 O   0  0  0  0  0  0  0  0  0  0  0  0
  1 15  2  0  0  0  0
  2  4  2  0  0  0  0
  2  3  1  0  0  0  0
  3  6  2  0  0  0  0
  3 15  1  0  0  0  0
  4  5  1  0  0  0  0
  5  7  2  0  0  0  0
  6  7  1  0  0  0  0
  7 17  1  0  0  0  0
  8 10  2  0  0  0  0
  8  9  1  0  0  0  0
  9 11  2  0  0  0  0
  9 15  1  0  0  0  0
 10 12  1  0  0  0  0
 11 13  1  0  0  0  0
 12 13  2  0  0  0  0
 13 14  1  0  0  0  0
 15 16  1  0  0  0  0
M  END
