131467
 OpenBabel03021519512D

 30 33  0  0  0  0  0  0  0  0999 V2000
    1.5268   -8.6884    0.0000 N   0  0  0  0  0  0  0  0  0  0  0  0
    2.9534   -9.1519    0.0000 H   0  0  0  0  0  0  0  0  0  0  0  0
    1.3348   -4.6780    0.0000 N   0  0  0  0  0  0  0  0  0  0  0  0
    5.8102   -5.1483    0.0000 C   0  0  0  0  0  0  0  0  0  0  0  0
    6.4203   -6.5187    0.0000 C   0  0  0  0  0  0  0  0  0  0  0  0
    4.3184   -4.9916    0.0000 C   0  0  0  0  0  0  0  0  0  0  0  0
    3.7083   -3.6212    0.0000 C   0  0  0  0  0  0  0  0  0  0  0  0
    2.2165   -3.4645    0.0000 C   0  0  0  0  0  0  0  0  0  0  0  0
    5.5386   -7.7322    0.0000 C   0  0  0  0  0  0  0  0  0  0  0  0
    3.4367   -6.2051    0.0000 C   0  0  0  0  0  0  0  0  0  0  0  0
    4.0468   -7.5754    0.0000 C   0  0  0  0  0  0  0  0  0  0  0  0
    1.9449   -6.0483    0.0000 C   0  0  0  0  0  0  0  0  0  0  0  0
    1.0633   -7.2618    0.0000 C   0  0  0  0  0  0  0  0  0  0  0  0
   -0.4367   -7.2618    0.0000 C   0  0  0  0  0  0  0  0  0  0  0  0
   -0.9003   -8.6884    0.0000 C   0  0  0  0  0  0  0  0  0  0  0  0
    0.3133   -9.5701    0.0000 C   0  0  0  0  0  0  0  0  0  0  0  0
    0.3133  -11.0701    0.0000 C   0  0  0  0  0  0  0  0  0  0  0  0
   -0.9858  -11.8201    0.0000 C   0  0  0  0  0  0  0  0  0  0  0  0
    1.6123  -11.8201    0.0000 C   0  0  0  0  0  0  0  0  0  0  0  0
    1.6123  -13.3201    0.0000 C   0  0  0  0  0  0  0  0  0  0  0  0
   -0.9858  -13.3201    0.0000 C   0  0  0  0  0  0  0  0  0  0  0  0
    0.3133  -14.0701    0.0000 C   0  0  0  0  0  0  0  0  0  0  0  0
   -2.6387  -10.6192    0.0000 O   0  0  0  0  0  0  0  0  0  0  0  0
   -4.0653  -11.0827    0.0000 C   0  0  0  0  0  0  0  0  0  0  0  0
   -2.3269   -9.1520    0.0000 C   0  0  0  0  0  0  0  0  0  0  0  0
   -3.4416   -8.1483    0.0000 O   0  0  0  0  0  0  0  0  0  0  0  0
   -1.3184   -6.0483    0.0000 C   0  0  0  0  0  0  0  0  0  0  0  0
   -2.8102   -6.2051    0.0000 O   0  0  0  0  0  0  0  0  0  0  0  0
   -0.7083   -4.6780    0.0000 O   0  0  0  0  0  0  0  0  0  0  0  0
   -1.5900   -3.4645    0.0000 C   0  0  0  0  0  0  0  0  0  0  0  0
  1 13  1  0  0  0  0
  1 16  1  0  0  0  0
  1  2  1  0  0  0  0
  3 12  2  0  0  0  0
  3  8  1  0  0  0  0
  4  5  2  0  0  0  0
  4  6  1  0  0  0  0
  5  9  1  0  0  0  0
  6 10  2  0  0  0  0
  6  7  1  0  0  0  0
  7  8  2  0  0  0  0
  9 11  2  0  0  0  0
 10 11  1  0  0  0  0
 10 12  1  0  0  0  0
 12 13  1  0  0  0  0
 13 14  2  0  0  0  0
 14 15  1  0  0  0  0
 14 27  1  0  0  0  0
 15 16  2  0  0  0  0
 15 25  1  0  0  0  0
 16 17  1  0  0  0  0
 17 19  2  0  0  0  0
 17 18  1  0  0  0  0
 18 21  2  0  0  0  0
 19 20  1  0  0  0  0
 20 22  2  0  0  0  0
 21 22  1  0  0  0  0
 23 24  1  0  0  0  0
 23 25  1  0  0  0  0
 25 26  2  0  0  0  0
 27 28  2  0  0  0  0
 27 29  1  0  0  0  0
 29 30  1  0  0  0  0
M  END
