301168
 OpenBabel03021519512D

 16 18  0  0  0  0  0  0  0  0999 V2000
    7.2452    5.2500    0.0000 C   0  0  0  0  0  0  0  0  0  0  0  0
    2.0490    5.2500    0.0000 C   0  0  0  0  0  0  0  0  0  0  0  0
    8.5442    4.5000    0.0000 C   0  0  0  0  0  0  0  0  0  0  0  0
    5.9462    4.5000    0.0000 C   0  0  0  0  0  0  0  0  0  0  0  0
    3.3481    4.5000    0.0000 C   0  0  0  0  0  0  0  0  0  0  0  0
    0.7500    4.5000    0.0000 C   0  0  0  0  0  0  0  0  0  0  0  0
    5.9462    3.0000    0.0000 C   0  0  0  0  0  0  0  0  0  0  0  0
    3.3481    3.0000    0.0000 C   0  0  0  0  0  0  0  0  0  0  0  0
    0.7500    3.0000    0.0000 C   0  0  0  0  0  0  0  0  0  0  0  0
    2.0490    2.2500    0.0000 C   0  0  0  0  0  0  0  0  0  0  0  0
    4.6471    5.2500    0.0000 S   0  0  0  0  0  0  0  0  0  0  0  0
    4.6471    2.2500    0.0000 N   0  0  0  0  0  0  0  0  0  0  0  0
    4.6471    0.7500    0.0000 H   0  0  0  0  0  0  0  0  0  0  0  0
    7.2452    2.2500    0.0000 N   0  0  0  0  0  0  0  0  0  0  0  0
    8.5442    3.0000    0.0000 N   0  0  0  0  0  0  0  0  0  0  0  0
    9.8433    5.2500    0.0000 Cl  0  0  0  0  0  0  0  0  0  0  0  0
  1  3  2  0  0  0  0
  1  4  1  0  0  0  0
  2  6  2  0  0  0  0
  2  5  1  0  0  0  0
  3 16  1  0  0  0  0
  3 15  1  0  0  0  0
  4 11  1  0  0  0  0
  4  7  2  0  0  0  0
  5 11  1  0  0  0  0
  5  8  2  0  0  0  0
  6  9  1  0  0  0  0
  7 14  1  0  0  0  0
  7 12  1  0  0  0  0
  8 12  1  0  0  0  0
  8 10  1  0  0  0  0
  9 10  2  0  0  0  0
 12 13  1  0  0  0  0
 14 15  2  0  0  0  0
M  END
