522131
 OpenBabel03021519512D

 19 20  0  0  0  0  0  0  0  0999 V2000
    6.2207   -0.2745    0.0000 Cl  0  0  0  0  0  0  0  0  0  0  0  0
    3.6226    1.2255    0.0000 Cl  0  0  0  0  0  0  0  0  0  0  0  0
    8.8188   -4.7745    0.0000 C   0  0  0  0  0  0  0  0  0  0  0  0
   10.1178   -5.5245    0.0000 C   0  0  0  0  0  0  0  0  0  0  0  0
    7.5197   -5.5245    0.0000 C   0  0  0  0  0  0  0  0  0  0  0  0
   10.1178   -7.0245    0.0000 C   0  0  0  0  0  0  0  0  0  0  0  0
    7.5197   -7.0245    0.0000 C   0  0  0  0  0  0  0  0  0  0  0  0
    8.8188   -7.7745    0.0000 C   0  0  0  0  0  0  0  0  0  0  0  0
    4.9216   -2.5245    0.0000 C   0  0  0  0  0  0  0  0  0  0  0  0
    3.6226   -3.2745    0.0000 C   0  0  0  0  0  0  0  0  0  0  0  0
    4.9216   -1.0245    0.0000 C   0  0  0  0  0  0  0  0  0  0  0  0
    2.3236   -2.5245    0.0000 C   0  0  0  0  0  0  0  0  0  0  0  0
    3.6226   -0.2745    0.0000 C   0  0  0  0  0  0  0  0  0  0  0  0
    2.3236   -1.0245    0.0000 C   0  0  0  0  0  0  0  0  0  0  0  0
    3.6226   -4.7745    0.0000 N   0  0  0  0  0  0  0  0  0  0  0  0
    4.9216   -5.5245    0.0000 C   0  0  0  0  0  0  0  0  0  0  0  0
    4.9216   -7.0245    0.0000 O   0  0  0  0  0  0  0  0  0  0  0  0
    6.2207   -4.7745    0.0000 N   0  0  0  0  0  0  0  0  0  0  0  0
    6.2207   -7.7745    0.0000 O   0  0  0  0  0  0  0  0  0  0  0  0
  1 11  1  0  0  0  0
  2 13  1  0  0  0  0
  3  4  2  0  0  0  0
  3  5  1  0  0  0  0
  4  6  1  0  0  0  0
  5  7  2  0  0  0  0
  5 18  1  0  0  0  0
  6  8  2  0  0  0  0
  7  8  1  0  0  0  0
  7 19  1  0  0  0  0
  9 10  2  0  0  0  0
  9 11  1  0  0  0  0
 10 12  1  0  0  0  0
 10 15  1  0  0  0  0
 11 13  2  0  0  0  0
 12 14  2  0  0  0  0
 13 14  1  0  0  0  0
 15 16  1  0  0  0  0
 16 17  2  0  0  0  0
 16 18  1  0  0  0  0
M  END
