281624
 OpenBabel03021519512D

 22 24  0  0  0  0  0  0  0  0999 V2000
    2.4179    0.7760    0.0000 O   0  0  0  0  0  0  0  0  0  0  0  0
    3.6315   -0.1056    0.0000 C   0  0  0  0  0  0  0  0  0  0  0  0
    5.0018    0.5045    0.0000 C   0  0  0  0  0  0  0  0  0  0  0  0
    3.4747   -1.5974    0.0000 C   0  0  0  0  0  0  0  0  0  0  0  0
    6.2153   -0.3772    0.0000 C   0  0  0  0  0  0  0  0  0  0  0  0
    4.6882   -2.4791    0.0000 C   0  0  0  0  0  0  0  0  0  0  0  0
    6.0585   -1.8690    0.0000 C   0  0  0  0  0  0  0  0  0  0  0  0
    7.2720   -2.7507    0.0000 C   0  0  0  0  0  0  0  0  0  0  0  0
    7.2720   -4.2507    0.0000 S   0  0  0  0  0  0  0  0  0  0  0  0
    8.6986   -2.2871    0.0000 N   0  0  0  0  0  0  0  0  0  0  0  0
    8.6986   -4.7142    0.0000 C   0  0  0  0  0  0  0  0  0  0  0  0
    9.5803   -3.5007    0.0000 C   0  0  0  0  0  0  0  0  0  0  0  0
   11.0803   -3.5007    0.0000 C   0  0  0  0  0  0  0  0  0  0  0  0
   11.8303   -2.2016    0.0000 C   0  0  0  0  0  0  0  0  0  0  0  0
   11.8303   -4.7997    0.0000 C   0  0  0  0  0  0  0  0  0  0  0  0
   13.3303   -4.7997    0.0000 C   0  0  0  0  0  0  0  0  0  0  0  0
   13.3303   -2.2016    0.0000 C   0  0  0  0  0  0  0  0  0  0  0  0
   14.0803   -3.5007    0.0000 C   0  0  0  0  0  0  0  0  0  0  0  0
    2.5747    2.2678    0.0000 C   0  0  0  0  0  0  0  0  0  0  0  0
    3.9450    2.8779    0.0000 C   0  0  0  0  0  0  0  0  0  0  0  0
    4.1018    4.3697    0.0000 C   0  0  0  0  0  0  0  0  0  0  0  0
   15.5803   -3.5006    0.0000 N   0  0  0  0  0  0  0  0  0  0  0  0
  1  2  1  0  0  0  0
  1 19  1  0  0  0  0
  2  3  2  0  0  0  0
  2  4  1  0  0  0  0
  3  5  1  0  0  0  0
  4  6  2  0  0  0  0
  5  7  2  0  0  0  0
  6  7  1  0  0  0  0
  7  8  1  0  0  0  0
  8 10  2  0  0  0  0
  8  9  1  0  0  0  0
  9 11  1  0  0  0  0
 10 12  1  0  0  0  0
 11 12  2  0  0  0  0
 12 13  1  0  0  0  0
 13 14  2  0  0  0  0
 13 15  1  0  0  0  0
 14 17  1  0  0  0  0
 15 16  2  0  0  0  0
 16 18  1  0  0  0  0
 17 18  2  0  0  0  0
 18 22  1  0  0  0  0
 19 20  1  0  0  0  0
 20 21  1  0  0  0  0
M  END
