339578
 OpenBabel03021519512D

 16 18  0  0  0  0  0  0  0  0999 V2000
    3.6226    1.7745    0.0000 C   0  0  0  0  0  0  0  0  0  0  0  0
    3.6226    0.2745    0.0000 N   0  0  0  0  0  0  0  0  0  0  0  0
    4.9216    2.5245    0.0000 N   0  0  0  0  0  0  0  0  0  0  0  0
    4.9216   -0.4755    0.0000 C   0  0  0  0  0  0  0  0  0  0  0  0
    4.9216   -1.9755    0.0000 C   0  0  0  0  0  0  0  0  0  0  0  0
    6.2207    0.2745    0.0000 C   0  0  0  0  0  0  0  0  0  0  0  0
    6.2207    1.7745    0.0000 C   0  0  0  0  0  0  0  0  0  0  0  0
    6.2207   -2.7255    0.0000 C   0  0  0  0  0  0  0  0  0  0  0  0
    7.5197   -0.4755    0.0000 C   0  0  0  0  0  0  0  0  0  0  0  0
    7.5197   -1.9755    0.0000 C   0  0  0  0  0  0  0  0  0  0  0  0
    8.9463   -0.0119    0.0000 C   0  0  0  0  0  0  0  0  0  0  0  0
    9.4098   -3.8656    0.0000 H   0  0  0  0  0  0  0  0  0  0  0  0
    8.9463   -2.4390    0.0000 N   0  0  0  0  0  0  0  0  0  0  0  0
    9.8280   -1.2255    0.0000 C   0  0  0  0  0  0  0  0  0  0  0  0
    2.3236    2.5245    0.0000 N   0  0  0  0  0  0  0  0  0  0  0  0
    7.5197    2.5245    0.0000 N   0  0  0  0  0  0  0  0  0  0  0  0
  1  3  1  0  0  0  0
  1  2  2  0  0  0  0
  1 15  1  0  0  0  0
  2  4  1  0  0  0  0
  3  7  2  0  0  0  0
  4  6  2  0  0  0  0
  4  5  1  0  0  0  0
  5  8  2  0  0  0  0
  6  7  1  0  0  0  0
  6  9  1  0  0  0  0
  7 16  1  0  0  0  0
  8 10  1  0  0  0  0
  9 11  1  0  0  0  0
  9 10  2  0  0  0  0
 10 13  1  0  0  0  0
 11 14  2  0  0  0  0
 12 13  1  0  0  0  0
 13 14  1  0  0  0  0
M  END
