376254
 OpenBabel03021519512D

 33 36  0  0  1  0  0  0  0  0999 V2000
   -7.7341   -6.8129    0.0000 H   0  0  0  0  0  0  0  0  0  0  0  0
   -7.2217   -5.1098    0.0000 O   0  0  0  0  0  0  0  0  0  0  0  0
   -6.5158   -7.6879    0.0000 C   0  0  2  0  0  0  0  0  0  0  0  0
   -6.4912  -12.1878    0.0000 O   0  0  0  0  0  0  0  0  0  0  0  0
   -5.2127   -8.4308    0.0000 C   0  0  2  0  0  0  0  0  0  0  0  0
   -5.2045   -9.9308    0.0000 N   0  0  0  0  0  0  0  0  0  0  0  0
   -3.8390   -9.0334    0.0000 H   0  0  0  0  0  0  0  0  0  0  0  0
   -1.4784   -3.7660    0.0000 O   0  0  0  0  0  0  0  0  0  0  0  0
   -3.8460   -4.8357    0.0000 C   0  0  0  0  0  0  0  0  0  0  0  0
   -4.7210   -6.0540    0.0000 C   0  0  0  0  0  0  0  0  0  0  0  0
   -2.3534   -4.9843    0.0000 C   0  0  0  0  0  0  0  0  0  0  0  0
   -6.2119   -6.2190    0.0000 C   0  0  0  0  0  0  0  0  0  0  0  0
   -4.1034   -7.4210    0.0000 C   0  0  0  0  0  0  0  0  0  0  0  0
   -1.7358   -6.3513    0.0000 C   0  0  0  0  0  0  0  0  0  0  0  0
   -9.1138   -7.7021    0.0000 C   0  0  0  0  0  0  0  0  0  0  0  0
  -10.4087   -8.4592    0.0000 C   0  0  0  0  0  0  0  0  0  0  0  0
   -7.8107   -8.4450    0.0000 C   0  0  0  0  0  0  0  0  0  0  0  0
   -2.6108   -7.5696    0.0000 C   0  0  0  0  0  0  0  0  0  0  0  0
  -10.4005   -9.9592    0.0000 C   0  0  0  0  0  0  0  0  0  0  0  0
   -7.8025   -9.9450    0.0000 C   0  0  0  0  0  0  0  0  0  0  0  0
   -9.0974  -10.7021    0.0000 C   0  0  0  0  0  0  0  0  0  0  0  0
   -6.4994  -10.6879    0.0000 C   0  0  0  0  0  0  0  0  0  0  0  0
  -11.7119   -7.7163    0.0000 O   0  0  0  0  0  0  0  0  0  0  0  0
  -13.0068   -8.4734    0.0000 C   0  0  0  0  0  0  0  0  0  0  0  0
  -11.6955  -10.7163    0.0000 O   0  0  0  0  0  0  0  0  0  0  0  0
  -12.9986   -9.9734    0.0000 C   0  0  0  0  0  0  0  0  0  0  0  0
   -3.9013  -10.6737    0.0000 C   0  0  0  0  0  0  0  0  0  0  0  0
   -0.2432   -6.4999    0.0000 O   0  0  0  0  0  0  0  0  0  0  0  0
    0.6318   -5.2816    0.0000 C   0  0  0  0  0  0  0  0  0  0  0  0
   -2.0960   -2.3991    0.0000 S   0  0  0  0  0  0  0  0  0  0  0  0
   -3.4629   -3.0166    0.0000 O   0  0  0  0  0  0  0  0  0  0  0  0
   -0.7290   -1.7815    0.0000 O   0  0  0  0  0  0  0  0  0  0  0  0
   -2.7135   -1.0321    0.0000 C   0  0  0  0  0  0  0  0  0  0  0  0
  2 12  2  0  0  0  0
  3  1  1  6  0  0  0
  3 12  1  0  0  0  0
  3 17  1  0  0  0  0
  3  5  1  0  0  0  0
  4 22  2  0  0  0  0
  5  7  1  6  0  0  0
  5 13  1  0  0  0  0
  5  6  1  0  0  0  0
  6 22  1  0  0  0  0
  6 27  1  0  0  0  0
  8 11  1  0  0  0  0
  8 30  1  0  0  0  0
  9 10  2  0  0  0  0
  9 11  1  0  0  0  0
 10 12  1  0  0  0  0
 10 13  1  0  0  0  0
 11 14  2  0  0  0  0
 13 18  2  0  0  0  0
 14 18  1  0  0  0  0
 14 28  1  0  0  0  0
 15 16  2  0  0  0  0
 15 17  1  0  0  0  0
 16 19  1  0  0  0  0
 16 23  1  0  0  0  0
 17 20  2  0  0  0  0
 19 21  2  0  0  0  0
 19 25  1  0  0  0  0
 20 21  1  0  0  0  0
 20 22  1  0  0  0  0
 23 24  1  0  0  0  0
 25 26  1  0  0  0  0
 28 29  1  0  0  0  0
 30 31  2  0  0  0  0
 30 32  2  0  0  0  0
 30 33  1  0  0  0  0
M  END
