26112
 OpenBabel03021519512D

 17 18  0  0  0  0  0  0  0  0999 V2000
    6.3881    0.9381    0.0000 Cl  0  0  0  0  0  0  0  0  0  0  0  0
    3.1248    0.9381    0.0000 Cl  0  0  0  0  0  0  0  0  0  0  0  0
    7.3966   -2.1656    0.0000 Cl  0  0  0  0  0  0  0  0  0  0  0  0
    2.1163   -2.1656    0.0000 Cl  0  0  0  0  0  0  0  0  0  0  0  0
    5.9700   -1.7020    0.0000 C   0  0  0  0  0  0  0  0  0  0  0  0
    5.5064   -0.2755    0.0000 C   0  0  0  0  0  0  0  0  0  0  0  0
    4.7564   -2.5837    0.0000 C   0  0  0  0  0  0  0  0  0  0  0  0
    3.5429   -1.7021    0.0000 C   0  0  0  0  0  0  0  0  0  0  0  0
    4.0064   -0.2755    0.0000 C   0  0  0  0  0  0  0  0  0  0  0  0
    3.4574   -6.3337    0.0000 C   0  0  0  0  0  0  0  0  0  0  0  0
    3.4574   -4.8337    0.0000 C   0  0  0  0  0  0  0  0  0  0  0  0
    2.1584   -7.0837    0.0000 C   0  0  0  0  0  0  0  0  0  0  0  0
    0.8593   -6.3337    0.0000 C   0  0  0  0  0  0  0  0  0  0  0  0
    2.1584   -4.0837    0.0000 C   0  0  0  0  0  0  0  0  0  0  0  0
    0.8593   -4.8337    0.0000 C   0  0  0  0  0  0  0  0  0  0  0  0
    4.7564   -4.0837    0.0000 C   0  0  0  0  0  0  0  0  0  0  0  0
   -0.4397   -7.0837    0.0000 C   0  0  0  0  0  0  0  0  0  0  0  0
  1  6  1  0  0  0  0
  2  9  1  0  0  0  0
  3  5  1  0  0  0  0
  4  8  1  0  0  0  0
  5  6  2  0  0  0  0
  5  7  1  0  0  0  0
  6  9  1  0  0  0  0
  7  8  1  0  0  0  0
  7 16  2  0  0  0  0
  8  9  2  0  0  0  0
 10 12  2  0  0  0  0
 10 11  1  0  0  0  0
 11 14  2  0  0  0  0
 11 16  1  0  0  0  0
 12 13  1  0  0  0  0
 13 15  2  0  0  0  0
 13 17  1  0  0  0  0
 14 15  1  0  0  0  0
M  END
