367428
 OpenBabel03021519512D

 17 17  0  0  1  0  0  0  0  0999 V2000
   -1.0245    6.2745    0.0000 H   0  0  0  0  0  0  0  0  0  0  0  0
   -1.0245    3.2745    0.0000 O   0  0  0  0  0  0  0  0  0  0  0  0
    0.2745    5.5245    0.0000 N   0  0  0  0  0  0  0  0  0  0  0  0
    0.2745    4.0245    0.0000 C   0  0  0  0  0  0  0  0  0  0  0  0
    1.5736    6.2745    0.0000 C   0  0  0  0  0  0  0  0  0  0  0  0
    1.5736    7.7745    0.0000 O   0  0  0  0  0  0  0  0  0  0  0  0
    1.5736    3.2745    0.0000 N   0  0  0  0  0  0  0  0  0  0  0  0
    1.5736    1.7745    0.0000 H   0  0  0  0  0  0  0  0  0  0  0  0
    2.8726    4.0245    0.0000 C   0  0  3  0  0  0  0  0  0  0  0  0
    2.8726    5.5245    0.0000 C   0  0  3  0  0  0  0  0  0  0  0  0
    4.1716    3.2745    0.0000 O   0  0  0  0  0  0  0  0  0  0  0  0
    3.3856    6.9341    0.0000 F   0  0  0  0  0  0  0  0  0  0  0  0
    4.8628    3.8545    0.0000 O   0  0  0  0  0  0  0  0  0  0  0  0
    4.3498    5.2640    0.0000 C   0  0  0  0  0  0  0  0  0  0  0  0
    5.3140    6.4131    0.0000 O   0  0  0  0  0  0  0  0  0  0  0  0
    4.1716    1.7745    0.0000 C   0  0  0  0  0  0  0  0  0  0  0  0
    4.8010    7.8226    0.0000 C   0  0  0  0  0  0  0  0  0  0  0  0
  1  3  1  0  0  0  0
  2  4  2  0  0  0  0
  3  5  1  0  0  0  0
  3  4  1  0  0  0  0
  4  7  1  0  0  0  0
  5  6  2  0  0  0  0
  5 10  1  0  0  0  0
  7  9  1  0  0  0  0
  7  8  1  0  0  0  0
  9 10  1  0  0  0  0
  9 11  1  0  0  0  0
 10 12  1  0  0  0  0
 10 14  1  0  0  0  0
 11 16  1  0  0  0  0
 13 14  2  0  0  0  0
 14 15  1  0  0  0  0
 15 17  1  0  0  0  0
M  END
