215275
 OpenBabel03021519512D

 21 23  0  0  0  0  0  0  0  0999 V2000
   -1.1996    6.1192    0.0000 S   0  0  0  0  0  0  0  0  0  0  0  0
    0.0139    7.0009    0.0000 C   0  0  0  0  0  0  0  0  0  0  0  0
    1.2274    6.1192    0.0000 C   0  0  0  0  0  0  0  0  0  0  0  0
    0.7639    4.6926    0.0000 C   0  0  0  0  0  0  0  0  0  0  0  0
   -0.7361    4.6926    0.0000 C   0  0  0  0  0  0  0  0  0  0  0  0
    5.5072    7.5098    0.0000 C   0  0  0  0  0  0  0  0  0  0  0  0
    4.3925    8.5135    0.0000 C   0  0  0  0  0  0  0  0  0  0  0  0
    6.9338    7.9733    0.0000 C   0  0  0  0  0  0  0  0  0  0  0  0
    4.7043    9.9807    0.0000 C   0  0  0  0  0  0  0  0  0  0  0  0
    7.2456    9.4405    0.0000 C   0  0  0  0  0  0  0  0  0  0  0  0
    6.1309   10.4442    0.0000 C   0  0  0  0  0  0  0  0  0  0  0  0
    1.0355    2.1088    0.0000 C   0  0  0  0  0  0  0  0  0  0  0  0
    1.9171    0.8952    0.0000 C   0  0  0  0  0  0  0  0  0  0  0  0
   -0.4563    1.9520    0.0000 C   0  0  0  0  0  0  0  0  0  0  0  0
    1.3070   -0.4751    0.0000 C   0  0  0  0  0  0  0  0  0  0  0  0
   -1.0664    0.5817    0.0000 C   0  0  0  0  0  0  0  0  0  0  0  0
   -0.1847   -0.6319    0.0000 C   0  0  0  0  0  0  0  0  0  0  0  0
    1.6456    3.4791    0.0000 N   0  0  0  0  0  0  0  0  0  0  0  0
    2.6540    6.5827    0.0000 C   0  0  0  0  0  0  0  0  0  0  0  0
    3.7687    5.5790    0.0000 O   0  0  0  0  0  0  0  0  0  0  0  0
    2.9659    8.0500    0.0000 N   0  0  0  0  0  0  0  0  0  0  0  0
  1  2  1  0  0  0  0
  1  5  1  0  0  0  0
  2  3  1  0  0  0  0
  3  4  2  0  0  0  0
  3 19  1  0  0  0  0
  4  5  1  0  0  0  0
  4 18  1  0  0  0  0
  6  8  2  0  0  0  0
  6  7  1  0  0  0  0
  7  9  2  0  0  0  0
  7 21  1  0  0  0  0
  8 10  1  0  0  0  0
  9 11  1  0  0  0  0
 10 11  2  0  0  0  0
 12 14  2  0  0  0  0
 12 13  1  0  0  0  0
 12 18  1  0  0  0  0
 13 15  2  0  0  0  0
 14 16  1  0  0  0  0
 15 17  1  0  0  0  0
 16 17  2  0  0  0  0
 19 20  2  0  0  0  0
 19 21  1  0  0  0  0
M  END
