255025
 OpenBabel03021519512D

 15 16  0  0  0  0  0  0  0  0999 V2000
    3.6893    2.9617    0.0000 O   0  0  0  0  0  0  0  0  0  0  0  0
    2.0193    1.9975    0.0000 O   0  0  0  0  0  0  0  0  0  0  0  0
    3.4288    1.4845    0.0000 S   0  0  0  0  0  0  0  0  0  0  0  0
    4.9288    1.4845    0.0000 C   0  0  0  0  0  0  0  0  0  0  0  0
    2.6788    0.1854    0.0000 C   0  0  0  0  0  0  0  0  0  0  0  0
    5.6788    0.1855    0.0000 C   0  0  0  0  0  0  0  0  0  0  0  0
    3.4288   -1.1136    0.0000 C   0  0  0  0  0  0  0  0  0  0  0  0
    4.9288   -1.1136    0.0000 N   0  0  0  0  0  0  0  0  0  0  0  0
    7.1788   -2.4126    0.0000 C   0  0  0  0  0  0  0  0  0  0  0  0
    7.9288   -3.7117    0.0000 N   0  0  0  0  0  0  0  0  0  0  0  0
    7.9288   -1.1136    0.0000 C   0  0  0  0  0  0  0  0  0  0  0  0
    9.4288   -1.1136    0.0000 C   0  0  0  0  0  0  0  0  0  0  0  0
    9.4288   -3.7116    0.0000 C   0  0  0  0  0  0  0  0  0  0  0  0
   10.1788   -2.4126    0.0000 C   0  0  0  0  0  0  0  0  0  0  0  0
    5.6788   -2.4126    0.0000 C   0  0  0  0  0  0  0  0  0  0  0  0
  1  3  2  0  0  0  0
  2  3  2  0  0  0  0
  3  4  1  0  0  0  0
  3  5  1  0  0  0  0
  4  6  1  0  0  0  0
  5  7  1  0  0  0  0
  6  8  1  0  0  0  0
  7  8  1  0  0  0  0
  8 15  1  0  0  0  0
  9 11  2  0  0  0  0
  9 10  1  0  0  0  0
  9 15  1  0  0  0  0
 10 13  2  0  0  0  0
 11 12  1  0  0  0  0
 12 14  2  0  0  0  0
 13 14  1  0  0  0  0
M  END
