11023
 OpenBabel03021519512D

 20 21  0  0  0  0  0  0  0  0999 V2000
    0.8846   -4.8507    0.0000 C   0  0  0  0  0  0  0  0  0  0  0  0
   -0.2645   -3.8865    0.0000 C   0  0  0  0  0  0  0  0  0  0  0  0
    2.2941   -4.3376    0.0000 C   0  0  0  0  0  0  0  0  0  0  0  0
    2.5546   -2.8604    0.0000 C   0  0  0  0  0  0  0  0  0  0  0  0
   -0.0040   -2.4093    0.0000 C   0  0  0  0  0  0  0  0  0  0  0  0
    1.4055   -1.8962    0.0000 C   0  0  0  0  0  0  0  0  0  0  0  0
   -2.9730   -8.1495    0.0000 C   0  0  0  0  0  0  0  0  0  0  0  0
   -1.6740   -8.8995    0.0000 C   0  0  0  0  0  0  0  0  0  0  0  0
   -4.2721   -8.8995    0.0000 C   0  0  0  0  0  0  0  0  0  0  0  0
   -1.6740  -10.3995    0.0000 C   0  0  0  0  0  0  0  0  0  0  0  0
   -4.2721  -10.3995    0.0000 C   0  0  0  0  0  0  0  0  0  0  0  0
   -2.9730  -11.1495    0.0000 C   0  0  0  0  0  0  0  0  0  0  0  0
   -0.3749  -11.1495    0.0000 C   0  0  0  0  0  0  0  0  0  0  0  0
   -0.3749   -8.1495    0.0000 N   0  0  0  0  0  0  0  0  0  0  0  0
   -0.3750   -6.6495    0.0000 C   0  0  0  0  0  0  0  0  0  0  0  0
    0.9241   -5.8995    0.0000 O   0  0  0  0  0  0  0  0  0  0  0  0
   -1.6740   -5.8995    0.0000 C   0  0  0  0  0  0  0  0  0  0  0  0
   -2.9730   -6.6495    0.0000 O   0  0  0  0  0  0  0  0  0  0  0  0
   -1.6740   -4.3995    0.0000 N   0  0  0  0  0  0  0  0  0  0  0  0
   -1.1531   -1.4451    0.0000 C   0  0  0  0  0  0  0  0  0  0  0  0
  1  3  2  0  0  0  0
  1  2  1  0  0  0  0
  2  5  2  0  0  0  0
  2 19  1  0  0  0  0
  3  4  1  0  0  0  0
  4  6  2  0  0  0  0
  5  6  1  0  0  0  0
  5 20  1  0  0  0  0
  7  9  2  0  0  0  0
  7  8  1  0  0  0  0
  8 10  2  0  0  0  0
  8 14  1  0  0  0  0
  9 11  1  0  0  0  0
 10 12  1  0  0  0  0
 10 13  1  0  0  0  0
 11 12  2  0  0  0  0
 14 15  1  0  0  0  0
 15 16  2  0  0  0  0
 15 17  1  0  0  0  0
 17 18  2  0  0  0  0
 17 19  1  0  0  0  0
M  END
