116709
 OpenBabel03021519512D

 27 30  0  0  1  0  0  0  0  0999 V2000
    2.8726    5.5245    0.0000 N   0  0  0  0  0  0  0  0  0  0  0  0
   -1.0245    9.2745    0.0000 C   0  0  0  0  0  0  0  0  0  0  0  0
    0.2745   10.0245    0.0000 C   0  0  0  0  0  0  0  0  0  0  0  0
   -1.0245    7.7745    0.0000 C   0  0  0  0  0  0  0  0  0  0  0  0
    0.2745    7.0245    0.0000 C   0  0  0  0  0  0  0  0  0  0  0  0
    1.5735    9.2745    0.0000 C   0  0  0  0  0  0  0  0  0  0  0  0
    1.5735    7.7745    0.0000 C   0  0  0  0  0  0  0  0  0  0  0  0
    9.3678    4.7745    0.0000 C   0  0  0  0  0  0  0  0  0  0  0  0
   10.6668    5.5245    0.0000 C   0  0  0  0  0  0  0  0  0  0  0  0
    8.0687    5.5245    0.0000 C   0  0  0  0  0  0  0  0  0  0  0  0
   10.6668    7.0245    0.0000 C   0  0  0  0  0  0  0  0  0  0  0  0
    8.0687    7.0245    0.0000 C   0  0  0  0  0  0  0  0  0  0  0  0
    9.3678    7.7745    0.0000 C   0  0  0  0  0  0  0  0  0  0  0  0
    0.2745    5.5245    0.0000 C   0  0  0  0  0  0  0  0  0  0  0  0
    1.5735    4.7745    0.0000 C   0  0  0  0  0  0  0  0  0  0  0  0
   -1.0245    4.7745    0.0000 C   0  0  0  0  0  0  0  0  0  0  0  0
    1.5735    3.2745    0.0000 C   0  0  0  0  0  0  0  0  0  0  0  0
   -1.0245    3.2745    0.0000 C   0  0  0  0  0  0  0  0  0  0  0  0
    2.8726    2.5245    0.0000 C   0  0  0  0  0  0  0  0  0  0  0  0
    4.1716    4.7745    0.0000 C   0  0  3  0  0  0  0  0  0  0  0  0
    4.1716    3.2745    0.0000 C   0  0  0  0  0  0  0  0  0  0  0  0
    0.2745    2.5245    0.0000 C   0  0  0  0  0  0  0  0  0  0  0  0
    2.8726    7.0245    0.0000 C   0  0  0  0  0  0  0  0  0  0  0  0
    4.1716    7.7745    0.0000 O   0  0  0  0  0  0  0  0  0  0  0  0
    5.4707    5.5245    0.0000 C   0  0  0  0  0  0  0  0  0  0  0  0
    6.7697    4.7745    0.0000 C   0  0  0  0  0  0  0  0  0  0  0  0
    6.7697    3.2745    0.0000 O   0  0  0  0  0  0  0  0  0  0  0  0
  1 15  1  0  0  0  0
  1 20  1  0  0  0  0
  1 23  1  0  0  0  0
  2  4  2  0  0  0  0
  2  3  1  0  0  0  0
  3  6  2  0  0  0  0
  4  5  1  0  0  0  0
  5  7  2  0  0  0  0
  6  7  1  0  0  0  0
  7 23  1  0  0  0  0
  8  9  2  0  0  0  0
  8 10  1  0  0  0  0
  9 11  1  0  0  0  0
 10 12  2  0  0  0  0
 10 26  1  0  0  0  0
 11 13  2  0  0  0  0
 12 13  1  0  0  0  0
 14 16  2  0  0  0  0
 14 15  1  0  0  0  0
 15 17  2  0  0  0  0
 16 18  1  0  0  0  0
 17 19  1  0  0  0  0
 17 22  1  0  0  0  0
 18 22  2  0  0  0  0
 19 21  2  0  0  0  0
 20 21  1  0  0  0  0
 20 25  1  0  0  0  0
 23 24  2  0  0  0  0
 25 26  1  0  0  0  0
 26 27  2  0  0  0  0
M  END
