274905
 OpenBabel03021519512D

 17 19  0  0  0  0  0  0  0  0999 V2000
    1.6740    1.3995    0.0000 C   0  0  0  0  0  0  0  0  0  0  0  0
    1.6740   -0.1005    0.0000 C   0  0  0  0  0  0  0  0  0  0  0  0
    2.9731    2.1495    0.0000 C   0  0  0  0  0  0  0  0  0  0  0  0
    2.9731   -0.8505    0.0000 C   0  0  0  0  0  0  0  0  0  0  0  0
    4.2721    1.3995    0.0000 C   0  0  0  0  0  0  0  0  0  0  0  0
    4.2721   -0.1005    0.0000 C   0  0  0  0  0  0  0  0  0  0  0  0
    5.5712    2.1495    0.0000 C   0  0  0  0  0  0  0  0  0  0  0  0
    5.5712   -0.8505    0.0000 C   0  0  0  0  0  0  0  0  0  0  0  0
    6.8702   -0.1004    0.0000 C   0  0  0  0  0  0  0  0  0  0  0  0
    6.8702    1.3996    0.0000 C   0  0  0  0  0  0  0  0  0  0  0  0
    8.1693   -2.3504    0.0000 C   0  0  0  0  0  0  0  0  0  0  0  0
    8.1692   -0.8504    0.0000 C   0  0  0  0  0  0  0  0  0  0  0  0
    9.4683   -0.1004    0.0000 C   0  0  0  0  0  0  0  0  0  0  0  0
    9.4683   -3.1004    0.0000 N   0  0  0  0  0  0  0  0  0  0  0  0
   10.7673   -0.8504    0.0000 N   0  0  0  0  0  0  0  0  0  0  0  0
   10.7673   -2.3504    0.0000 C   0  0  0  0  0  0  0  0  0  0  0  0
    6.8702   -3.1004    0.0000 N   0  0  0  0  0  0  0  0  0  0  0  0
  1  3  2  0  0  0  0
  1  2  1  0  0  0  0
  2  4  2  0  0  0  0
  3  5  1  0  0  0  0
  4  6  1  0  0  0  0
  5  7  1  0  0  0  0
  5  6  2  0  0  0  0
  6  8  1  0  0  0  0
  7 10  2  0  0  0  0
  8  9  2  0  0  0  0
  9 10  1  0  0  0  0
  9 12  1  0  0  0  0
 11 12  1  0  0  0  0
 11 14  2  0  0  0  0
 11 17  1  0  0  0  0
 12 13  2  0  0  0  0
 13 15  1  0  0  0  0
 14 16  1  0  0  0  0
 15 16  2  0  0  0  0
M  END
