42028
 OpenBabel03021519512D

 11 11  0  0  0  0  0  0  0  0999 V2000
    1.3095    5.2500    0.0000 S   0  0  0  0  0  0  0  0  0  0  0  0
    1.3095    2.2500    0.0000 H   0  0  0  0  0  0  0  0  0  0  0  0
    2.6085    3.0000    0.0000 N   0  0  0  0  0  0  0  0  0  0  0  0
    3.9076    0.7500    0.0000 S   0  0  0  0  0  0  0  0  0  0  0  0
    5.2066    3.0000    0.0000 N   0  0  0  0  0  0  0  0  0  0  0  0
    6.5056    2.2500    0.0000 H   0  0  0  0  0  0  0  0  0  0  0  0
    3.9075    5.2500    0.0000 C   0  0  0  0  0  0  0  0  0  0  0  0
    2.6085    4.5000    0.0000 C   0  0  0  0  0  0  0  0  0  0  0  0
    5.2066    4.5000    0.0000 C   0  0  0  0  0  0  0  0  0  0  0  0
    3.9076    2.2500    0.0000 C   0  0  0  0  0  0  0  0  0  0  0  0
    6.5056    5.2500    0.0000 C   0  0  0  0  0  0  0  0  0  0  0  0
  1  8  2  0  0  0  0
  2  3  1  0  0  0  0
  3  8  1  0  0  0  0
  3 10  1  0  0  0  0
  4 10  2  0  0  0  0
  5  9  1  0  0  0  0
  5 10  1  0  0  0  0
  5  6  1  0  0  0  0
  7  9  2  0  0  0  0
  7  8  1  0  0  0  0
  9 11  1  0  0  0  0
M  END
