10416
 OpenBabel03021519512D

 19 22  0  0  0  0  0  0  0  0999 V2000
    1.2937   -7.5144    0.0000 N   0  0  0  0  0  0  0  0  0  0  0  0
    2.6842   -3.2346    0.0000 C   0  0  0  0  0  0  0  0  0  0  0  0
    1.2170   -3.5465    0.0000 C   0  0  0  0  0  0  0  0  0  0  0  0
    3.6879   -4.3493    0.0000 C   0  0  0  0  0  0  0  0  0  0  0  0
    3.2244   -5.7759    0.0000 C   0  0  0  0  0  0  0  0  0  0  0  0
    0.7535   -4.9731    0.0000 C   0  0  0  0  0  0  0  0  0  0  0  0
    1.7572   -6.0878    0.0000 C   0  0  0  0  0  0  0  0  0  0  0  0
    3.6671   -8.8847    0.0000 C   0  0  0  0  0  0  0  0  0  0  0  0
    2.1753   -8.7279    0.0000 C   0  0  0  0  0  0  0  0  0  0  0  0
    4.2772  -10.2550    0.0000 C   0  0  0  0  0  0  0  0  0  0  0  0
    3.3955  -11.4685    0.0000 C   0  0  0  0  0  0  0  0  0  0  0  0
    1.2937   -9.9414    0.0000 C   0  0  0  0  0  0  0  0  0  0  0  0
    1.9038  -11.3117    0.0000 C   0  0  0  0  0  0  0  0  0  0  0  0
   -0.1329   -9.4779    0.0000 C   0  0  0  0  0  0  0  0  0  0  0  0
   -1.4320   -7.2279    0.0000 C   0  0  0  0  0  0  0  0  0  0  0  0
   -0.1329   -7.9779    0.0000 C   0  0  0  0  0  0  0  0  0  0  0  0
   -2.7310   -7.9779    0.0000 C   0  0  0  0  0  0  0  0  0  0  0  0
   -2.7310   -9.4779    0.0000 C   0  0  0  0  0  0  0  0  0  0  0  0
   -1.4320  -10.2279    0.0000 C   0  0  0  0  0  0  0  0  0  0  0  0
  1  7  1  0  0  0  0
  1  9  1  0  0  0  0
  1 16  1  0  0  0  0
  2  4  2  0  0  0  0
  2  3  1  0  0  0  0
  3  6  2  0  0  0  0
  4  5  1  0  0  0  0
  5  7  2  0  0  0  0
  6  7  1  0  0  0  0
  8 10  2  0  0  0  0
  8  9  1  0  0  0  0
  9 12  2  0  0  0  0
 10 11  1  0  0  0  0
 11 13  2  0  0  0  0
 12 13  1  0  0  0  0
 12 14  1  0  0  0  0
 14 16  2  0  0  0  0
 14 19  1  0  0  0  0
 15 17  2  0  0  0  0
 15 16  1  0  0  0  0
 17 18  1  0  0  0  0
 18 19  2  0  0  0  0
M  END
