135412
 OpenBabel03021519512D

 22 23  0  0  0  0  0  0  0  0999 V2000
    2.7275   -7.2758    0.0000 C   0  0  0  0  0  0  0  0  0  0  0  0
    4.0266   -6.5258    0.0000 C   0  0  0  0  0  0  0  0  0  0  0  0
    1.4285   -6.5258    0.0000 C   0  0  0  0  0  0  0  0  0  0  0  0
    4.0266   -5.0258    0.0000 C   0  0  0  0  0  0  0  0  0  0  0  0
    1.4285   -5.0258    0.0000 C   0  0  0  0  0  0  0  0  0  0  0  0
    0.1295   -7.2758    0.0000 C   0  0  0  0  0  0  0  0  0  0  0  0
   -1.1696   -6.5258    0.0000 C   0  0  0  0  0  0  0  0  0  0  0  0
   -2.4686   -7.2758    0.0000 C   0  0  0  0  0  0  0  0  0  0  0  0
    0.1295   -8.7758    0.0000 C   0  0  0  0  0  0  0  0  0  0  0  0
   -2.4686   -8.7758    0.0000 C   0  0  0  0  0  0  0  0  0  0  0  0
    2.7275   -4.2758    0.0000 C   0  0  0  0  0  0  0  0  0  0  0  0
   -1.1696   -9.5258    0.0000 C   0  0  0  0  0  0  0  0  0  0  0  0
   -1.1696   -5.0258    0.0000 C   0  0  0  0  0  0  0  0  0  0  0  0
   -1.1696  -11.0258    0.0000 C   0  0  0  0  0  0  0  0  0  0  0  0
   -2.4686   -4.2758    0.0000 C   0  0  0  0  0  0  0  0  0  0  0  0
   -3.7677   -3.5258    0.0000 N   0  0  0  0  0  0  0  0  0  0  0  0
    1.4285   -9.5258    0.0000 C   0  0  0  0  0  0  0  0  0  0  0  0
    0.1294   -4.2758    0.0000 C   0  0  0  0  0  0  0  0  0  0  0  0
    2.7275   -8.7758    0.0000 C   0  0  0  0  0  0  0  0  0  0  0  0
    2.7275   -2.7758    0.0000 C   0  0  0  0  0  0  0  0  0  0  0  0
    4.0266   -9.5258    0.0000 C   0  0  0  0  0  0  0  0  0  0  0  0
    5.3256  -10.2758    0.0000 N   0  0  0  0  0  0  0  0  0  0  0  0
  1  3  2  0  0  0  0
  1  2  1  0  0  0  0
  1 19  1  0  0  0  0
  2  4  2  0  0  0  0
  3  5  1  0  0  0  0
  3  6  1  0  0  0  0
  4 11  1  0  0  0  0
  5 11  2  0  0  0  0
  5 18  1  0  0  0  0
  6  7  2  0  0  0  0
  6  9  1  0  0  0  0
  7  8  1  0  0  0  0
  7 13  1  0  0  0  0
  8 10  2  0  0  0  0
  9 12  2  0  0  0  0
  9 17  1  0  0  0  0
 10 12  1  0  0  0  0
 11 20  1  0  0  0  0
 12 14  1  0  0  0  0
 13 15  1  0  0  0  0
 15 16  3  0  0  0  0
 19 21  1  0  0  0  0
 21 22  3  0  0  0  0
M  END
