31748
 OpenBabel03021519512D

 13 13  0  0  0  0  0  0  0  0999 V2000
    2.2500   -8.2500    0.0000 I   0  0  0  0  0  0  0  0  0  0  0  0
    3.7500   -2.2500    0.0000 O   0  0  0  0  0  0  0  0  0  0  0  0
    2.2500   -3.7500    0.0000 C   0  0  0  0  0  0  0  0  0  0  0  0
    0.9510   -4.5000    0.0000 C   0  0  0  0  0  0  0  0  0  0  0  0
    3.5490   -4.5000    0.0000 C   0  0  0  0  0  0  0  0  0  0  0  0
    3.5491   -6.0000    0.0000 C   0  0  0  0  0  0  0  0  0  0  0  0
    0.9510   -6.0000    0.0000 C   0  0  0  0  0  0  0  0  0  0  0  0
    2.2500   -6.7500    0.0000 C   0  0  0  0  0  0  0  0  0  0  0  0
    2.2500   -2.2500    0.0000 As  0  0  0  0  0  0  0  0  0  0  0  0
    2.2500   -0.7500    0.0000 O   0  0  0  0  0  0  0  0  0  0  0  0
    0.7500   -2.2500    0.0000 O   0  0  0  0  0  0  0  0  0  0  0  0
    4.8481   -3.7500    0.0000 O   0  0  0  0  0  0  0  0  0  0  0  0
    6.1471   -4.5000    0.0000 C   0  0  0  0  0  0  0  0  0  0  0  0
  1  8  1  0  0  0  0
  2  9  2  0  0  0  0
  3  5  2  0  0  0  0
  3  4  1  0  0  0  0
  3  9  1  0  0  0  0
  4  7  2  0  0  0  0
  5  6  1  0  0  0  0
  5 12  1  0  0  0  0
  6  8  2  0  0  0  0
  7  8  1  0  0  0  0
  9 10  1  0  0  0  0
  9 11  1  0  0  0  0
 12 13  1  0  0  0  0
M  END
