205912
 OpenBabel03021519512D

 21 22  0  0  0  0  0  0  0  0999 V2000
   -1.4672   -1.8119    0.0000 O   0  0  0  0  0  0  0  0  0  0  0  0
   -6.8202   -7.8037    0.0000 C   0  0  0  0  0  0  0  0  0  0  0  0
   -5.5211   -8.5537    0.0000 C   0  0  0  0  0  0  0  0  0  0  0  0
   -8.1192   -8.5537    0.0000 C   0  0  0  0  0  0  0  0  0  0  0  0
   -5.5211  -10.0537    0.0000 C   0  0  0  0  0  0  0  0  0  0  0  0
   -8.1192  -10.0537    0.0000 C   0  0  0  0  0  0  0  0  0  0  0  0
   -6.8202  -10.8037    0.0000 C   0  0  0  0  0  0  0  0  0  0  0  0
    0.0000   -1.5000    0.0000 C   0  0  0  0  0  0  0  0  0  0  0  0
    0.7500   -2.7990    0.0000 C   0  0  0  0  0  0  0  0  0  0  0  0
   -0.2537   -3.9138    0.0000 C   0  0  0  0  0  0  0  0  0  0  0  0
   -1.6240   -3.3037    0.0000 C   0  0  0  0  0  0  0  0  0  0  0  0
  -10.7173  -11.5537    0.0000 N   0  0  0  0  0  0  0  0  0  0  0  0
   -9.4182  -10.8037    0.0000 S   0  0  0  0  0  0  0  0  0  0  0  0
  -10.1682   -9.5046    0.0000 O   0  0  0  0  0  0  0  0  0  0  0  0
   -8.6682  -12.1027    0.0000 O   0  0  0  0  0  0  0  0  0  0  0  0
   -4.2221   -7.8037    0.0000 N   0  0  0  0  0  0  0  0  0  0  0  0
   -4.2221   -6.3037    0.0000 C   0  0  0  0  0  0  0  0  0  0  0  0
   -5.5211   -5.5537    0.0000 S   0  0  0  0  0  0  0  0  0  0  0  0
   -2.9231   -5.5537    0.0000 N   0  0  0  0  0  0  0  0  0  0  0  0
   -2.9231   -4.0537    0.0000 C   0  0  0  0  0  0  0  0  0  0  0  0
   -4.2221   -3.3037    0.0000 O   0  0  0  0  0  0  0  0  0  0  0  0
  1  8  1  0  0  0  0
  1 11  1  0  0  0  0
  2  3  2  0  0  0  0
  2  4  1  0  0  0  0
  3  5  1  0  0  0  0
  3 16  1  0  0  0  0
  4  6  2  0  0  0  0
  5  7  2  0  0  0  0
  6  7  1  0  0  0  0
  6 13  1  0  0  0  0
  8  9  2  0  0  0  0
  9 10  1  0  0  0  0
 10 11  2  0  0  0  0
 11 20  1  0  0  0  0
 12 13  1  0  0  0  0
 13 14  2  0  0  0  0
 13 15  2  0  0  0  0
 16 17  1  0  0  0  0
 17 18  2  0  0  0  0
 17 19  1  0  0  0  0
 19 20  1  0  0  0  0
 20 21  2  0  0  0  0
M  END
