261037
 OpenBabel03021519512D

 14 14  0  0  1  0  0  0  0  0999 V2000
   -3.0349    0.1803    0.0000 N   0  0  0  0  0  0  0  0  0  0  0  0
   -0.6164   -0.0231    0.0000 N   0  0  0  0  0  0  0  0  0  0  0  0
   -0.9587    1.4373    0.0000 C   0  0  0  0  0  0  0  0  0  0  0  0
   -2.4534    1.5630    0.0000 C   0  0  0  0  0  0  0  0  0  0  0  0
   -1.8995   -0.8000    0.0000 C   0  0  0  0  0  0  0  0  0  0  0  0
   -2.0252   -2.2947    0.0000 N   0  3  0  0  0  0  0  0  0  0  0  0
   -0.7936   -3.1509    0.0000 O   0  5  0  0  0  0  0  0  0  0  0  0
   -3.3826   -2.9332    0.0000 O   0  0  0  0  0  0  0  0  0  0  0  0
    0.7663   -0.6046    0.0000 C   0  0  0  0  0  0  0  0  0  0  0  0
    1.9612    0.3022    0.0000 C   0  0  3  0  0  0  0  0  0  0  0  0
    3.3440   -0.2793    0.0000 O   0  0  0  0  0  0  0  0  0  0  0  0
    1.7734    1.7904    0.0000 C   0  0  0  0  0  0  0  0  0  0  0  0
    2.9684    2.6971    0.0000 O   0  0  0  0  0  0  0  0  0  0  0  0
    4.3511    2.1156    0.0000 C   0  0  0  0  0  0  0  0  0  0  0  0
  1  5  2  0  0  0  0
  1  4  1  0  0  0  0
  2  3  1  0  0  0  0
  2  5  1  0  0  0  0
  2  9  1  0  0  0  0
  3  4  2  0  0  0  0
  5  6  1  0  0  0  0
  6  7  1  0  0  0  0
  6  8  2  0  0  0  0
  9 10  1  0  0  0  0
 10 11  1  0  0  0  0
 10 12  1  0  0  0  0
 12 13  1  0  0  0  0
 13 14  1  0  0  0  0
M  CHG  2   6   1   7  -1
M  END
