97090
 OpenBabel03021519512D

 12 13  0  0  0  0  0  0  0  0999 V2000
   -0.6145    3.5112    0.0000 O   0  0  0  0  0  0  0  0  0  0  0  0
    0.6846    5.7612    0.0000 C   0  0  0  0  0  0  0  0  0  0  0  0
    0.6846    4.2612    0.0000 C   0  0  0  0  0  0  0  0  0  0  0  0
    1.9836    6.5112    0.0000 C   0  0  0  0  0  0  0  0  0  0  0  0
    1.9836    3.5112    0.0000 N   0  0  0  0  0  0  0  0  0  0  0  0
    1.9836    2.0112    0.0000 H   0  0  0  0  0  0  0  0  0  0  0  0
    3.2826    4.2612    0.0000 C   0  0  0  0  0  0  0  0  0  0  0  0
    3.2826    5.7612    0.0000 N   0  0  0  0  0  0  0  0  0  0  0  0
    4.7092    6.2248    0.0000 N   0  0  0  0  0  0  0  0  0  0  0  0
    4.7092    3.7977    0.0000 N   0  0  0  0  0  0  0  0  0  0  0  0
    5.5909    5.0112    0.0000 C   0  0  0  0  0  0  0  0  0  0  0  0
    1.9836    8.0112    0.0000 N   0  0  0  0  0  0  0  0  0  0  0  0
  1  3  2  0  0  0  0
  2  4  2  0  0  0  0
  2  3  1  0  0  0  0
  3  5  1  0  0  0  0
  4  8  1  0  0  0  0
  4 12  1  0  0  0  0
  5  7  1  0  0  0  0
  5  6  1  0  0  0  0
  7  8  1  0  0  0  0
  7 10  2  0  0  0  0
  8  9  1  0  0  0  0
  9 11  2  0  0  0  0
 10 11  1  0  0  0  0
M  END
