99657
 OpenBabel03021519512D

 22 24  0  0  0  0  0  0  0  0999 V2000
   -5.7262   -1.6589    0.0000 O   0  0  0  0  0  0  0  0  0  0  0  0
   -4.4568    0.6079    0.0000 N   0  0  0  0  0  0  0  0  0  0  0  0
   -3.1873    2.8747    0.0000 S   0  0  0  0  0  0  0  0  0  0  0  0
   -3.1284   -1.6249    0.0000 N   0  0  0  0  0  0  0  0  0  0  0  0
   -0.4385    1.1241    0.0000 N   0  0  0  0  0  0  0  0  0  0  0  0
    0.0063    2.5566    0.0000 H   0  0  0  0  0  0  0  0  0  0  0  0
   -0.4067   -1.3027    0.0000 N   0  0  0  0  0  0  0  0  0  0  0  0
    1.9589   -0.0581    0.0000 S   0  0  0  0  0  0  0  0  0  0  0  0
    4.9198   -0.5404    0.0000 N   0  0  0  0  0  0  0  0  0  0  0  0
   -3.1676    1.3749    0.0000 C   0  0  0  0  0  0  0  0  0  0  0  0
   -1.8589    0.6419    0.0000 C   0  0  0  0  0  0  0  0  0  0  0  0
   -1.8393   -0.8579    0.0000 C   0  0  0  0  0  0  0  0  0  0  0  0
    4.5379    0.9102    0.0000 C   0  0  0  0  0  0  0  0  0  0  0  0
    5.7995    1.7217    0.0000 C   0  0  0  0  0  0  0  0  0  0  0  0
    6.9611    0.7726    0.0000 C   0  0  0  0  0  0  0  0  0  0  0  0
    6.4174   -0.6254    0.0000 C   0  0  0  0  0  0  0  0  0  0  0  0
    0.4590   -0.0778    0.0000 C   0  0  0  0  0  0  0  0  0  0  0  0
   -4.4371   -0.8919    0.0000 C   0  0  0  0  0  0  0  0  0  0  0  0
   -5.7655    1.3409    0.0000 C   0  0  0  0  0  0  0  0  0  0  0  0
   -3.1087   -3.1247    0.0000 C   0  0  0  0  0  0  0  0  0  0  0  0
    2.4903   -1.4608    0.0000 C   0  0  0  0  0  0  0  0  0  0  0  0
    3.9708   -1.7020    0.0000 C   0  0  0  0  0  0  0  0  0  0  0  0
  1 18  2  0  0  0  0
  2 10  1  0  0  0  0
  2 18  1  0  0  0  0
  2 19  1  0  0  0  0
  3 10  2  0  0  0  0
  4 12  1  0  0  0  0
  4 18  1  0  0  0  0
  4 20  1  0  0  0  0
  5 11  1  0  0  0  0
  5 17  1  0  0  0  0
  5  6  1  0  0  0  0
  7 17  2  0  0  0  0
  7 12  1  0  0  0  0
  8 17  1  0  0  0  0
  8 21  1  0  0  0  0
  9 13  1  0  0  0  0
  9 16  1  0  0  0  0
  9 22  1  0  0  0  0
 10 11  1  0  0  0  0
 11 12  2  0  0  0  0
 13 14  1  0  0  0  0
 14 15  1  0  0  0  0
 15 16  1  0  0  0  0
 21 22  1  0  0  0  0
M  END
