59620
 OpenBabel03021519512D

 36 40  0  0  1  0  0  0  0  0999 V2000
   -2.1029  -13.5248    0.0000 H   0  0  0  0  0  0  0  0  0  0  0  0
   -1.8951  -10.9350    0.0000 H   0  0  0  0  0  0  0  0  0  0  0  0
   -2.9748   -5.6355    0.0000 O   0  0  0  0  0  0  0  0  0  0  0  0
   -1.6873   -8.3452    0.0000 H   0  0  0  0  0  0  0  0  0  0  0  0
    0.5897   -9.7453    0.0000 H   0  0  0  0  0  0  0  0  0  0  0  0
   -1.1004   -3.8622    0.0000 O   0  0  0  0  0  0  0  0  0  0  0  0
    0.4473   -7.5669    0.0000 H   0  0  0  0  0  0  0  0  0  0  0  0
    2.8058   -7.6487    0.0000 H   0  0  0  0  0  0  0  0  0  0  0  0
    1.4969   -3.7981    0.0000 C   0  0  0  0  0  0  0  0  0  0  0  0
    0.2168   -4.5799    0.0000 C   0  0  0  0  0  0  0  0  0  0  0  0
    2.8140   -4.5158    0.0000 C   0  0  0  0  0  0  0  0  0  0  0  0
    2.8510   -6.0154    0.0000 C   0  0  0  0  0  0  0  0  0  0  0  0
    0.2538   -6.0795    0.0000 C   0  0  1  0  0  0  0  0  0  0  0  0
    1.5709   -6.7972    0.0000 C   0  0  2  0  0  0  0  0  0  0  0  0
   -0.8359   -7.1103    0.0000 C   0  0  1  0  0  0  0  0  0  0  0  0
   -2.3311   -6.9904    0.0000 C   0  0  0  0  0  0  0  0  0  0  0  0
   -3.1825   -8.2253    0.0000 C   0  0  0  0  0  0  0  0  0  0  0  0
    1.2953   -8.2717    0.0000 C   0  0  0  0  0  0  0  0  0  0  0  0
   -0.1922   -8.4652    0.0000 C   0  0  1  0  0  0  0  0  0  0  0  0
   -2.5388   -9.5801    0.0000 C   0  0  1  0  0  0  0  0  0  0  0  0
   -1.0436   -9.7001    0.0000 C   0  0  1  0  0  0  0  0  0  0  0  0
   -3.3903  -10.8150    0.0000 C   0  0  1  0  0  0  0  0  0  0  0  0
   -4.8855  -10.6951    0.0000 C   0  0  0  0  0  0  0  0  0  0  0  0
   -5.7370  -11.9300    0.0000 C   0  0  0  0  0  0  0  0  0  0  0  0
   -0.3999  -11.0550    0.0000 C   0  0  0  0  0  0  0  0  0  0  0  0
   -2.7466  -12.1699    0.0000 C   0  0  1  0  0  0  0  0  0  0  0  0
   -5.0933  -13.2848    0.0000 C   0  0  1  0  0  0  0  0  0  0  0  0
   -1.2514  -12.2899    0.0000 C   0  0  0  0  0  0  0  0  0  0  0  0
   -3.5981  -13.4048    0.0000 C   0  0  0  0  0  0  0  0  0  0  0  0
   -5.9448  -14.5197    0.0000 O   0  0  0  0  0  0  0  0  0  0  0  0
   -7.4400  -14.3998    0.0000 C   0  0  0  0  0  0  0  0  0  0  0  0
   -8.2914  -15.6347    0.0000 O   0  0  0  0  0  0  0  0  0  0  0  0
   -8.0837  -13.0449    0.0000 C   0  0  0  0  0  0  0  0  0  0  0  0
   -4.0340   -9.4602    0.0000 C   0  0  0  0  0  0  0  0  0  0  0  0
   -1.3344   -5.6956    0.0000 C   0  0  0  0  0  0  0  0  0  0  0  0
    4.0942   -3.7340    0.0000 C   0  0  0  0  0  0  0  0  0  0  0  0
  3 16  2  0  0  0  0
  6 10  2  0  0  0  0
  9 11  2  0  0  0  0
  9 10  1  0  0  0  0
 10 13  1  0  0  0  0
 11 12  1  0  0  0  0
 11 36  1  0  0  0  0
 12 14  1  0  0  0  0
 13  7  1  6  0  0  0
 13 15  1  0  0  0  0
 13 14  1  0  0  0  0
 14  8  1  6  0  0  0
 14 18  1  0  0  0  0
 15 16  1  0  0  0  0
 15 19  1  0  0  0  0
 15 35  1  1  0  0  0
 16 17  1  0  0  0  0
 17 20  1  0  0  0  0
 18 19  1  0  0  0  0
 19  5  1  6  0  0  0
 19 21  1  0  0  0  0
 20  2  1  6  0  0  0
 20 21  1  0  0  0  0
 20 22  1  0  0  0  0
 21  4  1  1  0  0  0
 21 25  1  0  0  0  0
 22 23  1  0  0  0  0
 22 26  1  0  0  0  0
 22 34  1  1  0  0  0
 23 24  1  0  0  0  0
 24 27  1  0  0  0  0
 25 28  1  0  0  0  0
 26  1  1  6  0  0  0
 26 28  1  0  0  0  0
 26 29  1  0  0  0  0
 27 29  1  0  0  0  0
 27 30  1  1  0  0  0
 30 31  1  0  0  0  0
 31 32  2  0  0  0  0
 31 33  1  0  0  0  0
M  END
