241998
 OpenBabel03021519512D

 21 23  0  0  1  0  0  0  0  0999 V2000
   -2.7953    4.6914    0.0000 C   0  0  0  0  0  0  0  0  0  0  0  0
   -2.0453    3.3924    0.0000 C   0  0  0  0  0  0  0  0  0  0  0  0
   -2.0453    5.9905    0.0000 C   0  0  3  0  0  0  0  0  0  0  0  0
   -2.0453    4.2584    0.0000 C   0  0  0  0  0  0  0  0  0  0  0  0
   -0.5453    3.3924    0.0000 C   0  0  3  0  0  0  0  0  0  0  0  0
   -0.5453    5.9905    0.0000 C   0  0  3  0  0  0  0  0  0  0  0  0
    0.2047    4.6914    0.0000 C   0  0  3  0  0  0  0  0  0  0  0  0
    0.4584    7.1052    0.0000 C   0  0  0  0  0  0  0  0  0  0  0  0
    1.6719    5.0033    0.0000 C   0  0  0  0  0  0  0  0  0  0  0  0
    0.1465    8.5724    0.0000 O   0  0  0  0  0  0  0  0  0  0  0  0
    2.7866    3.9996    0.0000 O   0  0  0  0  0  0  0  0  0  0  0  0
    1.8287    6.4951    0.0000 N   0  0  0  0  0  0  0  0  0  0  0  0
    4.4268   10.9951    0.0000 C   0  0  0  0  0  0  0  0  0  0  0  0
    3.1277   11.7451    0.0000 O   0  0  0  0  0  0  0  0  0  0  0  0
    3.1277    8.7451    0.0000 C   0  0  0  0  0  0  0  0  0  0  0  0
    3.1277    7.2451    0.0000 C   0  0  3  0  0  0  0  0  0  0  0  0
    4.4268    6.4951    0.0000 C   0  0  0  0  0  0  0  0  0  0  0  0
    4.4268    4.9951    0.0000 O   0  0  0  0  0  0  0  0  0  0  0  0
    5.7258    7.2451    0.0000 O   0  0  0  0  0  0  0  0  0  0  0  0
    4.4268    9.4951    0.0000 C   0  0  0  0  0  0  0  0  0  0  0  0
    5.7258   11.7451    0.0000 N   0  0  0  0  0  0  0  0  0  0  0  0
  1  3  1  0  0  0  0
  1  2  1  0  0  0  0
  2  5  1  0  0  0  0
  3  6  1  0  0  0  0
  3  4  1  0  0  0  0
  4  5  1  0  0  0  0
  5  7  1  0  0  0  0
  6  8  1  0  0  0  0
  6  7  1  0  0  0  0
  7  9  1  0  0  0  0
  8 10  2  0  0  0  0
  8 12  1  0  0  0  0
  9 12  1  0  0  0  0
  9 11  2  0  0  0  0
 12 16  1  0  0  0  0
 13 14  2  0  0  0  0
 13 20  1  0  0  0  0
 13 21  1  0  0  0  0
 15 16  1  0  0  0  0
 15 20  1  0  0  0  0
 16 17  1  0  0  0  0
 17 18  2  0  0  0  0
 17 19  1  0  0  0  0
M  END
