29851
 OpenBabel03021519512D

 10 11  0  0  0  0  0  0  0  0999 V2000
    0.6227    1.5904    0.0000 S   0  0  0  0  0  0  0  0  0  0  0  0
    0.9909   -0.8086    0.0000 N   0  0  0  0  0  0  0  0  0  0  0  0
    3.1609    0.7521    0.0000 O   0  0  0  0  0  0  0  0  0  0  0  0
   -2.1974    1.1576    0.0000 C   0  0  0  0  0  0  0  0  0  0  0  0
   -2.8848   -0.1756    0.0000 C   0  0  0  0  0  0  0  0  0  0  0  0
   -0.7170    0.9159    0.0000 C   0  0  0  0  0  0  0  0  0  0  0  0
   -0.4895   -0.5668    0.0000 C   0  0  0  0  0  0  0  0  0  0  0  0
   -1.8293   -1.2413    0.0000 C   0  0  0  0  0  0  0  0  0  0  0  0
    1.6783    0.5246    0.0000 C   0  0  0  0  0  0  0  0  0  0  0  0
    1.6654   -2.1484    0.0000 C   0  0  0  0  0  0  0  0  0  0  0  0
  1  6  1  0  0  0  0
  1  9  1  0  0  0  0
  2  7  1  0  0  0  0
  2  9  1  0  0  0  0
  2 10  1  0  0  0  0
  3  9  2  0  0  0  0
  4  5  1  0  0  0  0
  4  6  1  0  0  0  0
  5  8  1  0  0  0  0
  6  7  2  0  0  0  0
  7  8  1  0  0  0  0
M  END
