148170
 OpenBabel03021519512D

 15 16  0  0  0  0  0  0  0  0999 V2000
    0.7500    3.3901    0.0000 Cl  0  0  0  0  0  0  0  0  0  0  0  0
    2.2500    3.3901    0.0000 C   0  0  0  0  0  0  0  0  0  0  0  0
    3.0000    4.6891    0.0000 C   0  0  0  0  0  0  0  0  0  0  0  0
    3.0000    2.0911    0.0000 C   0  0  0  0  0  0  0  0  0  0  0  0
    4.5000    2.0911    0.0000 C   0  0  0  0  0  0  0  0  0  0  0  0
    4.5000    4.6891    0.0000 C   0  0  0  0  0  0  0  0  0  0  0  0
    5.2500    3.3901    0.0000 C   0  0  0  0  0  0  0  0  0  0  0  0
    6.7500    3.3901    0.0000 N   0  0  0  0  0  0  0  0  0  0  0  0
    7.1682    6.0302    0.0000 S   0  0  0  0  0  0  0  0  0  0  0  0
    7.6317    4.6036    0.0000 C   0  0  0  0  0  0  0  0  0  0  0  0
    7.6317    2.1766    0.0000 C   0  0  0  0  0  0  0  0  0  0  0  0
    8.1718    7.1449    0.0000 H   0  0  0  0  0  0  0  0  0  0  0  0
    9.0583    4.1401    0.0000 N   0  0  0  0  0  0  0  0  0  0  0  0
    9.0583    2.6401    0.0000 N   0  0  0  0  0  0  0  0  0  0  0  0
    7.1682    0.7500    0.0000 N   0  0  0  0  0  0  0  0  0  0  0  0
  1  2  1  0  0  0  0
  2  3  2  0  0  0  0
  2  4  1  0  0  0  0
  3  6  1  0  0  0  0
  4  5  2  0  0  0  0
  5  7  1  0  0  0  0
  6  7  2  0  0  0  0
  7  8  1  0  0  0  0
  8 10  1  0  0  0  0
  8 11  1  0  0  0  0
  9 12  1  0  0  0  0
  9 10  1  0  0  0  0
 10 13  2  0  0  0  0
 11 14  2  0  0  0  0
 11 15  1  0  0  0  0
 13 14  1  0  0  0  0
M  END
