332473
 OpenBabel03021519512D

 15 16  0  0  0  0  0  0  0  0999 V2000
    3.1771    2.7990    0.0000 C   0  0  0  0  0  0  0  0  0  0  0  0
    3.1771    1.2990    0.0000 N   0  0  0  0  0  0  0  0  0  0  0  0
    4.6036    3.2626    0.0000 C   0  0  0  0  0  0  0  0  0  0  0  0
    4.6036    0.8355    0.0000 N   0  0  0  0  0  0  0  0  0  0  0  0
    5.4853    2.0490    0.0000 N   0  0  0  0  0  0  0  0  0  0  0  0
    6.9853    2.0490    0.0000 C   0  0  0  0  0  0  0  0  0  0  0  0
    7.7353    3.3481    0.0000 C   0  0  0  0  0  0  0  0  0  0  0  0
    7.7353    0.7500    0.0000 C   0  0  0  0  0  0  0  0  0  0  0  0
    9.2353    0.7500    0.0000 C   0  0  0  0  0  0  0  0  0  0  0  0
    9.2353    3.3481    0.0000 C   0  0  0  0  0  0  0  0  0  0  0  0
    9.9853    2.0490    0.0000 C   0  0  0  0  0  0  0  0  0  0  0  0
   11.4853    2.0490    0.0000 Cl  0  0  0  0  0  0  0  0  0  0  0  0
    1.9635    3.6807    0.0000 C   0  0  0  0  0  0  0  0  0  0  0  0
    0.7500    4.5624    0.0000 N   0  0  0  0  0  0  0  0  0  0  0  0
    5.0672    4.6891    0.0000 N   0  0  0  0  0  0  0  0  0  0  0  0
  1  3  2  0  0  0  0
  1  2  1  0  0  0  0
  1 13  1  0  0  0  0
  2  4  2  0  0  0  0
  3  5  1  0  0  0  0
  3 15  1  0  0  0  0
  4  5  1  0  0  0  0
  5  6  1  0  0  0  0
  6  7  2  0  0  0  0
  6  8  1  0  0  0  0
  7 10  1  0  0  0  0
  8  9  2  0  0  0  0
  9 11  1  0  0  0  0
 10 11  2  0  0  0  0
 11 12  1  0  0  0  0
 13 14  3  0  0  0  0
M  END
