59430
 OpenBabel03021519512D

 19 20  0  0  0  0  0  0  0  0999 V2000
   -2.3235   -8.5245    0.0000 N   0  0  0  0  0  0  0  0  0  0  0  0
   -1.0245  -10.7745    0.0000 N   0  0  0  0  0  0  0  0  0  0  0  0
   -1.0245   -6.2745    0.0000 O   0  0  0  0  0  0  0  0  0  0  0  0
   -1.0245  -12.2745    0.0000 H   0  0  0  0  0  0  0  0  0  0  0  0
    4.1717   -3.2745    0.0000 Cl  0  0  0  0  0  0  0  0  0  0  0  0
   -1.0245   -7.7745    0.0000 C   0  0  0  0  0  0  0  0  0  0  0  0
    0.2745   -8.5245    0.0000 C   0  0  0  0  0  0  0  0  0  0  0  0
    0.2745  -10.0245    0.0000 C   0  0  0  0  0  0  0  0  0  0  0  0
    0.2745   -5.5245    0.0000 C   0  0  0  0  0  0  0  0  0  0  0  0
    0.2745   -4.0245    0.0000 C   0  0  0  0  0  0  0  0  0  0  0  0
    1.5736   -6.2745    0.0000 C   0  0  0  0  0  0  0  0  0  0  0  0
    1.5736   -3.2745    0.0000 C   0  0  0  0  0  0  0  0  0  0  0  0
    2.8726   -5.5245    0.0000 C   0  0  0  0  0  0  0  0  0  0  0  0
    2.8726   -4.0245    0.0000 C   0  0  0  0  0  0  0  0  0  0  0  0
   -2.3235  -10.0245    0.0000 C   0  0  0  0  0  0  0  0  0  0  0  0
   -3.6226  -10.7745    0.0000 S   0  0  0  0  0  0  0  0  0  0  0  0
   -4.9216  -10.0245    0.0000 C   0  0  0  0  0  0  0  0  0  0  0  0
    1.5736  -10.7745    0.0000 O   0  0  0  0  0  0  0  0  0  0  0  0
    1.5736   -7.7745    0.0000 N   0  0  0  0  0  0  0  0  0  0  0  0
  1 15  2  0  0  0  0
  1  6  1  0  0  0  0
  2  8  1  0  0  0  0
  2 15  1  0  0  0  0
  2  4  1  0  0  0  0
  3  6  2  0  0  0  0
  5 14  1  0  0  0  0
  6  7  1  0  0  0  0
  7  8  2  0  0  0  0
  7 19  1  0  0  0  0
  8 18  1  0  0  0  0
  9 10  2  0  0  0  0
  9 11  1  0  0  0  0
 10 12  1  0  0  0  0
 11 13  2  0  0  0  0
 11 19  1  0  0  0  0
 12 14  2  0  0  0  0
 13 14  1  0  0  0  0
 15 16  1  0  0  0  0
 16 17  1  0  0  0  0
M  END
