37812
 OpenBabel03021519512D

 15 17  0  0  0  0  0  0  0  0999 V2000
   -2.0490   -0.7500    0.0000 C   0  0  0  0  0  0  0  0  0  0  0  0
   -7.9063   -0.9510    0.0000 C   0  0  0  0  0  0  0  0  0  0  0  0
   -9.4063   -0.9510    0.0000 C   0  0  0  0  0  0  0  0  0  0  0  0
   -0.7500   -1.5000    0.0000 C   0  0  0  0  0  0  0  0  0  0  0  0
   -3.3481   -1.5000    0.0000 C   0  0  0  0  0  0  0  0  0  0  0  0
   -5.6563   -2.2500    0.0000 C   0  0  0  0  0  0  0  0  0  0  0  0
   -7.1563   -2.2500    0.0000 C   0  0  0  0  0  0  0  0  0  0  0  0
  -10.1563   -2.2500    0.0000 C   0  0  0  0  0  0  0  0  0  0  0  0
   -0.7500   -3.0000    0.0000 C   0  0  0  0  0  0  0  0  0  0  0  0
   -3.3481   -3.0000    0.0000 C   0  0  0  0  0  0  0  0  0  0  0  0
   -7.9063   -3.5491    0.0000 C   0  0  0  0  0  0  0  0  0  0  0  0
   -2.0490   -3.7500    0.0000 C   0  0  0  0  0  0  0  0  0  0  0  0
   -9.4063   -3.5491    0.0000 N   0  0  0  0  0  0  0  0  0  0  0  0
   -4.7747   -1.0365    0.0000 N   0  0  0  0  0  0  0  0  0  0  0  0
   -4.7747   -3.4635    0.0000 S   0  0  0  0  0  0  0  0  0  0  0  0
  1  4  2  0  0  0  0
  1  5  1  0  0  0  0
  2  3  1  0  0  0  0
  2  7  2  0  0  0  0
  3  8  2  0  0  0  0
  4  9  1  0  0  0  0
  5 14  1  0  0  0  0
  5 10  2  0  0  0  0
  6 14  2  0  0  0  0
  6  7  1  0  0  0  0
  6 15  1  0  0  0  0
  7 11  1  0  0  0  0
  8 13  1  0  0  0  0
  9 12  2  0  0  0  0
 10 15  1  0  0  0  0
 10 12  1  0  0  0  0
 11 13  2  0  0  0  0
M  END
