143974
 OpenBabel03021519512D

 23 24  0  0  0  0  0  0  0  0999 V2000
    6.3858    3.0950    0.0000 N   0  0  0  0  0  0  0  0  0  0  0  0
    8.3493    1.6684    0.0000 N   0  0  0  0  0  0  0  0  0  0  0  0
    5.9223    1.6684    0.0000 N   0  0  0  0  0  0  0  0  0  0  0  0
    4.4957    1.2049    0.0000 P   0  0  0  0  0  0  0  0  0  0  0  0
    4.9592   -0.2217    0.0000 O   0  0  0  0  0  0  0  0  0  0  0  0
    9.7339   -0.7132    0.0000 C   0  0  0  0  0  0  0  0  0  0  0  0
    8.4348   -1.4632    0.0000 C   0  0  0  0  0  0  0  0  0  0  0  0
   11.0329   -1.4632    0.0000 C   0  0  0  0  0  0  0  0  0  0  0  0
   11.0329   -2.9632    0.0000 C   0  0  0  0  0  0  0  0  0  0  0  0
    8.4348   -2.9632    0.0000 C   0  0  0  0  0  0  0  0  0  0  0  0
    9.7339   -3.7132    0.0000 C   0  0  0  0  0  0  0  0  0  0  0  0
    7.8858    3.0950    0.0000 C   0  0  0  0  0  0  0  0  0  0  0  0
    7.1358    0.7867    0.0000 C   0  0  0  0  0  0  0  0  0  0  0  0
    8.7675    4.3085    0.0000 C   0  0  0  0  0  0  0  0  0  0  0  0
    8.1574    5.6789    0.0000 C   0  0  0  0  0  0  0  0  0  0  0  0
   10.2592    4.1517    0.0000 C   0  0  0  0  0  0  0  0  0  0  0  0
    4.0322    2.6315    0.0000 N   0  0  0  0  0  0  0  0  0  0  0  0
    5.0358    3.7462    0.0000 C   0  0  0  0  0  0  0  0  0  0  0  0
    2.5649    2.9433    0.0000 C   0  0  0  0  0  0  0  0  0  0  0  0
    7.1358   -0.7133    0.0000 N   0  0  0  0  0  0  0  0  0  0  0  0
    3.0691    0.7414    0.0000 N   0  0  0  0  0  0  0  0  0  0  0  0
    1.9544    1.7451    0.0000 C   0  0  0  0  0  0  0  0  0  0  0  0
    2.7572   -0.7259    0.0000 C   0  0  0  0  0  0  0  0  0  0  0  0
  1 12  2  0  0  0  0
  1  3  1  0  0  0  0
  2 13  2  0  0  0  0
  2 12  1  0  0  0  0
  3  4  1  0  0  0  0
  3 13  1  0  0  0  0
  4  5  2  0  0  0  0
  4 17  1  0  0  0  0
  4 21  1  0  0  0  0
  6  8  2  0  0  0  0
  6  7  1  0  0  0  0
  7 10  2  0  0  0  0
  7 20  1  0  0  0  0
  8  9  1  0  0  0  0
  9 11  2  0  0  0  0
 10 11  1  0  0  0  0
 12 14  1  0  0  0  0
 13 20  1  0  0  0  0
 14 15  1  0  0  0  0
 14 16  1  0  0  0  0
 17 18  1  0  0  0  0
 17 19  1  0  0  0  0
 21 22  1  0  0  0  0
 21 23  1  0  0  0  0
M  END
