157725
 OpenBabel03021519512D

 23 25  0  0  0  0  0  0  0  0999 V2000
   -9.8709   -0.0746    0.0000 O   0  0  0  0  0  0  0  0  0  0  0  0
   -9.8215    3.9120    0.0000 N   0  0  0  0  0  0  0  0  0  0  0  0
   -7.7201    1.2768    0.0000 N   0  0  0  0  0  0  0  0  0  0  0  0
   -7.1710    6.8128    0.0000 N   0  0  0  0  0  0  0  0  0  0  0  0
   -3.4861    5.5104    0.0000 Cl  0  0  0  0  0  0  0  0  0  0  0  0
   -8.4701    9.0628    0.0000 C   0  0  0  0  0  0  0  0  0  0  0  0
   -7.1710    8.3128    0.0000 C   0  0  0  0  0  0  0  0  0  0  0  0
   -9.7691    8.3128    0.0000 C   0  0  0  0  0  0  0  0  0  0  0  0
   -9.7691    6.8128    0.0000 C   0  0  0  0  0  0  0  0  0  0  0  0
   -8.4701    6.0628    0.0000 C   0  0  0  0  0  0  0  0  0  0  0  0
   -8.4701    4.5628    0.0000 C   0  0  0  0  0  0  0  0  0  0  0  0
   -7.1186    3.9120    0.0000 C   0  0  0  0  0  0  0  0  0  0  0  0
   -6.0190    4.9322    0.0000 C   0  0  0  0  0  0  0  0  0  0  0  0
   -4.5857    4.4901    0.0000 C   0  0  0  0  0  0  0  0  0  0  0  0
   -4.2519    3.0277    0.0000 C   0  0  0  0  0  0  0  0  0  0  0  0
   -6.7848    2.4496    0.0000 C   0  0  0  0  0  0  0  0  0  0  0  0
   -5.3515    2.0075    0.0000 C   0  0  0  0  0  0  0  0  0  0  0  0
  -10.1553    2.4496    0.0000 C   0  0  0  0  0  0  0  0  0  0  0  0
   -9.2201    1.2769    0.0000 C   0  0  0  0  0  0  0  0  0  0  0  0
   -7.0693   -0.0746    0.0000 C   0  0  0  0  0  0  0  0  0  0  0  0
   -5.5734   -0.1867    0.0000 C   0  0  0  0  0  0  0  0  0  0  0  0
   -4.7285    1.0526    0.0000 O   0  0  0  0  0  0  0  0  0  0  0  0
   -4.9226   -1.5382    0.0000 O   0  0  0  0  0  0  0  0  0  0  0  0
  1 19  2  0  0  0  0
  2 11  2  0  0  0  0
  2 18  1  0  0  0  0
  3 16  1  0  0  0  0
  3 19  1  0  0  0  0
  3 20  1  0  0  0  0
  4 10  2  0  0  0  0
  4  7  1  0  0  0  0
  5 14  1  0  0  0  0
  6  7  2  0  0  0  0
  6  8  1  0  0  0  0
  8  9  2  0  0  0  0
  9 10  1  0  0  0  0
 10 11  1  0  0  0  0
 11 12  1  0  0  0  0
 12 16  2  0  0  0  0
 12 13  1  0  0  0  0
 13 14  2  0  0  0  0
 14 15  1  0  0  0  0
 15 17  2  0  0  0  0
 16 17  1  0  0  0  0
 18 19  1  0  0  0  0
 20 21  1  0  0  0  0
 21 22  2  0  0  0  0
 21 23  1  0  0  0  0
M  END
