102025
 OpenBabel03021519512D

 15 15  0  0  0  0  0  0  0  0999 V2000
    0.7500    5.2500    0.0000 O   0  0  0  0  0  0  0  0  0  0  0  0
    0.7500    2.2500    0.0000 H   0  0  0  0  0  0  0  0  0  0  0  0
    2.0490    3.0000    0.0000 N   0  0  0  0  0  0  0  0  0  0  0  0
    3.3481    0.7500    0.0000 S   0  0  0  0  0  0  0  0  0  0  0  0
    4.6471    3.0000    0.0000 N   0  0  0  0  0  0  0  0  0  0  0  0
    5.9462    2.2500    0.0000 H   0  0  0  0  0  0  0  0  0  0  0  0
    4.6471    4.5000    0.0000 C   0  0  0  0  0  0  0  0  0  0  0  0
    3.3481    5.2500    0.0000 C   0  0  0  0  0  0  0  0  0  0  0  0
    2.0490    4.5000    0.0000 C   0  0  0  0  0  0  0  0  0  0  0  0
    3.3481    2.2500    0.0000 C   0  0  0  0  0  0  0  0  0  0  0  0
    5.9462    5.2500    0.0000 C   0  0  0  0  0  0  0  0  0  0  0  0
    7.2452    4.5000    0.0000 C   0  0  0  0  0  0  0  0  0  0  0  0
    8.5442    5.2500    0.0000 C   0  0  0  0  0  0  0  0  0  0  0  0
    9.8433    4.5000    0.0000 C   0  0  0  0  0  0  0  0  0  0  0  0
   11.1423    5.2500    0.0000 C   0  0  0  0  0  0  0  0  0  0  0  0
  1  9  2  0  0  0  0
  2  3  1  0  0  0  0
  3  9  1  0  0  0  0
  3 10  1  0  0  0  0
  4 10  2  0  0  0  0
  5  7  1  0  0  0  0
  5 10  1  0  0  0  0
  5  6  1  0  0  0  0
  7  8  2  0  0  0  0
  7 11  1  0  0  0  0
  8  9  1  0  0  0  0
 11 12  1  0  0  0  0
 12 13  1  0  0  0  0
 13 14  1  0  0  0  0
 14 15  1  0  0  0  0
M  END
