9064
 OpenBabel03021519512D

 14 14  0  0  1  0  0  0  0  0999 V2000
   -5.2000    0.9010    0.0000 O   0  0  0  0  0  0  0  0  0  0  0  0
   -5.2000   -0.5990    0.0000 C   0  0  0  0  0  0  0  0  0  0  0  0
   -6.4136   -1.4807    0.0000 C   0  0  3  0  0  0  0  0  0  0  0  0
   -3.9865   -1.4807    0.0000 C   0  0  3  0  0  0  0  0  0  0  0  0
   -4.4500   -2.9073    0.0000 C   0  0  3  0  0  0  0  0  0  0  0  0
   -5.9500   -2.9073    0.0000 C   0  0  3  0  0  0  0  0  0  0  0  0
   -7.8402   -1.0172    0.0000 C   0  0  0  0  0  0  0  0  0  0  0  0
   -8.9549   -2.0209    0.0000 O   0  0  0  0  0  0  0  0  0  0  0  0
   -8.3235   -3.9640    0.0000 O   0  0  0  0  0  0  0  0  0  0  0  0
   -6.8317   -4.1208    0.0000 C   0  0  0  0  0  0  0  0  0  0  0  0
   -3.5684   -4.1208    0.0000 C   0  0  0  0  0  0  0  0  0  0  0  0
   -2.0766   -3.9640    0.0000 O   0  0  0  0  0  0  0  0  0  0  0  0
   -2.5599   -1.0172    0.0000 C   0  0  0  0  0  0  0  0  0  0  0  0
   -1.4452   -2.0209    0.0000 O   0  0  0  0  0  0  0  0  0  0  0  0
  1  2  2  0  0  0  0
  2  3  1  0  0  0  0
  2  4  1  0  0  0  0
  3  6  1  0  0  0  0
  3  7  1  0  0  0  0
  4  5  1  0  0  0  0
  4 13  1  0  0  0  0
  5  6  1  0  0  0  0
  5 11  1  0  0  0  0
  6 10  1  0  0  0  0
  7  8  1  0  0  0  0
  9 10  1  0  0  0  0
 11 12  1  0  0  0  0
 13 14  1  0  0  0  0
M  END
