289748
 OpenBabel03021519512D

 18 19  0  0  0  0  0  0  0  0999 V2000
   -1.3578   -0.4327    0.0000 C   0  0  0  0  0  0  0  0  0  0  0  0
   -1.3578    1.0673    0.0000 C   0  0  0  0  0  0  0  0  0  0  0  0
    0.0688   -0.8963    0.0000 N   0  3  0  0  0  0  0  0  0  0  0  0
    0.0688    1.5308    0.0000 S   0  0  0  0  0  0  0  0  0  0  0  0
    0.9505    0.3173    0.0000 C   0  0  0  0  0  0  0  0  0  0  0  0
    0.5323   -2.3228    0.0000 O   0  5  0  0  0  0  0  0  0  0  0  0
    2.4505    0.3173    0.0000 N   0  0  0  0  0  0  0  0  0  0  0  0
    3.2005   -0.9818    0.0000 N   0  0  0  0  0  0  0  0  0  0  0  0
    4.7005   -0.9818    0.0000 C   0  0  0  0  0  0  0  0  0  0  0  0
    5.4505    0.3173    0.0000 C   0  0  0  0  0  0  0  0  0  0  0  0
    5.4505   -2.2808    0.0000 C   0  0  0  0  0  0  0  0  0  0  0  0
    6.9505    0.3173    0.0000 C   0  0  0  0  0  0  0  0  0  0  0  0
    6.9505   -2.2808    0.0000 C   0  0  0  0  0  0  0  0  0  0  0  0
    7.7005   -0.9818    0.0000 C   0  0  0  0  0  0  0  0  0  0  0  0
    9.2005   -0.9817    0.0000 N   0  0  0  0  0  0  0  0  0  0  0  0
   -2.5713   -1.3144    0.0000 C   0  0  0  0  0  0  0  0  0  0  0  0
    9.9505   -2.2808    0.0000 C   0  0  0  0  0  0  0  0  0  0  0  0
    9.9505    0.3173    0.0000 C   0  0  0  0  0  0  0  0  0  0  0  0
  1  3  1  0  0  0  0
  1  2  2  0  0  0  0
  1 16  1  0  0  0  0
  2  4  1  0  0  0  0
  3  6  1  0  0  0  0
  3  5  2  0  0  0  0
  4  5  1  0  0  0  0
  5  7  1  0  0  0  0
  7  8  2  0  0  0  0
  8  9  1  0  0  0  0
  9 10  2  0  0  0  0
  9 11  1  0  0  0  0
 10 12  1  0  0  0  0
 11 13  2  0  0  0  0
 12 14  2  0  0  0  0
 13 14  1  0  0  0  0
 14 15  1  0  0  0  0
 15 17  1  0  0  0  0
 15 18  1  0  0  0  0
M  CHG  2   3   1   6  -1
M  END
