11150
 OpenBabel03021519512D

 16 17  0  0  0  0  0  0  0  0999 V2000
   10.1178   -7.0245    0.0000 Cl  0  0  0  0  0  0  0  0  0  0  0  0
    7.5197   -4.0245    0.0000 C   0  0  0  0  0  0  0  0  0  0  0  0
    8.8188   -4.7745    0.0000 C   0  0  0  0  0  0  0  0  0  0  0  0
    6.2207   -4.7745    0.0000 C   0  0  0  0  0  0  0  0  0  0  0  0
    8.8188   -6.2745    0.0000 C   0  0  0  0  0  0  0  0  0  0  0  0
    6.2207   -6.2745    0.0000 C   0  0  0  0  0  0  0  0  0  0  0  0
    7.5197   -7.0245    0.0000 C   0  0  0  0  0  0  0  0  0  0  0  0
    6.2207   -1.7745    0.0000 C   0  0  0  0  0  0  0  0  0  0  0  0
    4.9216   -2.5245    0.0000 C   0  0  0  0  0  0  0  0  0  0  0  0
    6.2207   -0.2745    0.0000 C   0  0  0  0  0  0  0  0  0  0  0  0
    3.6226   -1.7745    0.0000 C   0  0  0  0  0  0  0  0  0  0  0  0
    4.9216    0.4755    0.0000 C   0  0  0  0  0  0  0  0  0  0  0  0
    3.6226   -0.2745    0.0000 C   0  0  0  0  0  0  0  0  0  0  0  0
    4.9216    1.9755    0.0000 O   0  0  0  0  0  0  0  0  0  0  0  0
    2.3236   -2.5245    0.0000 O   0  0  0  0  0  0  0  0  0  0  0  0
    4.9216   -4.0245    0.0000 C   0  0  0  0  0  0  0  0  0  0  0  0
  1  5  1  0  0  0  0
  2  3  2  0  0  0  0
  2  4  1  0  0  0  0
  3  5  1  0  0  0  0
  4  6  2  0  0  0  0
  4 16  1  0  0  0  0
  5  7  2  0  0  0  0
  6  7  1  0  0  0  0
  8 10  2  0  0  0  0
  8  9  1  0  0  0  0
  9 11  2  0  0  0  0
  9 16  1  0  0  0  0
 10 12  1  0  0  0  0
 11 13  1  0  0  0  0
 11 15  1  0  0  0  0
 12 13  2  0  0  0  0
 12 14  1  0  0  0  0
M  END
