280594
 OpenBabel03021519512D

 27 30  0  0  1  0  0  0  0  0999 V2000
    3.6226   -0.2745    0.0000 N   0  0  0  0  0  0  0  0  0  0  0  0
    4.9216    0.4755    0.0000 N   0  0  0  0  0  0  0  0  0  0  0  0
    7.6186   -6.6017    0.0000 O   0  0  0  0  0  0  0  0  0  0  0  0
    7.1315   -3.9734    0.0000 N   0  0  0  0  0  0  0  0  0  0  0  0
    7.5197    0.4755    0.0000 N   0  0  0  0  0  0  0  0  0  0  0  0
    8.8188   -1.7745    0.0000 N   0  0  0  0  0  0  0  0  0  0  0  0
    6.2207   -0.2745    0.0000 C   0  0  0  0  0  0  0  0  0  0  0  0
    6.2207   -1.7745    0.0000 C   0  0  0  0  0  0  0  0  0  0  0  0
    4.9216   -2.5245    0.0000 C   0  0  0  0  0  0  0  0  0  0  0  0
    3.6226   -1.7745    0.0000 C   0  0  0  0  0  0  0  0  0  0  0  0
    7.5197   -2.5245    0.0000 C   0  0  0  0  0  0  0  0  0  0  0  0
    5.6315   -3.9734    0.0000 C   0  0  0  0  0  0  0  0  0  0  0  0
    8.8188   -0.2745    0.0000 C   0  0  0  0  0  0  0  0  0  0  0  0
    8.0446   -5.1634    0.0000 C   0  0  3  0  0  0  0  0  0  0  0  0
    9.5441   -5.1242    0.0000 C   0  0  3  0  0  0  0  0  0  0  0  0
   10.0448   -6.5381    0.0000 C   0  0  3  0  0  0  0  0  0  0  0  0
    8.8548   -7.4513    0.0000 C   0  0  3  0  0  0  0  0  0  0  0  0
    2.3236   -2.5245    0.0000 N   0  0  0  0  0  0  0  0  0  0  0  0
   10.2123   -9.6665    0.0000 O   0  0  0  0  0  0  0  0  0  0  0  0
   10.2516  -11.1660    0.0000 P   0  0  0  0  0  0  0  0  0  0  0  0
    8.7521  -11.2053    0.0000 O   0  0  0  0  0  0  0  0  0  0  0  0
   10.2908  -12.6655    0.0000 O   0  0  0  0  0  0  0  0  0  0  0  0
   11.7510  -11.1267    0.0000 O   0  0  0  0  0  0  0  0  0  0  0  0
    4.9216    1.9755    0.0000 C   0  0  0  0  0  0  0  0  0  0  0  0
   11.4831   -6.9642    0.0000 O   0  0  0  0  0  0  0  0  0  0  0  0
    8.8941   -8.9508    0.0000 C   0  0  0  0  0  0  0  0  0  0  0  0
   10.3937   -3.8880    0.0000 O   0  0  0  0  0  0  0  0  0  0  0  0
  1  2  1  0  0  0  0
  1 10  2  0  0  0  0
  2  7  1  0  0  0  0
  2 24  1  0  0  0  0
  3 14  1  0  0  0  0
  3 17  1  0  0  0  0
  4 11  1  0  0  0  0
  4 12  1  0  0  0  0
  4 14  1  0  0  0  0
  5 13  2  0  0  0  0
  5  7  1  0  0  0  0
  6 11  2  0  0  0  0
  6 13  1  0  0  0  0
  7  8  2  0  0  0  0
  8  9  1  0  0  0  0
  8 11  1  0  0  0  0
  9 12  2  0  0  0  0
  9 10  1  0  0  0  0
 10 18  1  0  0  0  0
 14 15  1  0  0  0  0
 15 16  1  0  0  0  0
 15 27  1  0  0  0  0
 16 17  1  0  0  0  0
 16 25  1  0  0  0  0
 17 26  1  0  0  0  0
 19 20  1  0  0  0  0
 19 26  1  0  0  0  0
 20 23  2  0  0  0  0
 20 22  1  0  0  0  0
 20 21  1  0  0  0  0
M  END
