126226
 OpenBabel03021519512D

 22 23  0  0  1  0  0  0  0  0999 V2000
   -1.0245    4.7745    0.0000 N   0  0  0  0  0  0  0  0  0  0  0  0
    4.1717    4.7745    0.0000 O   0  0  0  0  0  0  0  0  0  0  0  0
   11.9659    9.2745    0.0000 N   0  0  0  0  0  0  0  0  0  0  0  0
   11.9659    7.7745    0.0000 C   0  0  0  0  0  0  0  0  0  0  0  0
   10.6668    7.0245    0.0000 C   0  0  0  0  0  0  0  0  0  0  0  0
    9.3678    7.7745    0.0000 C   0  0  0  0  0  0  0  0  0  0  0  0
    9.3678    9.2745    0.0000 C   0  0  0  0  0  0  0  0  0  0  0  0
   10.6669   10.0245    0.0000 C   0  0  0  0  0  0  0  0  0  0  0  0
    0.2745    5.5245    0.0000 C   0  0  0  0  0  0  0  0  0  0  0  0
    1.5736    4.7745    0.0000 C   0  0  0  0  0  0  0  0  0  0  0  0
    1.5736    3.2745    0.0000 C   0  0  0  0  0  0  0  0  0  0  0  0
    0.2745    2.5245    0.0000 C   0  0  0  0  0  0  0  0  0  0  0  0
   -1.0245    3.2745    0.0000 C   0  0  0  0  0  0  0  0  0  0  0  0
    2.8726    5.5245    0.0000 C   0  0  0  0  0  0  0  0  0  0  0  0
    2.8726    7.0245    0.0000 O   0  0  0  0  0  0  0  0  0  0  0  0
    5.4707    5.5245    0.0000 C   0  0  0  0  0  0  0  0  0  0  0  0
    5.4707    7.0245    0.0000 C   0  0  3  0  0  0  0  0  0  0  0  0
    4.1717    7.7745    0.0000 O   0  0  0  0  0  0  0  0  0  0  0  0
    6.7697    7.7745    0.0000 C   0  0  0  0  0  0  0  0  0  0  0  0
    6.7697    9.2745    0.0000 O   0  0  0  0  0  0  0  0  0  0  0  0
    8.0688   10.0245    0.0000 C   0  0  0  0  0  0  0  0  0  0  0  0
    8.0688   11.5245    0.0000 O   0  0  0  0  0  0  0  0  0  0  0  0
  1  9  2  0  0  0  0
  1 13  1  0  0  0  0
  2 14  1  0  0  0  0
  2 16  1  0  0  0  0
  3  8  2  0  0  0  0
  3  4  1  0  0  0  0
  4  5  2  0  0  0  0
  5  6  1  0  0  0  0
  6  7  2  0  0  0  0
  7  8  1  0  0  0  0
  7 21  1  0  0  0  0
  9 10  1  0  0  0  0
 10 11  2  0  0  0  0
 10 14  1  0  0  0  0
 11 12  1  0  0  0  0
 12 13  2  0  0  0  0
 14 15  2  0  0  0  0
 16 17  1  0  0  0  0
 17 18  1  0  0  0  0
 17 19  1  0  0  0  0
 19 20  1  0  0  0  0
 20 21  1  0  0  0  0
 21 22  2  0  0  0  0
M  END
