354844
 OpenBabel03021519512D

 37 41  0  0  1  0  0  0  0  0999 V2000
    3.7361    1.7090    0.0000 C   0  0  0  0  0  0  0  0  0  0  0  0
    3.7361    0.2090    0.0000 C   0  0  0  0  0  0  0  0  0  0  0  0
    5.0351   -0.5410    0.0000 C   0  0  0  0  0  0  0  0  0  0  0  0
    6.3342    0.2090    0.0000 C   0  0  0  0  0  0  0  0  0  0  0  0
    6.3342    1.7090    0.0000 C   0  0  0  0  0  0  0  0  0  0  0  0
    5.0351    2.4590    0.0000 C   0  0  0  0  0  0  0  0  0  0  0  0
    7.6332   -0.5410    0.0000 C   0  0  0  0  0  0  0  0  0  0  0  0
    8.9322    0.2090    0.0000 O   0  0  0  0  0  0  0  0  0  0  0  0
    8.9322    1.7090    0.0000 C   0  0  0  0  0  0  0  0  0  0  0  0
    7.6332    2.4590    0.0000 C   0  0  0  0  0  0  0  0  0  0  0  0
   10.2313    2.4590    0.0000 C   0  0  0  0  0  0  0  0  0  0  0  0
   10.2313    3.9590    0.0000 C   0  0  0  0  0  0  0  0  0  0  0  0
    8.9322    4.7090    0.0000 C   0  0  0  0  0  0  0  0  0  0  0  0
    7.6332    3.9590    0.0000 C   0  0  0  0  0  0  0  0  0  0  0  0
   11.5303    1.7090    0.0000 C   0  0  0  0  0  0  0  0  0  0  0  0
   12.8294    2.4590    0.0000 C   0  0  0  0  0  0  0  0  0  0  0  0
   12.8294    3.9590    0.0000 C   0  0  0  0  0  0  0  0  0  0  0  0
   11.5303    4.7090    0.0000 C   0  0  0  0  0  0  0  0  0  0  0  0
    2.4371   -0.5410    0.0000 C   0  0  0  0  0  0  0  0  0  0  0  0
    7.6332   -2.0410    0.0000 O   0  0  0  0  0  0  0  0  0  0  0  0
   11.5303   -2.7910    0.0000 C   0  0  3  0  0  0  0  0  0  0  0  0
   10.2313   -2.0410    0.0000 C   0  0  3  0  0  0  0  0  0  0  0  0
   12.8294   -2.0410    0.0000 C   0  0  3  0  0  0  0  0  0  0  0  0
   10.2313   -0.5410    0.0000 O   0  0  0  0  0  0  0  0  0  0  0  0
   12.8294   -0.5410    0.0000 C   0  0  3  0  0  0  0  0  0  0  0  0
   11.5303    0.2090    0.0000 C   0  0  3  0  0  0  0  0  0  0  0  0
   11.5303   -4.2910    0.0000 O   0  0  0  0  0  0  0  0  0  0  0  0
   14.1284   -2.7910    0.0000 O   0  0  0  0  0  0  0  0  0  0  0  0
    8.9323   -2.7910    0.0000 C   0  0  0  0  0  0  0  0  0  0  0  0
   11.5303   -1.2910    0.0000 C   0  0  0  0  0  0  0  0  0  0  0  0
   14.1284    0.2090    0.0000 O   0  0  0  0  0  0  0  0  0  0  0  0
    1.1380    0.2090    0.0000 C   0  0  0  0  0  0  0  0  0  0  0  0
    5.0351    3.9590    0.0000 O   0  0  0  0  0  0  0  0  0  0  0  0
    3.7361    4.7090    0.0000 C   0  0  0  0  0  0  0  0  0  0  0  0
    8.9322    6.2090    0.0000 O   0  0  0  0  0  0  0  0  0  0  0  0
    7.6332    6.9590    0.0000 C   0  0  0  0  0  0  0  0  0  0  0  0
   11.5303    6.2090    0.0000 O   0  0  0  0  0  0  0  0  0  0  0  0
  1  2  2  0  0  0  0
  1  6  1  0  0  0  0
  2  3  1  0  0  0  0
  2 19  1  0  0  0  0
  3  4  2  0  0  0  0
  4  5  1  0  0  0  0
  4  7  1  0  0  0  0
  5  6  2  0  0  0  0
  5 10  1  0  0  0  0
  6 33  1  0  0  0  0
  7  8  1  0  0  0  0
  7 20  2  0  0  0  0
  8  9  1  0  0  0  0
  9 10  2  0  0  0  0
  9 11  1  0  0  0  0
 10 14  1  0  0  0  0
 11 12  2  0  0  0  0
 11 15  1  0  0  0  0
 12 13  1  0  0  0  0
 12 18  1  0  0  0  0
 13 14  2  0  0  0  0
 13 35  1  0  0  0  0
 15 16  2  0  0  0  0
 15 26  1  0  0  0  0
 16 17  1  0  0  0  0
 17 18  2  0  0  0  0
 18 37  1  0  0  0  0
 19 32  2  0  0  0  0
 21 22  1  0  0  0  0
 21 23  1  0  0  0  0
 21 27  1  0  0  0  0
 22 24  1  0  0  0  0
 22 29  1  0  0  0  0
 23 25  1  0  0  0  0
 23 28  1  0  0  0  0
 23 30  1  0  0  0  0
 24 26  1  0  0  0  0
 25 26  1  0  0  0  0
 25 31  1  0  0  0  0
 33 34  1  0  0  0  0
 35 36  1  0  0  0  0
M  END
