164459
 OpenBabel03021519512D

 21 22  0  0  0  0  0  0  0  0999 V2000
    0.7500   -9.0000    0.0000 O   0  0  0  0  0  0  0  0  0  0  0  0
    5.9462  -12.0000    0.0000 Cl  0  0  0  0  0  0  0  0  0  0  0  0
    3.3481   -9.0000    0.0000 C   0  0  0  0  0  0  0  0  0  0  0  0
    4.6471   -9.7500    0.0000 C   0  0  0  0  0  0  0  0  0  0  0  0
    2.0491   -9.7500    0.0000 C   0  0  0  0  0  0  0  0  0  0  0  0
    4.6471  -11.2500    0.0000 C   0  0  0  0  0  0  0  0  0  0  0  0
    2.0491  -11.2500    0.0000 C   0  0  0  0  0  0  0  0  0  0  0  0
    3.3481  -12.0000    0.0000 C   0  0  0  0  0  0  0  0  0  0  0  0
    4.6471   -5.2500    0.0000 C   0  0  0  0  0  0  0  0  0  0  0  0
    5.9462   -4.5000    0.0000 C   0  0  0  0  0  0  0  0  0  0  0  0
    3.3481   -4.5000    0.0000 C   0  0  0  0  0  0  0  0  0  0  0  0
    3.3481   -3.0000    0.0000 C   0  0  0  0  0  0  0  0  0  0  0  0
    5.9462   -3.0000    0.0000 C   0  0  0  0  0  0  0  0  0  0  0  0
    4.6471   -2.2500    0.0000 C   0  0  0  0  0  0  0  0  0  0  0  0
    2.0490   -2.2500    0.0000 C   0  0  0  0  0  0  0  0  0  0  0  0
    0.7500   -3.0000    0.0000 O   0  0  0  0  0  0  0  0  0  0  0  0
    2.0491   -5.2500    0.0000 N   0  0  0  0  0  0  0  0  0  0  0  0
    2.0490   -0.7500    0.0000 N   0  0  0  0  0  0  0  0  0  0  0  0
    2.0491   -6.7500    0.0000 C   0  0  0  0  0  0  0  0  0  0  0  0
    3.3481   -7.5000    0.0000 O   0  0  0  0  0  0  0  0  0  0  0  0
    0.7500   -7.5000    0.0000 C   0  0  0  0  0  0  0  0  0  0  0  0
  1  5  1  0  0  0  0
  1 21  1  0  0  0  0
  2  6  1  0  0  0  0
  3  4  2  0  0  0  0
  3  5  1  0  0  0  0
  4  6  1  0  0  0  0
  5  7  2  0  0  0  0
  6  8  2  0  0  0  0
  7  8  1  0  0  0  0
  9 10  2  0  0  0  0
  9 11  1  0  0  0  0
 10 13  1  0  0  0  0
 11 12  2  0  0  0  0
 11 17  1  0  0  0  0
 12 14  1  0  0  0  0
 12 15  1  0  0  0  0
 13 14  2  0  0  0  0
 15 16  2  0  0  0  0
 15 18  1  0  0  0  0
 17 19  1  0  0  0  0
 19 20  2  0  0  0  0
 19 21  1  0  0  0  0
M  END
