372769
 OpenBabel03021519512D

 19 20  0  0  0  0  0  0  0  0999 V2000
    0.7500    3.3481    0.0000 Cl  0  0  0  0  0  0  0  0  0  0  0  0
    2.2500    3.3481    0.0000 C   0  0  0  0  0  0  0  0  0  0  0  0
    3.0000    4.6471    0.0000 C   0  0  0  0  0  0  0  0  0  0  0  0
    3.0000    2.0490    0.0000 C   0  0  0  0  0  0  0  0  0  0  0  0
    4.5000    4.6471    0.0000 C   0  0  0  0  0  0  0  0  0  0  0  0
    4.5000    2.0490    0.0000 C   0  0  0  0  0  0  0  0  0  0  0  0
    5.2500    3.3481    0.0000 C   0  0  0  0  0  0  0  0  0  0  0  0
    5.2500    0.7500    0.0000 Cl  0  0  0  0  0  0  0  0  0  0  0  0
    6.7500    3.3481    0.0000 C   0  0  0  0  0  0  0  0  0  0  0  0
    7.5000    4.6471    0.0000 O   0  0  0  0  0  0  0  0  0  0  0  0
    9.0000    2.0490    0.0000 C   0  0  0  0  0  0  0  0  0  0  0  0
    9.7500    0.7500    0.0000 C   0  0  0  0  0  0  0  0  0  0  0  0
    9.7500    3.3481    0.0000 C   0  0  0  0  0  0  0  0  0  0  0  0
   11.2500    0.7500    0.0000 C   0  0  0  0  0  0  0  0  0  0  0  0
   11.2500    3.3481    0.0000 C   0  0  0  0  0  0  0  0  0  0  0  0
   12.0000    4.6471    0.0000 C   0  0  0  0  0  0  0  0  0  0  0  0
   12.0000    2.0490    0.0000 C   0  0  0  0  0  0  0  0  0  0  0  0
    7.5000    2.0490    0.0000 N   0  0  0  0  0  0  0  0  0  0  0  0
   12.7500    5.9462    0.0000 C   0  0  0  0  0  0  0  0  0  0  0  0
  1  2  1  0  0  0  0
  2  3  1  0  0  0  0
  2  4  2  0  0  0  0
  3  5  2  0  0  0  0
  4  6  1  0  0  0  0
  5  7  1  0  0  0  0
  6  7  2  0  0  0  0
  6  8  1  0  0  0  0
  7  9  1  0  0  0  0
  9 10  2  0  0  0  0
  9 18  1  0  0  0  0
 11 13  2  0  0  0  0
 11 12  1  0  0  0  0
 11 18  1  0  0  0  0
 12 14  2  0  0  0  0
 13 15  1  0  0  0  0
 14 17  1  0  0  0  0
 15 16  1  0  0  0  0
 15 17  2  0  0  0  0
 16 19  3  0  0  0  0
M  END
