294153
 OpenBabel03021519512D

 21 23  0  0  0  0  0  0  0  0999 V2000
   -3.5966    2.0916    0.0000 C   0  0  0  0  0  0  0  0  0  0  0  0
   -3.9339    3.5532    0.0000 C   0  0  0  0  0  0  0  0  0  0  0  0
   -2.1622    1.6529    0.0000 N   0  0  0  0  0  0  0  0  0  0  0  0
   -1.5284    0.2934    0.0000 C   0  0  0  0  0  0  0  0  0  0  0  0
   -2.8368    4.5761    0.0000 C   0  0  0  0  0  0  0  0  0  0  0  0
   -1.0650    2.6758    0.0000 C   0  0  0  0  0  0  0  0  0  0  0  0
   -1.4023    4.1374    0.0000 C   0  0  0  0  0  0  0  0  0  0  0  0
   -0.0395    0.4761    0.0000 C   0  0  0  0  0  0  0  0  0  0  0  0
    0.9833   -0.6210    0.0000 N   0  0  0  0  0  0  0  0  0  0  0  0
    0.6970   -2.0935    0.0000 C   0  0  0  0  0  0  0  0  0  0  0  0
    0.2468    1.9485    0.0000 N   0  0  0  0  0  0  0  0  0  0  0  0
    2.4722   -0.4384    0.0000 C   0  0  0  0  0  0  0  0  0  0  0  0
    2.0089   -2.8208    0.0000 N   0  0  0  0  0  0  0  0  0  0  0  0
    3.1060   -1.7979    0.0000 C   0  0  0  0  0  0  0  0  0  0  0  0
   -2.2557   -1.0184    0.0000 N   0  3  0  0  0  0  0  0  0  0  0  0
   -3.7555   -1.0445    0.0000 O   0  5  0  0  0  0  0  0  0  0  0  0
   -1.4833   -2.3043    0.0000 O   0  0  0  0  0  0  0  0  0  0  0  0
   -0.6625   -2.7273    0.0000 C   0  0  0  0  0  0  0  0  0  0  0  0
    4.5784   -2.0843    0.0000 N   0  3  0  0  0  0  0  0  0  0  0  0
    5.5626   -0.9523    0.0000 O   0  5  0  0  0  0  0  0  0  0  0  0
    5.0666   -3.5026    0.0000 O   0  0  0  0  0  0  0  0  0  0  0  0
  1  2  2  0  0  0  0
  1  3  1  0  0  0  0
  2  5  1  0  0  0  0
  3  6  1  0  0  0  0
  3  4  1  0  0  0  0
  4  8  2  0  0  0  0
  4 15  1  0  0  0  0
  5  7  2  0  0  0  0
  6  7  1  0  0  0  0
  6 11  2  0  0  0  0
  8 11  1  0  0  0  0
  8  9  1  0  0  0  0
  9 12  1  0  0  0  0
  9 10  1  0  0  0  0
 10 13  2  0  0  0  0
 10 18  1  0  0  0  0
 12 14  2  0  0  0  0
 13 14  1  0  0  0  0
 14 19  1  0  0  0  0
 15 16  1  0  0  0  0
 15 17  2  0  0  0  0
 19 20  1  0  0  0  0
 19 21  2  0  0  0  0
M  CHG  4  15   1  16  -1  19   1  20  -1
M  END
