105798
 OpenBabel03021519512D

 24 25  0  0  0  0  0  0  0  0999 V2000
   -4.6471    8.2500    0.0000 C   0  0  0  0  0  0  0  0  0  0  0  0
   -4.6471    9.7500    0.0000 C   0  0  0  0  0  0  0  0  0  0  0  0
   -3.3481    7.5000    0.0000 C   0  0  0  0  0  0  0  0  0  0  0  0
   -3.3481   10.5000    0.0000 C   0  0  0  0  0  0  0  0  0  0  0  0
   -2.0490    8.2500    0.0000 C   0  0  0  0  0  0  0  0  0  0  0  0
   -2.0490    9.7500    0.0000 C   0  0  0  0  0  0  0  0  0  0  0  0
   -4.6471    3.7500    0.0000 C   0  0  0  0  0  0  0  0  0  0  0  0
   -5.9461    3.0000    0.0000 C   0  0  0  0  0  0  0  0  0  0  0  0
   -3.3481    3.0000    0.0000 C   0  0  0  0  0  0  0  0  0  0  0  0
   -3.3481    1.5000    0.0000 C   0  0  0  0  0  0  0  0  0  0  0  0
   -5.9461    1.5000    0.0000 C   0  0  0  0  0  0  0  0  0  0  0  0
   -4.6471    0.7500    0.0000 C   0  0  0  0  0  0  0  0  0  0  0  0
   -7.2452    0.7500    0.0000 N   0  0  0  0  0  0  0  0  0  0  0  0
   -8.5442    1.5000    0.0000 C   0  0  0  0  0  0  0  0  0  0  0  0
   -9.8433    0.7500    0.0000 O   0  0  0  0  0  0  0  0  0  0  0  0
   -8.5442    3.0000    0.0000 C   0  0  0  0  0  0  0  0  0  0  0  0
   -2.0490    3.7500    0.0000 O   0  0  0  0  0  0  0  0  0  0  0  0
   -2.0490    5.2500    0.0000 C   0  0  0  0  0  0  0  0  0  0  0  0
   -0.7500    6.0000    0.0000 O   0  0  0  0  0  0  0  0  0  0  0  0
   -3.3481    6.0000    0.0000 O   0  0  0  0  0  0  0  0  0  0  0  0
   -3.3481   12.0000    0.0000 N   0  0  0  0  0  0  0  0  0  0  0  0
   -4.6471   12.7500    0.0000 C   0  0  0  0  0  0  0  0  0  0  0  0
   -4.6471   14.2500    0.0000 O   0  0  0  0  0  0  0  0  0  0  0  0
   -5.9461   12.0000    0.0000 C   0  0  0  0  0  0  0  0  0  0  0  0
  1  2  2  0  0  0  0
  1  3  1  0  0  0  0
  2  4  1  0  0  0  0
  3  5  2  0  0  0  0
  3 20  1  0  0  0  0
  4  6  2  0  0  0  0
  4 21  1  0  0  0  0
  5  6  1  0  0  0  0
  7  8  2  0  0  0  0
  7  9  1  0  0  0  0
  8 11  1  0  0  0  0
  9 10  2  0  0  0  0
  9 17  1  0  0  0  0
 10 12  1  0  0  0  0
 11 12  2  0  0  0  0
 11 13  1  0  0  0  0
 13 14  1  0  0  0  0
 14 15  2  0  0  0  0
 14 16  1  0  0  0  0
 17 18  1  0  0  0  0
 18 19  2  0  0  0  0
 18 20  1  0  0  0  0
 21 22  1  0  0  0  0
 22 23  2  0  0  0  0
 22 24  1  0  0  0  0
M  END
