303800
 OpenBabel03021519512D

 12 12  0  0  0  0  0  0  0  0999 V2000
    3.1646    5.2432    0.0000 C   0  0  0  0  0  0  0  0  0  0  0  0
    3.1646    3.7432    0.0000 C   0  0  0  0  0  0  0  0  0  0  0  0
    1.7381    3.2796    0.0000 C   0  0  0  0  0  0  0  0  0  0  0  0
    0.8564    4.4932    0.0000 N   0  0  0  0  0  0  0  0  0  0  0  0
    1.2745    1.8531    0.0000 O   0  0  0  0  0  0  0  0  0  0  0  0
    1.7381    5.7067    0.0000 O   0  0  0  0  0  0  0  0  0  0  0  0
   -0.1927    1.5412    0.0000 C   0  0  0  0  0  0  0  0  0  0  0  0
    4.3782    6.1248    0.0000 C   0  0  0  0  0  0  0  0  0  0  0  0
    4.2214    7.6166    0.0000 C   0  0  0  0  0  0  0  0  0  0  0  0
    5.4349    8.4983    0.0000 C   0  0  0  0  0  0  0  0  0  0  0  0
    5.2781    9.9901    0.0000 O   0  0  0  0  0  0  0  0  0  0  0  0
    6.8052    7.8882    0.0000 O   0  0  0  0  0  0  0  0  0  0  0  0
  1  6  1  0  0  0  0
  1  2  2  0  0  0  0
  1  8  1  0  0  0  0
  2  3  1  0  0  0  0
  3  4  2  0  0  0  0
  3  5  1  0  0  0  0
  4  6  1  0  0  0  0
  5  7  1  0  0  0  0
  8  9  1  0  0  0  0
  9 10  1  0  0  0  0
 10 11  2  0  0  0  0
 10 12  1  0  0  0  0
M  END
