341074
 OpenBabel03021519512D

 17 18  0  0  0  0  0  0  0  0999 V2000
   -2.9050    0.9039    0.0000 C   0  0  0  0  0  0  0  0  0  0  0  0
   -3.3441   -0.5305    0.0000 N   0  0  0  0  0  0  0  0  0  0  0  0
   -1.4052    0.9295    0.0000 N   0  0  0  0  0  0  0  0  0  0  0  0
   -0.9174   -0.4889    0.0000 C   0  0  0  0  0  0  0  0  0  0  0  0
   -2.1156   -1.3912    0.0000 C   0  0  0  0  0  0  0  0  0  0  0  0
    0.5169   -0.9280    0.0000 S   0  0  0  0  0  0  0  0  0  0  0  0
    3.7798   -0.9860    0.0000 H   0  0  0  0  0  0  0  0  0  0  0  0
    1.4201    0.2697    0.0000 C   0  0  0  0  0  0  0  0  0  0  0  0
    2.9198    0.2430    0.0000 N   0  0  0  0  0  0  0  0  0  0  0  0
    0.9820    1.7043    0.0000 N   0  0  0  0  0  0  0  0  0  0  0  0
    3.4087    1.6611    0.0000 N   0  0  0  0  0  0  0  0  0  0  0  0
    2.2110    2.5642    0.0000 C   0  0  0  0  0  0  0  0  0  0  0  0
   -0.5445    2.1579    0.0000 C   0  0  0  0  0  0  0  0  0  0  0  0
   -2.0900   -2.8910    0.0000 N   0  3  0  0  0  0  0  0  0  0  0  0
   -0.7783   -3.6187    0.0000 O   0  5  0  0  0  0  0  0  0  0  0  0
   -3.3760   -3.6631    0.0000 O   0  0  0  0  0  0  0  0  0  0  0  0
    2.2377    4.0640    0.0000 N   0  0  0  0  0  0  0  0  0  0  0  0
  1  3  1  0  0  0  0
  1  2  2  0  0  0  0
  2  5  1  0  0  0  0
  3  4  1  0  0  0  0
  3 13  1  0  0  0  0
  4  6  1  0  0  0  0
  4  5  2  0  0  0  0
  5 14  1  0  0  0  0
  6  8  1  0  0  0  0
  7  9  1  0  0  0  0
  8 10  2  0  0  0  0
  8  9  1  0  0  0  0
  9 11  1  0  0  0  0
 10 12  1  0  0  0  0
 11 12  2  0  0  0  0
 12 17  1  0  0  0  0
 14 15  1  0  0  0  0
 14 16  2  0  0  0  0
M  CHG  2  14   1  15  -1
M  END
