21709
 OpenBabel03021519512D

 20 22  0  0  0  0  0  0  0  0999 V2000
    0.7500    2.2500    0.0000 O   0  0  0  0  0  0  0  0  0  0  0  0
    2.0490    4.5000    0.0000 N   0  0  0  0  0  0  0  0  0  0  0  0
    3.3481    2.2500    0.0000 N   0  0  0  0  0  0  0  0  0  0  0  0
    3.3481    6.7500    0.0000 O   0  0  0  0  0  0  0  0  0  0  0  0
    6.0737    4.9635    0.0000 N   0  0  0  0  0  0  0  0  0  0  0  0
    6.0737    2.5365    0.0000 N   0  0  0  0  0  0  0  0  0  0  0  0
    8.4554    3.7500    0.0000 N   0  0  0  0  0  0  0  0  0  0  0  0
   11.4554    3.7500    0.0000 O   0  0  0  0  0  0  0  0  0  0  0  0
    3.3481    5.2500    0.0000 C   0  0  0  0  0  0  0  0  0  0  0  0
    4.6471    4.5000    0.0000 C   0  0  0  0  0  0  0  0  0  0  0  0
    4.6471    3.0000    0.0000 C   0  0  0  0  0  0  0  0  0  0  0  0
    9.2054    5.0491    0.0000 C   0  0  0  0  0  0  0  0  0  0  0  0
   10.7054    5.0491    0.0000 C   0  0  0  0  0  0  0  0  0  0  0  0
    6.9554    3.7500    0.0000 C   0  0  0  0  0  0  0  0  0  0  0  0
    9.2054    2.4510    0.0000 C   0  0  0  0  0  0  0  0  0  0  0  0
   10.7054    2.4510    0.0000 C   0  0  0  0  0  0  0  0  0  0  0  0
    2.0490    3.0000    0.0000 C   0  0  0  0  0  0  0  0  0  0  0  0
    0.7500    5.2500    0.0000 C   0  0  0  0  0  0  0  0  0  0  0  0
    3.3481    0.7500    0.0000 C   0  0  0  0  0  0  0  0  0  0  0  0
    6.5372    6.3901    0.0000 C   0  0  0  0  0  0  0  0  0  0  0  0
  1 17  2  0  0  0  0
  2  9  1  0  0  0  0
  2 17  1  0  0  0  0
  2 18  1  0  0  0  0
  3 11  1  0  0  0  0
  3 17  1  0  0  0  0
  3 19  1  0  0  0  0
  4  9  2  0  0  0  0
  5 10  1  0  0  0  0
  5 14  1  0  0  0  0
  5 20  1  0  0  0  0
  6 14  2  0  0  0  0
  6 11  1  0  0  0  0
  7 12  1  0  0  0  0
  7 14  1  0  0  0  0
  7 15  1  0  0  0  0
  8 13  1  0  0  0  0
  8 16  1  0  0  0  0
  9 10  1  0  0  0  0
 10 11  2  0  0  0  0
 12 13  1  0  0  0  0
 15 16  1  0  0  0  0
M  END
