118818
 OpenBabel03021519512D

 28 32  0  0  1  0  0  0  0  0999 V2000
    4.5111    5.4210    0.0000 N   0  0  0  0  0  0  0  0  0  0  0  0
    8.3232    2.3628    0.0000 O   0  0  0  0  0  0  0  0  0  0  0  0
    8.7649    5.0797    0.0000 N   0  0  0  0  0  0  0  0  0  0  0  0
    8.3230    7.7753    0.0000 O   0  0  0  0  0  0  0  0  0  0  0  0
    7.8519    3.7868    0.0000 C   0  0  0  0  0  0  0  0  0  0  0  0
    6.3415    4.2818    0.0000 C   0  0  3  0  0  0  0  0  0  0  0  0
    4.9804    3.4925    0.0000 C   0  0  3  0  0  0  0  0  0  0  0  0
    3.5896    4.2818    0.0000 C   0  0  0  0  0  0  0  0  0  0  0  0
    5.3175    4.6957    0.0000 C   0  0  0  0  0  0  0  0  0  0  0  0
    6.3415    5.8690    0.0000 C   0  0  3  0  0  0  0  0  0  0  0  0
    3.5896    5.8690    0.0000 C   0  0  0  0  0  0  0  0  0  0  0  0
    4.9804    6.6583    0.0000 C   0  0  3  0  0  0  0  0  0  0  0  0
    7.8519    6.3512    0.0000 C   0  0  0  0  0  0  0  0  0  0  0  0
   11.0097    6.3876    0.0000 C   0  0  0  0  0  0  0  0  0  0  0  0
   12.5097    6.3936    0.0000 C   0  0  0  0  0  0  0  0  0  0  0  0
   10.2648    5.0857    0.0000 C   0  0  0  0  0  0  0  0  0  0  0  0
   13.2648    5.0975    0.0000 C   0  0  0  0  0  0  0  0  0  0  0  0
   11.0200    3.7896    0.0000 C   0  0  0  0  0  0  0  0  0  0  0  0
   12.5200    3.7955    0.0000 C   0  0  0  0  0  0  0  0  0  0  0  0
    3.2849    2.0488    0.0000 C   0  0  0  0  0  0  0  0  0  0  0  0
    2.0771    2.9383    0.0000 C   0  0  0  0  0  0  0  0  0  0  0  0
    3.1185    0.5580    0.0000 C   0  0  0  0  0  0  0  0  0  0  0  0
    0.7029    2.3370    0.0000 C   0  0  0  0  0  0  0  0  0  0  0  0
    1.7443   -0.0432    0.0000 C   0  0  0  0  0  0  0  0  0  0  0  0
    0.5365    0.8463    0.0000 C   0  0  0  0  0  0  0  0  0  0  0  0
    2.2436    4.4290    0.0000 C   0  0  0  0  0  0  0  0  0  0  0  0
    2.2933    6.6238    0.0000 C   0  0  0  0  0  0  0  0  0  0  0  0
    0.9970    7.3787    0.0000 N   0  0  0  0  0  0  0  0  0  0  0  0
  1  9  1  0  0  0  0
  1 12  1  0  0  0  0
  1 26  1  0  0  0  0
  2  5  2  0  0  0  0
  3  5  1  0  0  0  0
  3 13  1  0  0  0  0
  3 16  1  0  0  0  0
  4 13  2  0  0  0  0
  5  6  1  0  0  0  0
  6  7  1  0  0  0  0
  6 10  1  0  0  0  0
  7  8  1  0  0  0  0
  7  9  1  0  0  0  0
  8 11  2  0  0  0  0
 10 13  1  0  0  0  0
 10 12  1  0  0  0  0
 11 12  1  0  0  0  0
 11 27  1  0  0  0  0
 14 15  2  0  0  0  0
 14 16  1  0  0  0  0
 15 17  1  0  0  0  0
 16 18  2  0  0  0  0
 17 19  2  0  0  0  0
 18 19  1  0  0  0  0
 20 22  2  0  0  0  0
 20 21  1  0  0  0  0
 21 23  2  0  0  0  0
 21 26  1  0  0  0  0
 22 24  1  0  0  0  0
 23 25  1  0  0  0  0
 24 25  2  0  0  0  0
 27 28  3  0  0  0  0
M  END
