403268
 OpenBabel03021519512D

 18 19  0  0  0  0  0  0  0  0999 V2000
    4.0134   -0.7500    0.0000 H   0  0  0  0  0  0  0  0  0  0  0  0
    0.7500   -0.7500    0.0000 S   0  0  0  0  0  0  0  0  0  0  0  0
    3.1317   -1.9635    0.0000 N   0  0  0  0  0  0  0  0  0  0  0  0
    5.0218   -3.8536    0.0000 O   0  0  0  0  0  0  0  0  0  0  0  0
    1.1682   -3.3901    0.0000 S   0  0  0  0  0  0  0  0  0  0  0  0
    3.5952   -3.3901    0.0000 C   0  0  0  0  0  0  0  0  0  0  0  0
    2.3817   -4.2718    0.0000 C   0  0  0  0  0  0  0  0  0  0  0  0
    1.0827   -8.0218    0.0000 C   0  0  0  0  0  0  0  0  0  0  0  0
   -0.2164   -8.7718    0.0000 C   0  0  0  0  0  0  0  0  0  0  0  0
    1.0827   -6.5218    0.0000 C   0  0  0  0  0  0  0  0  0  0  0  0
   -1.5154   -8.0218    0.0000 C   0  0  0  0  0  0  0  0  0  0  0  0
   -0.2164   -5.7718    0.0000 C   0  0  0  0  0  0  0  0  0  0  0  0
   -1.5154   -6.5218    0.0000 C   0  0  0  0  0  0  0  0  0  0  0  0
    1.6317   -1.9635    0.0000 C   0  0  0  0  0  0  0  0  0  0  0  0
   -0.2164   -4.2718    0.0000 C   0  0  0  0  0  0  0  0  0  0  0  0
    1.0826   -3.5218    0.0000 O   0  0  0  0  0  0  0  0  0  0  0  0
   -1.5154   -3.5218    0.0000 O   0  0  0  0  0  0  0  0  0  0  0  0
    2.3817   -5.7718    0.0000 C   0  0  0  0  0  0  0  0  0  0  0  0
  1  3  1  0  0  0  0
  2 14  2  0  0  0  0
  3  6  1  0  0  0  0
  3 14  1  0  0  0  0
  4  6  2  0  0  0  0
  5  7  1  0  0  0  0
  5 14  1  0  0  0  0
  6  7  1  0  0  0  0
  7 18  2  0  0  0  0
  8  9  2  0  0  0  0
  8 10  1  0  0  0  0
  9 11  1  0  0  0  0
 10 12  2  0  0  0  0
 10 18  1  0  0  0  0
 11 13  2  0  0  0  0
 12 13  1  0  0  0  0
 12 15  1  0  0  0  0
 15 16  2  0  0  0  0
 15 17  1  0  0  0  0
M  END
