54860
 OpenBabel03021519512D

 16 17  0  0  0  0  0  0  0  0999 V2000
   -4.8612   -2.7752    0.0000 Cl  0  0  0  0  0  0  0  0  0  0  0  0
   -2.7789   -1.0991    0.0000 S   0  0  0  0  0  0  0  0  0  0  0  0
    3.9505    0.9829    0.0000 S   0  0  0  0  0  0  0  0  0  0  0  0
    6.4432    0.0177    0.0000 Cl  0  0  0  0  0  0  0  0  0  0  0  0
   -3.9862    1.0063    0.0000 C   0  0  0  0  0  0  0  0  0  0  0  0
   -4.9932   -0.1054    0.0000 C   0  0  0  0  0  0  0  0  0  0  0  0
   -2.6177    0.3922    0.0000 C   0  0  0  0  0  0  0  0  0  0  0  0
   -4.2471   -1.4067    0.0000 C   0  0  0  0  0  0  0  0  0  0  0  0
    4.9509   -0.1347    0.0000 C   0  0  0  0  0  0  0  0  0  0  0  0
    4.1971   -1.4316    0.0000 C   0  0  0  0  0  0  0  0  0  0  0  0
    2.7308   -1.1154    0.0000 C   0  0  0  0  0  0  0  0  0  0  0  0
    2.5784    0.3769    0.0000 C   0  0  0  0  0  0  0  0  0  0  0  0
   -1.3165    1.1384    0.0000 C   0  0  0  0  0  0  0  0  0  0  0  0
   -1.3121    2.6384    0.0000 O   0  0  0  0  0  0  0  0  0  0  0  0
   -0.0197    0.3845    0.0000 C   0  0  0  0  0  0  0  0  0  0  0  0
    1.2816    1.1307    0.0000 C   0  0  0  0  0  0  0  0  0  0  0  0
  1  8  1  0  0  0  0
  2  7  1  0  0  0  0
  2  8  1  0  0  0  0
  3  9  1  0  0  0  0
  3 12  1  0  0  0  0
  4  9  1  0  0  0  0
  5  7  2  0  0  0  0
  5  6  1  0  0  0  0
  6  8  2  0  0  0  0
  7 13  1  0  0  0  0
  9 10  2  0  0  0  0
 10 11  1  0  0  0  0
 11 12  2  0  0  0  0
 12 16  1  0  0  0  0
 13 14  2  0  0  0  0
 13 15  1  0  0  0  0
 15 16  2  0  0  0  0
M  END
