47619
 OpenBabel03021519512D

 15 16  0  0  0  0  0  0  0  0999 V2000
    1.0760    1.0451    0.0000 C   0  0  0  0  0  0  0  0  0  0  0  0
    0.0000    0.0000    0.0000 C   0  0  0  0  0  0  0  0  0  0  0  0
    2.1211   -0.0309    0.0000 C   0  0  0  0  0  0  0  0  0  0  0  0
   -1.0451    1.0760    0.0000 C   0  0  0  0  0  0  0  0  0  0  0  0
   -2.1211    0.0309    0.0000 C   0  0  0  0  0  0  0  0  0  0  0  0
    1.0451   -1.0760    0.0000 C   0  0  0  0  0  0  0  0  0  0  0  0
   -1.0760   -1.0451    0.0000 C   0  0  0  0  0  0  0  0  0  0  0  0
   -3.1662    1.1068    0.0000 C   0  0  0  0  0  0  0  0  0  0  0  0
   -4.6206    0.7397    0.0000 O   0  0  0  0  0  0  0  0  0  0  0  0
   -4.6402   -0.6050    0.0000 O   0  0  0  0  0  0  0  0  0  0  0  0
   -3.1971   -1.0143    0.0000 C   0  0  0  0  0  0  0  0  0  0  0  0
    3.1662   -1.1068    0.0000 C   0  0  0  0  0  0  0  0  0  0  0  0
    4.6206   -0.7397    0.0000 O   0  0  0  0  0  0  0  0  0  0  0  0
    3.1971    1.0143    0.0000 C   0  0  0  0  0  0  0  0  0  0  0  0
    4.6402    0.6050    0.0000 O   0  0  0  0  0  0  0  0  0  0  0  0
  1  2  1  0  0  0  0
  1  3  1  0  0  0  0
  2  4  1  0  0  0  0
  2  6  1  0  0  0  0
  2  7  1  0  0  0  0
  3  6  1  0  0  0  0
  3 12  1  0  0  0  0
  3 14  1  0  0  0  0
  4  5  1  0  0  0  0
  5  7  1  0  0  0  0
  5  8  1  0  0  0  0
  5 11  1  0  0  0  0
  8  9  1  0  0  0  0
 10 11  1  0  0  0  0
 12 13  1  0  0  0  0
 14 15  1  0  0  0  0
M  END
