36425
 OpenBabel03021519512D

 16 17  0  0  1  0  0  0  0  0999 V2000
   -4.1782   -0.8264    0.0000 O   0  0  0  0  0  0  0  0  0  0  0  0
   -6.7762   -0.8264    0.0000 C   0  0  3  0  0  0  0  0  0  0  0  0
   -5.9102   -2.3264    0.0000 C   0  0  0  0  0  0  0  0  0  0  0  0
   -5.4772   -1.5764    0.0000 C   0  0  0  0  0  0  0  0  0  0  0  0
   -8.0753   -1.5764    0.0000 C   0  0  0  0  0  0  0  0  0  0  0  0
   -5.4772   -3.0764    0.0000 C   0  0  3  0  0  0  0  0  0  0  0  0
   -8.0753   -3.0764    0.0000 C   0  0  0  0  0  0  0  0  0  0  0  0
   -6.7762   -3.8264    0.0000 C   0  0  3  0  0  0  0  0  0  0  0  0
   -6.7762    0.6736    0.0000 C   0  0  0  0  0  0  0  0  0  0  0  0
   -4.7611   -3.2906    0.0000 C   0  0  0  0  0  0  0  0  0  0  0  0
   -4.1782   -3.8264    0.0000 N   0  0  0  0  0  0  0  0  0  0  0  0
   -2.8791   -3.0764    0.0000 C   0  0  0  0  0  0  0  0  0  0  0  0
   -1.5801   -3.8264    0.0000 S   0  0  0  0  0  0  0  0  0  0  0  0
   -2.8791   -1.5764    0.0000 N   0  0  0  0  0  0  0  0  0  0  0  0
   -1.5801   -0.8264    0.0000 N   0  0  0  0  0  0  0  0  0  0  0  0
   -4.7611   -1.3622    0.0000 C   0  0  0  0  0  0  0  0  0  0  0  0
  1  4  2  0  0  0  0
  2  3  1  0  0  0  0
  2  4  1  0  0  0  0
  2  5  1  0  0  0  0
  2  9  1  0  0  0  0
  3  8  1  0  0  0  0
  3 10  1  0  0  0  0
  3 16  1  0  0  0  0
  4  6  1  0  0  0  0
  5  7  1  0  0  0  0
  6  8  1  0  0  0  0
  6 11  1  0  0  0  0
  7  8  1  0  0  0  0
 11 12  1  0  0  0  0
 12 13  2  0  0  0  0
 12 14  1  0  0  0  0
 14 15  1  0  0  0  0
M  END
