403374
 OpenBabel03021519512D

 14 14  0  0  0  0  0  0  0  0999 V2000
   -5.1380    0.3851    0.0000 Cl  0  0  0  0  0  0  0  0  0  0  0  0
   -1.6406   -1.4906    0.0000 C   0  0  0  0  0  0  0  0  0  0  0  0
   -3.1218   -1.2534    0.0000 C   0  0  0  0  0  0  0  0  0  0  0  0
   -0.6946   -0.3265    0.0000 C   0  0  0  0  0  0  0  0  0  0  0  0
   -1.2298    1.0748    0.0000 C   0  0  0  0  0  0  0  0  0  0  0  0
   -3.6569    0.1479    0.0000 C   0  0  0  0  0  0  0  0  0  0  0  0
   -2.7109    1.3120    0.0000 C   0  0  0  0  0  0  0  0  0  0  0  0
    0.7865   -0.5638    0.0000 N   0  0  0  0  0  0  0  0  0  0  0  0
    1.5160    0.7469    0.0000 C   0  0  0  0  0  0  0  0  0  0  0  0
    0.7457    2.0340    0.0000 S   0  0  0  0  0  0  0  0  0  0  0  0
    3.0158    0.7705    0.0000 N   0  0  0  0  0  0  0  0  0  0  0  0
    3.7861   -0.5166    0.0000 C   0  0  0  0  0  0  0  0  0  0  0  0
    3.0566   -1.8273    0.0000 N   0  0  0  0  0  0  0  0  0  0  0  0
    5.2859   -0.4930    0.0000 N   0  0  0  0  0  0  0  0  0  0  0  0
  1  6  1  0  0  0  0
  2  3  2  0  0  0  0
  2  4  1  0  0  0  0
  3  6  1  0  0  0  0
  4  5  2  0  0  0  0
  4  8  1  0  0  0  0
  5  7  1  0  0  0  0
  6  7  2  0  0  0  0
  8  9  1  0  0  0  0
  9 10  2  0  0  0  0
  9 11  1  0  0  0  0
 11 12  1  0  0  0  0
 12 13  1  0  0  0  0
 12 14  2  0  0  0  0
M  END
