80137
 OpenBabel03021519512D

 31 35  0  0  1  0  0  0  0  0999 V2000
   -9.4683    3.1005    0.0000 C   0  0  0  0  0  0  0  0  0  0  0  0
   -8.1692    3.8505    0.0000 C   0  0  0  0  0  0  0  0  0  0  0  0
   -6.8702    3.1005    0.0000 C   0  0  0  0  0  0  0  0  0  0  0  0
   -6.8702    1.6005    0.0000 N   0  0  3  0  0  0  0  0  0  0  0  0
   -8.1692    0.8505    0.0000 C   0  0  1  0  0  0  0  0  0  0  0  0
   -9.4683    1.6005    0.0000 C   0  0  0  0  0  0  0  0  0  0  0  0
   -5.5712    0.8505    0.0000 C   0  0  0  0  0  0  0  0  0  0  0  0
   -5.5712   -0.6495    0.0000 C   0  0  2  0  0  0  0  0  0  0  0  0
   -6.8702   -1.3995    0.0000 C   0  0  2  0  0  0  0  0  0  0  0  0
   -8.1692   -0.6495    0.0000 C   0  0  0  0  0  0  0  0  0  0  0  0
   -4.2721   -1.3995    0.0000 C   0  0  0  0  0  0  0  0  0  0  0  0
   -4.2721   -2.8995    0.0000 C   0  0  2  0  0  0  0  0  0  0  0  0
   -5.5711   -3.6495    0.0000 C   0  0  1  0  0  0  0  0  0  0  0  0
   -6.8702   -2.8995    0.0000 C   0  0  1  0  0  0  0  0  0  0  0  0
  -11.7765    2.3505    0.0000 C   0  0  0  0  0  0  0  0  0  0  0  0
  -10.8949    3.5640    0.0000 C   0  0  0  0  0  0  0  0  0  0  0  0
  -13.2683    2.5073    0.0000 C   0  0  0  0  0  0  0  0  0  0  0  0
  -13.8784    3.8776    0.0000 C   0  0  0  0  0  0  0  0  0  0  0  0
  -12.9968    5.0911    0.0000 C   0  0  0  0  0  0  0  0  0  0  0  0
  -11.5050    4.9343    0.0000 C   0  0  0  0  0  0  0  0  0  0  0  0
   -8.1692   -3.6495    0.0000 C   0  0  0  0  0  0  0  0  0  0  0  0
  -10.8949    1.1369    0.0000 N   0  0  0  0  0  0  0  0  0  0  0  0
   -8.1692   -5.1495    0.0000 O   0  0  0  0  0  0  0  0  0  0  0  0
   -2.9731   -3.6495    0.0000 O   0  0  0  0  0  0  0  0  0  0  0  0
   -5.5712   -2.1495    0.0000 H   0  0  0  0  0  0  0  0  0  0  0  0
   -6.8702    0.1005    0.0000 H   0  0  0  0  0  0  0  0  0  0  0  0
   -8.1692    2.3505    0.0000 H   0  0  0  0  0  0  0  0  0  0  0  0
  -15.3702    4.0344    0.0000 O   0  0  0  0  0  0  0  0  0  0  0  0
  -16.2519    2.8208    0.0000 C   0  0  0  0  0  0  0  0  0  0  0  0
   -5.5711   -5.1495    0.0000 O   0  0  0  0  0  0  0  0  0  0  0  0
   -6.8702   -5.8995    0.0000 C   0  0  0  0  0  0  0  0  0  0  0  0
  1  2  1  0  0  0  0
  1  6  2  0  0  0  0
  1 16  1  0  0  0  0
  2  3  1  0  0  0  0
  3  4  1  0  0  0  0
  4  5  1  0  0  0  0
  4  7  1  0  0  0  0
  5  6  1  0  0  0  0
  5 10  1  0  0  0  0
  5 27  1  1  0  0  0
  6 22  1  0  0  0  0
  7  8  1  0  0  0  0
  8  9  1  0  0  0  0
  8 11  1  0  0  0  0
  8 25  1  6  0  0  0
  9 10  1  0  0  0  0
  9 14  1  0  0  0  0
  9 26  1  6  0  0  0
 11 12  1  0  0  0  0
 12 13  1  0  0  0  0
 12 24  1  1  0  0  0
 13 14  1  0  0  0  0
 13 30  1  6  0  0  0
 14 21  1  1  0  0  0
 15 16  2  0  0  0  0
 15 17  1  0  0  0  0
 15 22  1  0  0  0  0
 16 20  1  0  0  0  0
 17 18  2  0  0  0  0
 18 19  1  0  0  0  0
 18 28  1  0  0  0  0
 19 20  2  0  0  0  0
 21 23  1  0  0  0  0
 28 29  1  0  0  0  0
 30 31  1  0  0  0  0
M  END
