70307
 OpenBabel03021519512D

 20 21  0  0  0  0  0  0  0  0999 V2000
   -6.8202   -6.3037    0.0000 N   0  0  0  0  0  0  0  0  0  0  0  0
   -5.5211   -8.5537    0.0000 N   0  0  0  0  0  0  0  0  0  0  0  0
   -5.5211   -4.0537    0.0000 O   0  0  0  0  0  0  0  0  0  0  0  0
   -5.5211  -10.0537    0.0000 H   0  0  0  0  0  0  0  0  0  0  0  0
   -0.2537   -3.9138    0.0000 O   0  0  0  0  0  0  0  0  0  0  0  0
   -1.4672   -1.8119    0.0000 O   0  0  0  0  0  0  0  0  0  0  0  0
   -5.5211   -5.5537    0.0000 C   0  0  0  0  0  0  0  0  0  0  0  0
   -4.2221   -6.3037    0.0000 C   0  0  0  0  0  0  0  0  0  0  0  0
   -4.2221   -7.8037    0.0000 C   0  0  0  0  0  0  0  0  0  0  0  0
    0.0000   -1.5000    0.0000 C   0  0  0  0  0  0  0  0  0  0  0  0
    0.7500   -2.7990    0.0000 C   0  0  0  0  0  0  0  0  0  0  0  0
   -1.6240   -3.3037    0.0000 C   0  0  0  0  0  0  0  0  0  0  0  0
   -6.8202   -7.8037    0.0000 C   0  0  0  0  0  0  0  0  0  0  0  0
   -8.1192   -8.5537    0.0000 N   0  0  0  0  0  0  0  0  0  0  0  0
   -9.4182   -7.8037    0.0000 C   0  0  0  0  0  0  0  0  0  0  0  0
  -10.7173   -8.5537    0.0000 O   0  0  0  0  0  0  0  0  0  0  0  0
   -9.4182   -6.3037    0.0000 C   0  0  0  0  0  0  0  0  0  0  0  0
   -2.9230   -8.5537    0.0000 C   0  0  0  0  0  0  0  0  0  0  0  0
   -2.9230   -5.5537    0.0000 C   0  0  0  0  0  0  0  0  0  0  0  0
   -2.9230   -4.0537    0.0000 C   0  0  0  0  0  0  0  0  0  0  0  0
  1 13  2  0  0  0  0
  1  7  1  0  0  0  0
  2  9  1  0  0  0  0
  2 13  1  0  0  0  0
  2  4  1  0  0  0  0
  3  7  2  0  0  0  0
  5 11  1  0  0  0  0
  5 12  1  0  0  0  0
  6 10  1  0  0  0  0
  6 12  1  0  0  0  0
  7  8  1  0  0  0  0
  8  9  2  0  0  0  0
  8 19  1  0  0  0  0
  9 18  1  0  0  0  0
 10 11  1  0  0  0  0
 12 20  1  0  0  0  0
 13 14  1  0  0  0  0
 14 15  1  0  0  0  0
 15 16  2  0  0  0  0
 15 17  1  0  0  0  0
 19 20  1  0  0  0  0
M  END
