605333
 OpenBabel03021519512D

 16 19  0  0  0  0  0  0  0  0999 V2000
   -8.3820   -4.9635    0.0000 C   0  0  0  0  0  0  0  0  0  0  0  0
   -9.6810   -4.2135    0.0000 C   0  0  0  0  0  0  0  0  0  0  0  0
   -9.6810   -2.7135    0.0000 C   0  0  0  0  0  0  0  0  0  0  0  0
   -8.3820   -1.9635    0.0000 C   0  0  0  0  0  0  0  0  0  0  0  0
   -7.0829   -2.7135    0.0000 C   0  0  0  0  0  0  0  0  0  0  0  0
   -7.0829   -4.2135    0.0000 C   0  0  0  0  0  0  0  0  0  0  0  0
   -5.6563   -4.6771    0.0000 S   0  0  0  0  0  0  0  0  0  0  0  0
   -4.7747   -3.4635    0.0000 C   0  0  0  0  0  0  0  0  0  0  0  0
   -5.6563   -2.2500    0.0000 C   0  0  0  0  0  0  0  0  0  0  0  0
   -3.3481   -3.0000    0.0000 C   0  0  0  0  0  0  0  0  0  0  0  0
   -3.3481   -1.5000    0.0000 C   0  0  0  0  0  0  0  0  0  0  0  0
   -4.7747   -1.0365    0.0000 N   0  0  0  0  0  0  0  0  0  0  0  0
   -2.0490   -3.7500    0.0000 C   0  0  0  0  0  0  0  0  0  0  0  0
   -0.7500   -3.0000    0.0000 C   0  0  0  0  0  0  0  0  0  0  0  0
   -0.7500   -1.5000    0.0000 C   0  0  0  0  0  0  0  0  0  0  0  0
   -2.0490   -0.7500    0.0000 C   0  0  0  0  0  0  0  0  0  0  0  0
  1  2  2  0  0  0  0
  1  6  1  0  0  0  0
  2  3  1  0  0  0  0
  3  4  2  0  0  0  0
  4  5  1  0  0  0  0
  5  6  2  0  0  0  0
  5  9  1  0  0  0  0
  6  7  1  0  0  0  0
  7  8  1  0  0  0  0
  8  9  2  0  0  0  0
  8 10  1  0  0  0  0
  9 12  1  0  0  0  0
 10 11  2  0  0  0  0
 10 13  1  0  0  0  0
 11 12  1  0  0  0  0
 11 16  1  0  0  0  0
 13 14  2  0  0  0  0
 14 15  1  0  0  0  0
 15 16  2  0  0  0  0
M  END
