41833
 OpenBabel03021519512D

 11 11  0  0  0  0  0  0  0  0999 V2000
   -5.7215   -2.2500    0.0000 C   0  0  0  0  0  0  0  0  0  0  0  0
   -7.0205   -3.0000    0.0000 C   0  0  0  0  0  0  0  0  0  0  0  0
   -4.4224   -4.5000    0.0000 C   0  0  0  0  0  0  0  0  0  0  0  0
   -7.0205   -4.5000    0.0000 C   0  0  0  0  0  0  0  0  0  0  0  0
   -5.7215   -5.2500    0.0000 N   0  0  0  0  0  0  0  0  0  0  0  0
   -5.7214   -6.7500    0.0000 H   0  0  0  0  0  0  0  0  0  0  0  0
   -4.4224   -3.0000    0.0000 N   0  0  0  0  0  0  0  0  0  0  0  0
   -3.1234   -5.2500    0.0000 N   0  0  0  0  0  0  0  0  0  0  0  0
   -1.8243   -4.5000    0.0000 H   0  0  0  0  0  0  0  0  0  0  0  0
   -8.3195   -5.2500    0.0000 C   0  0  0  0  0  0  0  0  0  0  0  0
   -5.7215   -0.7500    0.0000 O   0  0  0  0  0  0  0  0  0  0  0  0
  1  7  2  0  0  0  0
  1  2  1  0  0  0  0
  1 11  1  0  0  0  0
  2  4  2  0  0  0  0
  3  8  2  0  0  0  0
  3  7  1  0  0  0  0
  3  5  1  0  0  0  0
  4  5  1  0  0  0  0
  4 10  1  0  0  0  0
  5  6  1  0  0  0  0
  8  9  1  0  0  0  0
M  END
