12666
 OpenBabel03021519512D

 22 23  0  0  0  0  0  0  0  0999 V2000
   -1.8896    2.6729    0.0000 O   0  0  0  0  0  0  0  0  0  0  0  0
    6.9638    9.5596    0.0000 C   0  0  0  0  0  0  0  0  0  0  0  0
    8.2629   10.3096    0.0000 C   0  0  0  0  0  0  0  0  0  0  0  0
    6.9638    8.0596    0.0000 C   0  0  0  0  0  0  0  0  0  0  0  0
    9.5619    9.5596    0.0000 C   0  0  0  0  0  0  0  0  0  0  0  0
    8.2629    7.3096    0.0000 C   0  0  0  0  0  0  0  0  0  0  0  0
    9.5619    8.0596    0.0000 C   0  0  0  0  0  0  0  0  0  0  0  0
    2.6120    5.5471    0.0000 C   0  0  0  0  0  0  0  0  0  0  0  0
    1.3130    4.7971    0.0000 C   0  0  0  0  0  0  0  0  0  0  0  0
    3.9111    4.7971    0.0000 C   0  0  0  0  0  0  0  0  0  0  0  0
    3.9111    3.2971    0.0000 C   0  0  0  0  0  0  0  0  0  0  0  0
    1.3130    3.2971    0.0000 C   0  0  0  0  0  0  0  0  0  0  0  0
    2.6120    2.5471    0.0000 C   0  0  0  0  0  0  0  0  0  0  0  0
   -0.4407    2.2846    0.0000 As  0  0  0  0  0  0  0  0  0  0  0  0
    0.3093    3.5837    0.0000 O   0  0  0  0  0  0  0  0  0  0  0  0
   -0.0525    0.8357    0.0000 O   0  0  0  0  0  0  0  0  0  0  0  0
    5.6648    5.8096    0.0000 N   0  0  0  0  0  0  0  0  0  0  0  0
    5.6648    7.3096    0.0000 C   0  0  0  0  0  0  0  0  0  0  0  0
    4.3657    8.0596    0.0000 O   0  0  0  0  0  0  0  0  0  0  0  0
   10.8609   10.3096    0.0000 C   0  0  0  0  0  0  0  0  0  0  0  0
   10.8609   11.8096    0.0000 O   0  0  0  0  0  0  0  0  0  0  0  0
   12.1600    9.5596    0.0000 N   0  0  0  0  0  0  0  0  0  0  0  0
  1 14  2  0  0  0  0
  2  3  2  0  0  0  0
  2  4  1  0  0  0  0
  3  5  1  0  0  0  0
  4  6  2  0  0  0  0
  4 18  1  0  0  0  0
  5  7  2  0  0  0  0
  5 20  1  0  0  0  0
  6  7  1  0  0  0  0
  8  9  2  0  0  0  0
  8 10  1  0  0  0  0
  9 12  1  0  0  0  0
 10 11  2  0  0  0  0
 10 17  1  0  0  0  0
 11 13  1  0  0  0  0
 12 13  2  0  0  0  0
 12 14  1  0  0  0  0
 14 15  1  0  0  0  0
 14 16  1  0  0  0  0
 17 18  1  0  0  0  0
 18 19  2  0  0  0  0
 20 21  2  0  0  0  0
 20 22  1  0  0  0  0
M  END
