99663
 OpenBabel03021519512D

 22 24  0  0  0  0  0  0  0  0999 V2000
   -7.6049   -8.3702    0.0000 S   0  0  0  0  0  0  0  0  0  0  0  0
   -6.3059   -6.1202    0.0000 N   0  0  0  0  0  0  0  0  0  0  0  0
   -5.0068   -3.8702    0.0000 O   0  0  0  0  0  0  0  0  0  0  0  0
   -5.0068   -8.3702    0.0000 N   0  0  0  0  0  0  0  0  0  0  0  0
   -2.2812   -5.6567    0.0000 N   0  0  0  0  0  0  0  0  0  0  0  0
   -1.8177   -4.2301    0.0000 H   0  0  0  0  0  0  0  0  0  0  0  0
   -2.2812   -8.0837    0.0000 N   0  0  0  0  0  0  0  0  0  0  0  0
    0.1005   -6.8702    0.0000 S   0  0  0  0  0  0  0  0  0  0  0  0
   -1.3995   -9.4683    0.0000 N   0  0  0  0  0  0  0  0  0  0  0  0
   -5.0068   -5.3702    0.0000 C   0  0  0  0  0  0  0  0  0  0  0  0
   -3.7078   -6.1202    0.0000 C   0  0  0  0  0  0  0  0  0  0  0  0
   -3.7078   -7.6202    0.0000 C   0  0  0  0  0  0  0  0  0  0  0  0
   -2.1495  -10.7673    0.0000 C   0  0  0  0  0  0  0  0  0  0  0  0
   -1.3995  -12.0664    0.0000 C   0  0  0  0  0  0  0  0  0  0  0  0
    0.1005  -12.0663    0.0000 C   0  0  0  0  0  0  0  0  0  0  0  0
    0.8505  -10.7673    0.0000 C   0  0  0  0  0  0  0  0  0  0  0  0
    0.1005   -9.4683    0.0000 C   0  0  0  0  0  0  0  0  0  0  0  0
   -1.3995   -6.8702    0.0000 C   0  0  0  0  0  0  0  0  0  0  0  0
   -6.3059   -7.6202    0.0000 C   0  0  0  0  0  0  0  0  0  0  0  0
   -7.6049   -5.3702    0.0000 C   0  0  0  0  0  0  0  0  0  0  0  0
   -5.0068   -9.8702    0.0000 C   0  0  0  0  0  0  0  0  0  0  0  0
    0.8505   -8.1692    0.0000 C   0  0  0  0  0  0  0  0  0  0  0  0
  1 19  2  0  0  0  0
  2 10  1  0  0  0  0
  2 19  1  0  0  0  0
  2 20  1  0  0  0  0
  3 10  2  0  0  0  0
  4 12  1  0  0  0  0
  4 19  1  0  0  0  0
  4 21  1  0  0  0  0
  5 11  1  0  0  0  0
  5 18  1  0  0  0  0
  5  6  1  0  0  0  0
  7 18  2  0  0  0  0
  7 12  1  0  0  0  0
  8 18  1  0  0  0  0
  8 22  1  0  0  0  0
  9 17  2  0  0  0  0
  9 13  1  0  0  0  0
 10 11  1  0  0  0  0
 11 12  2  0  0  0  0
 13 14  2  0  0  0  0
 14 15  1  0  0  0  0
 15 16  2  0  0  0  0
 16 17  1  0  0  0  0
 17 22  1  0  0  0  0
M  END
