15571
 OpenBabel03021519512D

 13 13  0  0  0  0  0  0  0  0999 V2000
   -2.4556   -2.7721    0.0000 O   0  0  0  0  0  0  0  0  0  0  0  0
   -6.9587   -2.1989    0.0000 C   0  0  0  0  0  0  0  0  0  0  0  0
   -8.2577   -2.9489    0.0000 C   0  0  0  0  0  0  0  0  0  0  0  0
   -5.6596   -2.9489    0.0000 C   0  0  0  0  0  0  0  0  0  0  0  0
   -5.6596   -4.4489    0.0000 C   0  0  0  0  0  0  0  0  0  0  0  0
   -8.2577   -4.4489    0.0000 C   0  0  0  0  0  0  0  0  0  0  0  0
   -6.9587   -5.1989    0.0000 C   0  0  0  0  0  0  0  0  0  0  0  0
   -3.5162   -1.7114    0.0000 As  0  0  0  0  0  0  0  0  0  0  0  0
   -3.1280   -0.2625    0.0000 O   0  0  0  0  0  0  0  0  0  0  0  0
   -5.0162   -1.7114    0.0000 O   0  0  0  0  0  0  0  0  0  0  0  0
   -4.3606   -5.1989    0.0000 C   0  0  0  0  0  0  0  0  0  0  0  0
   -3.0616   -4.4489    0.0000 O   0  0  0  0  0  0  0  0  0  0  0  0
   -4.3606   -6.6989    0.0000 O   0  0  0  0  0  0  0  0  0  0  0  0
  1  8  2  0  0  0  0
  2  3  2  0  0  0  0
  2  4  1  0  0  0  0
  3  6  1  0  0  0  0
  4  5  2  0  0  0  0
  4  8  1  0  0  0  0
  5  7  1  0  0  0  0
  5 11  1  0  0  0  0
  6  7  2  0  0  0  0
  8  9  1  0  0  0  0
  8 10  1  0  0  0  0
 11 12  2  0  0  0  0
 11 13  1  0  0  0  0
M  END
