30813
 OpenBabel03021519512D

 21 24  0  0  0  0  0  0  0  0999 V2000
   -3.3206    1.5878    0.0000 N   0  0  0  0  0  0  0  0  0  0  0  0
   -3.4509    0.0935    0.0000 N   0  0  0  0  0  0  0  0  0  0  0  0
   -1.8591    1.9257    0.0000 N   0  0  0  0  0  0  0  0  0  0  0  0
   -2.0700   -0.4922    0.0000 N   0  0  0  0  0  0  0  0  0  0  0  0
    3.6225    2.8374    0.0000 C   0  0  0  0  0  0  0  0  0  0  0  0
    2.7625    1.6084    0.0000 C   0  0  0  0  0  0  0  0  0  0  0  0
    2.9882    4.1967    0.0000 C   0  0  0  0  0  0  0  0  0  0  0  0
    3.3968    0.2491    0.0000 C   0  0  0  0  0  0  0  0  0  0  0  0
    2.5367   -0.9798    0.0000 C   0  0  0  0  0  0  0  0  0  0  0  0
    1.4939    4.3270    0.0000 C   0  0  0  0  0  0  0  0  0  0  0  0
    1.2681    1.7388    0.0000 C   0  0  0  0  0  0  0  0  0  0  0  0
    1.0424   -0.8495    0.0000 C   0  0  0  0  0  0  0  0  0  0  0  0
    0.6338    3.0980    0.0000 C   0  0  0  0  0  0  0  0  0  0  0  0
    0.4081    0.5098    0.0000 C   0  0  0  0  0  0  0  0  0  0  0  0
   -1.0862    0.6401    0.0000 C   0  0  0  0  0  0  0  0  0  0  0  0
   -1.7322   -1.9537    0.0000 C   0  0  0  0  0  0  0  0  0  0  0  0
   -0.2976   -2.3918    0.0000 C   0  0  0  0  0  0  0  0  0  0  0  0
   -2.8289   -2.9770    0.0000 C   0  0  0  0  0  0  0  0  0  0  0  0
    0.0402   -3.8533    0.0000 C   0  0  0  0  0  0  0  0  0  0  0  0
   -2.4911   -4.4384    0.0000 C   0  0  0  0  0  0  0  0  0  0  0  0
   -1.0565   -4.8766    0.0000 C   0  0  0  0  0  0  0  0  0  0  0  0
  1  3  1  0  0  0  0
  1  2  2  0  0  0  0
  2  4  1  0  0  0  0
  3 15  2  0  0  0  0
  4 15  1  0  0  0  0
  4 16  1  0  0  0  0
  5  7  2  0  0  0  0
  5  6  1  0  0  0  0
  6 11  2  0  0  0  0
  6  8  1  0  0  0  0
  7 10  1  0  0  0  0
  8  9  2  0  0  0  0
  9 12  1  0  0  0  0
 10 13  2  0  0  0  0
 11 14  1  0  0  0  0
 11 13  1  0  0  0  0
 12 14  2  0  0  0  0
 14 15  1  0  0  0  0
 16 17  2  0  0  0  0
 16 18  1  0  0  0  0
 17 19  1  0  0  0  0
 18 20  2  0  0  0  0
 19 21  2  0  0  0  0
 20 21  1  0  0  0  0
M  END
