370387
 OpenBabel03021519512D

 14 15  0  0  0  0  0  0  0  0999 V2000
    2.9235    4.8901    0.0000 H   0  0  0  0  0  0  0  0  0  0  0  0
    4.2225    4.1401    0.0000 N   0  0  0  0  0  0  0  0  0  0  0  0
    4.2226    2.6401    0.0000 C   0  0  0  0  0  0  0  0  0  0  0  0
    5.5216    4.8901    0.0000 C   0  0  0  0  0  0  0  0  0  0  0  0
    5.5216    6.3901    0.0000 O   0  0  0  0  0  0  0  0  0  0  0  0
    5.5216    1.8901    0.0000 N   0  0  0  0  0  0  0  0  0  0  0  0
    6.8206    4.1401    0.0000 C   0  0  0  0  0  0  0  0  0  0  0  0
    6.8206    2.6401    0.0000 C   0  0  0  0  0  0  0  0  0  0  0  0
    8.2472    2.1766    0.0000 N   0  0  0  0  0  0  0  0  0  0  0  0
    8.2472    4.6036    0.0000 C   0  0  0  0  0  0  0  0  0  0  0  0
    8.7107    0.7500    0.0000 H   0  0  0  0  0  0  0  0  0  0  0  0
    9.1289    3.3901    0.0000 N   0  0  0  0  0  0  0  0  0  0  0  0
    8.7107    6.0302    0.0000 C   0  0  0  0  0  0  0  0  0  0  0  0
    9.1743    7.4568    0.0000 N   0  0  0  0  0  0  0  0  0  0  0  0
  1  2  1  0  0  0  0
  2  4  1  0  0  0  0
  2  3  1  0  0  0  0
  3  6  2  0  0  0  0
  4  5  2  0  0  0  0
  4  7  1  0  0  0  0
  6  8  1  0  0  0  0
  7 10  1  0  0  0  0
  7  8  2  0  0  0  0
  8  9  1  0  0  0  0
  9 12  1  0  0  0  0
  9 11  1  0  0  0  0
 10 12  2  0  0  0  0
 10 13  1  0  0  0  0
 13 14  3  0  0  0  0
M  END
