29620
 OpenBabel03021519512D

 16 16  0  0  1  0  0  0  0  0999 V2000
  -11.8303   -5.6928    0.0000 O   0  0  0  0  0  0  0  0  0  0  0  0
   -9.1901   -3.7746    0.0000 H   0  0  0  0  0  0  0  0  0  0  0  0
   -9.1901   -5.2747    0.0000 N   0  0  0  0  0  0  0  0  0  0  0  0
   -7.5585   -8.7964    0.0000 O   0  0  0  0  0  0  0  0  0  0  0  0
   -7.9766   -6.1563    0.0000 C   0  0  3  0  0  0  0  0  0  0  0  0
   -8.4401   -7.5829    0.0000 C   0  0  0  0  0  0  0  0  0  0  0  0
  -10.4037   -6.1563    0.0000 C   0  0  0  0  0  0  0  0  0  0  0  0
   -9.9401   -7.5829    0.0000 N   0  0  0  0  0  0  0  0  0  0  0  0
   -7.2266   -4.8573    0.0000 C   0  0  0  0  0  0  0  0  0  0  0  0
   -5.7266   -4.8573    0.0000 C   0  0  0  0  0  0  0  0  0  0  0  0
   -4.9766   -3.5583    0.0000 C   0  0  0  0  0  0  0  0  0  0  0  0
   -3.4766   -3.5583    0.0000 C   0  0  0  0  0  0  0  0  0  0  0  0
   -2.7266   -2.2592    0.0000 C   0  0  0  0  0  0  0  0  0  0  0  0
   -1.2266   -2.2592    0.0000 C   0  0  0  0  0  0  0  0  0  0  0  0
   -0.4766   -0.9602    0.0000 C   0  0  0  0  0  0  0  0  0  0  0  0
   -6.6063   -6.7664    0.0000 C   0  0  0  0  0  0  0  0  0  0  0  0
  1  7  2  0  0  0  0
  2  3  1  0  0  0  0
  3  5  1  0  0  0  0
  3  7  1  0  0  0  0
  4  6  2  0  0  0  0
  5  6  1  0  0  0  0
  5  9  1  0  0  0  0
  5 16  1  0  0  0  0
  6  8  1  0  0  0  0
  7  8  1  0  0  0  0
  9 10  1  0  0  0  0
 10 11  1  0  0  0  0
 11 12  1  0  0  0  0
 12 13  1  0  0  0  0
 13 14  1  0  0  0  0
 14 15  1  0  0  0  0
M  END
