293780
 OpenBabel03021519512D

 16 18  0  0  0  0  0  0  0  0999 V2000
   -0.8700    5.0351    0.0000 C   0  0  0  0  0  0  0  0  0  0  0  0
   -0.8700    3.5351    0.0000 C   0  0  0  0  0  0  0  0  0  0  0  0
    0.4291    5.7851    0.0000 C   0  0  0  0  0  0  0  0  0  0  0  0
    0.4291    2.7851    0.0000 C   0  0  0  0  0  0  0  0  0  0  0  0
    1.7281    5.0351    0.0000 C   0  0  0  0  0  0  0  0  0  0  0  0
    1.7281    3.5351    0.0000 C   0  0  0  0  0  0  0  0  0  0  0  0
    2.9009    2.5999    0.0000 N   0  0  0  0  0  0  0  0  0  0  0  0
    2.9009    5.9704    0.0000 O   0  0  0  0  0  0  0  0  0  0  0  0
    4.3633    2.9337    0.0000 C   0  0  0  0  0  0  0  0  0  0  0  0
    5.0141    4.2851    0.0000 C   0  0  0  0  0  0  0  0  0  0  0  0
    4.3633    5.6366    0.0000 C   0  0  0  0  0  0  0  0  0  0  0  0
    6.5099    4.1730    0.0000 C   0  0  0  0  0  0  0  0  0  0  0  0
    5.2082    6.8759    0.0000 C   0  0  0  0  0  0  0  0  0  0  0  0
    6.7040    6.7638    0.0000 C   0  0  0  0  0  0  0  0  0  0  0  0
    7.3549    5.4124    0.0000 C   0  0  0  0  0  0  0  0  0  0  0  0
    7.5490    8.0032    0.0000 C   0  0  0  0  0  0  0  0  0  0  0  0
  1  3  2  0  0  0  0
  1  2  1  0  0  0  0
  2  4  2  0  0  0  0
  3  5  1  0  0  0  0
  4  6  1  0  0  0  0
  5  8  1  0  0  0  0
  5  6  2  0  0  0  0
  6  7  1  0  0  0  0
  7  9  2  0  0  0  0
  8 11  1  0  0  0  0
  9 10  1  0  0  0  0
 10 11  2  0  0  0  0
 10 12  1  0  0  0  0
 11 13  1  0  0  0  0
 12 15  2  0  0  0  0
 13 14  2  0  0  0  0
 14 15  1  0  0  0  0
 14 16  1  0  0  0  0
M  END
