158413
 OpenBabel03021519512D

 28 31  0  0  0  0  0  0  0  0999 V2000
  -13.7404   -3.7500    0.0000 S   0  0  0  0  0  0  0  0  0  0  0  0
   -7.2452   -7.5000    0.0000 Cl  0  0  0  0  0  0  0  0  0  0  0  0
   -7.2452   -3.0000    0.0000 N   0  0  0  0  0  0  0  0  0  0  0  0
   -4.6471   -3.0000    0.0000 C   0  0  0  0  0  0  0  0  0  0  0  0
   -3.3481   -3.7500    0.0000 C   0  0  0  0  0  0  0  0  0  0  0  0
   -5.9462   -3.7500    0.0000 C   0  0  0  0  0  0  0  0  0  0  0  0
   -3.3481   -5.2500    0.0000 C   0  0  0  0  0  0  0  0  0  0  0  0
   -5.9461   -5.2500    0.0000 C   0  0  0  0  0  0  0  0  0  0  0  0
   -4.6471   -6.0000    0.0000 C   0  0  0  0  0  0  0  0  0  0  0  0
   -7.2452   -6.0000    0.0000 C   0  0  0  0  0  0  0  0  0  0  0  0
   -8.5442   -5.2500    0.0000 C   0  0  0  0  0  0  0  0  0  0  0  0
   -9.8433   -1.5000    0.0000 C   0  0  0  0  0  0  0  0  0  0  0  0
  -11.1423   -0.7500    0.0000 C   0  0  0  0  0  0  0  0  0  0  0  0
   -9.8433   -3.0000    0.0000 C   0  0  0  0  0  0  0  0  0  0  0  0
   -8.5442   -3.7500    0.0000 C   0  0  0  0  0  0  0  0  0  0  0  0
  -11.1423   -3.7500    0.0000 C   0  0  0  0  0  0  0  0  0  0  0  0
  -12.4413   -1.5000    0.0000 C   0  0  0  0  0  0  0  0  0  0  0  0
  -12.4413   -3.0000    0.0000 C   0  0  0  0  0  0  0  0  0  0  0  0
  -13.7404   -5.2500    0.0000 C   0  0  0  0  0  0  0  0  0  0  0  0
  -15.0394   -6.0000    0.0000 C   0  0  0  0  0  0  0  0  0  0  0  0
  -12.4413   -6.0000    0.0000 C   0  0  0  0  0  0  0  0  0  0  0  0
  -12.4413   -7.5000    0.0000 C   0  0  0  0  0  0  0  0  0  0  0  0
  -15.0394   -7.5000    0.0000 C   0  0  0  0  0  0  0  0  0  0  0  0
  -13.7404   -8.2500    0.0000 C   0  0  0  0  0  0  0  0  0  0  0  0
   -2.0490   -6.0000    0.0000 S   0  0  0  0  0  0  0  0  0  0  0  0
   -2.7990   -7.2990    0.0000 O   0  0  0  0  0  0  0  0  0  0  0  0
   -1.2990   -4.7010    0.0000 O   0  0  0  0  0  0  0  0  0  0  0  0
   -0.7500   -6.7500    0.0000 F   0  0  0  0  0  0  0  0  0  0  0  0
  1 18  1  0  0  0  0
  1 19  1  0  0  0  0
  2 10  1  0  0  0  0
  3 15  2  0  0  0  0
  3  6  1  0  0  0  0
  4  5  2  0  0  0  0
  4  6  1  0  0  0  0
  5  7  1  0  0  0  0
  6  8  2  0  0  0  0
  7  9  2  0  0  0  0
  7 25  1  0  0  0  0
  8 10  1  0  0  0  0
  8  9  1  0  0  0  0
 10 11  2  0  0  0  0
 11 15  1  0  0  0  0
 12 13  2  0  0  0  0
 12 14  1  0  0  0  0
 13 17  1  0  0  0  0
 14 16  2  0  0  0  0
 14 15  1  0  0  0  0
 16 18  1  0  0  0  0
 17 18  2  0  0  0  0
 19 21  2  0  0  0  0
 19 20  1  0  0  0  0
 20 23  2  0  0  0  0
 21 22  1  0  0  0  0
 22 24  2  0  0  0  0
 23 24  1  0  0  0  0
 25 26  2  0  0  0  0
 25 27  2  0  0  0  0
 25 28  1  0  0  0  0
M  END
