21034
 OpenBabel03021519512D

 17 18  0  0  0  0  0  0  0  0999 V2000
   -1.6317   -2.5365    0.0000 O   0  0  0  0  0  0  0  0  0  0  0  0
   -1.6317   -4.9635    0.0000 O   0  0  0  0  0  0  0  0  0  0  0  0
   -4.3573   -2.2500    0.0000 C   0  0  0  0  0  0  0  0  0  0  0  0
   -3.0583   -3.0000    0.0000 C   0  0  0  0  0  0  0  0  0  0  0  0
   -5.6563   -3.0000    0.0000 C   0  0  0  0  0  0  0  0  0  0  0  0
   -3.0583   -4.5000    0.0000 C   0  0  0  0  0  0  0  0  0  0  0  0
   -5.6563   -4.5000    0.0000 C   0  0  0  0  0  0  0  0  0  0  0  0
   -4.3573   -5.2500    0.0000 C   0  0  0  0  0  0  0  0  0  0  0  0
   -0.7500   -3.7500    0.0000 C   0  0  0  0  0  0  0  0  0  0  0  0
   -6.9554   -6.7500    0.0000 C   0  0  0  0  0  0  0  0  0  0  0  0
   -5.6563   -7.5000    0.0000 C   0  0  0  0  0  0  0  0  0  0  0  0
   -5.6563   -9.0000    0.0000 O   0  0  0  0  0  0  0  0  0  0  0  0
   -4.3573   -6.7500    0.0000 O   0  0  0  0  0  0  0  0  0  0  0  0
   -6.9554   -2.2500    0.0000 N   0  3  0  0  0  0  0  0  0  0  0  0
   -8.2544   -3.0000    0.0000 O   0  5  0  0  0  0  0  0  0  0  0  0
   -6.9554   -0.7500    0.0000 O   0  0  0  0  0  0  0  0  0  0  0  0
   -6.9554   -5.2500    0.0000 C   0  0  0  0  0  0  0  0  0  0  0  0
  1  4  1  0  0  0  0
  1  9  1  0  0  0  0
  2  6  1  0  0  0  0
  2  9  1  0  0  0  0
  3  5  2  0  0  0  0
  3  4  1  0  0  0  0
  4  6  2  0  0  0  0
  5  7  1  0  0  0  0
  5 14  1  0  0  0  0
  6  8  1  0  0  0  0
  7  8  2  0  0  0  0
  7 17  1  0  0  0  0
 10 11  1  0  0  0  0
 10 17  2  0  0  0  0
 11 12  2  0  0  0  0
 11 13  1  0  0  0  0
 14 15  1  0  0  0  0
 14 16  2  0  0  0  0
M  CHG  2  14   1  15  -1
M  END
