83345
 OpenBabel03021519512D

 17 19  0  0  1  0  0  0  0  0999 V2000
   -3.5221    5.8995    0.0000 H   0  0  0  0  0  0  0  0  0  0  0  0
   -2.2231    6.6495    0.0000 N   0  0  0  0  0  0  0  0  0  0  0  0
    1.8016    8.6131    0.0000 N   0  0  0  0  0  0  0  0  0  0  0  0
    2.2651   10.0396    0.0000 H   0  0  0  0  0  0  0  0  0  0  0  0
    1.8016    6.1860    0.0000 N   0  0  0  0  0  0  0  0  0  0  0  0
   -0.9240    8.8995    0.0000 C   0  0  0  0  0  0  0  0  0  0  0  0
   -2.2231    8.1495    0.0000 C   0  0  0  0  0  0  0  0  0  0  0  0
    0.3750    8.1495    0.0000 C   0  0  0  0  0  0  0  0  0  0  0  0
    0.3750    6.6495    0.0000 C   0  0  0  0  0  0  0  0  0  0  0  0
   -0.9240    5.8995    0.0000 C   0  0  3  0  0  0  0  0  0  0  0  0
   -0.9240    4.3995    0.0000 C   0  0  0  0  0  0  0  0  0  0  0  0
   -2.2231    3.6495    0.0000 C   0  0  0  0  0  0  0  0  0  0  0  0
    0.3750    3.6495    0.0000 C   0  0  0  0  0  0  0  0  0  0  0  0
    0.3750    2.1495    0.0000 C   0  0  0  0  0  0  0  0  0  0  0  0
   -2.2231    2.1495    0.0000 C   0  0  0  0  0  0  0  0  0  0  0  0
   -0.9240    1.3995    0.0000 C   0  0  0  0  0  0  0  0  0  0  0  0
    2.6833    7.3995    0.0000 C   0  0  0  0  0  0  0  0  0  0  0  0
  1  2  1  0  0  0  0
  2  7  1  0  0  0  0
  2 10  1  0  0  0  0
  3  8  1  0  0  0  0
  3 17  1  0  0  0  0
  3  4  1  0  0  0  0
  5 17  2  0  0  0  0
  5  9  1  0  0  0  0
  6  7  1  0  0  0  0
  6  8  1  0  0  0  0
  8  9  2  0  0  0  0
  9 10  1  0  0  0  0
 10 11  1  0  0  0  0
 11 13  2  0  0  0  0
 11 12  1  0  0  0  0
 12 15  2  0  0  0  0
 13 14  1  0  0  0  0
 14 16  2  0  0  0  0
 15 16  1  0  0  0  0
M  END
