227186
 OpenBabel03021519512D

 49 53  0  0  1  0  0  0  0  0999 V2000
    9.6192    6.7500    0.0000 C   0  0  0  0  0  0  0  0  0  0  0  0
    9.6192    5.2500    0.0000 C   0  0  0  0  0  0  0  0  0  0  0  0
   10.9182    4.5000    0.0000 C   0  0  0  0  0  0  0  0  0  0  0  0
   12.2173    5.2500    0.0000 C   0  0  0  0  0  0  0  0  0  0  0  0
   12.2173    6.7500    0.0000 C   0  0  0  0  0  0  0  0  0  0  0  0
   10.9182    7.5000    0.0000 C   0  0  0  0  0  0  0  0  0  0  0  0
   13.5163    4.5000    0.0000 C   0  0  0  0  0  0  0  0  0  0  0  0
   14.8154    5.2500    0.0000 C   0  0  0  0  0  0  0  0  0  0  0  0
   14.8154    6.7500    0.0000 C   0  0  0  0  0  0  0  0  0  0  0  0
   13.5163    7.5000    0.0000 O   0  0  0  0  0  0  0  0  0  0  0  0
    8.3202    7.5000    0.0000 O   0  0  0  0  0  0  0  0  0  0  0  0
    5.7221    7.5000    0.0000 O   0  0  0  0  0  0  0  0  0  0  0  0
    4.4231    6.7500    0.0000 C   0  0  0  0  0  0  0  0  0  0  0  0
    4.4230    5.2500    0.0000 C   0  0  3  0  0  0  0  0  0  0  0  0
    5.7221    4.5000    0.0000 C   0  0  3  0  0  0  0  0  0  0  0  0
    7.0211    5.2500    0.0000 C   0  0  3  0  0  0  0  0  0  0  0  0
    7.0211    6.7500    0.0000 C   0  0  3  0  0  0  0  0  0  0  0  0
    5.7221    3.0000    0.0000 O   0  0  0  0  0  0  0  0  0  0  0  0
    4.3126    2.4870    0.0000 C   0  0  0  0  0  0  0  0  0  0  0  0
    3.1635    3.4511    0.0000 O   0  0  0  0  0  0  0  0  0  0  0  0
    3.1240    4.5000    0.0000 O   0  0  0  0  0  0  0  0  0  0  0  0
    1.8250    5.2500    0.0000 C   0  0  0  0  0  0  0  0  0  0  0  0
    4.0521    1.0098    0.0000 C   0  0  0  0  0  0  0  0  0  0  0  0
    4.3899   -1.3937    0.0000 C   0  0  0  0  0  0  0  0  0  0  0  0
    2.9127   -1.1332    0.0000 C   0  0  0  0  0  0  0  0  0  0  0  0
    2.7039    0.3522    0.0000 C   0  0  0  0  0  0  0  0  0  0  0  0
    5.0941   -0.0693    0.0000 N   0  0  0  0  0  0  0  0  0  0  0  0
    5.0474   -2.7419    0.0000 C   0  0  0  0  0  0  0  0  0  0  0  0
    3.1240    7.5000    0.0000 C   0  0  0  0  0  0  0  0  0  0  0  0
    5.7221    6.0000    0.0000 C   0  0  0  0  0  0  0  0  0  0  0  0
    8.3202    4.5000    0.0000 O   0  0  0  0  0  0  0  0  0  0  0  0
   10.9182    9.0000    0.0000 Cl  0  0  0  0  0  0  0  0  0  0  0  0
   16.1144    7.5000    0.0000 O   0  0  0  0  0  0  0  0  0  0  0  0
   17.4134    5.2500    0.0000 C   0  0  0  0  0  0  0  0  0  0  0  0
   17.4134    6.7500    0.0000 O   0  0  0  0  0  0  0  0  0  0  0  0
   16.1144    4.5000    0.0000 N   0  0  0  0  0  0  0  0  0  0  0  0
   18.7125    4.5000    0.0000 C   0  0  0  0  0  0  0  0  0  0  0  0
   18.7125    3.0000    0.0000 C   0  0  0  0  0  0  0  0  0  0  0  0
   20.0115    2.2500    0.0000 C   0  0  0  0  0  0  0  0  0  0  0  0
   21.3106    3.0000    0.0000 C   0  0  0  0  0  0  0  0  0  0  0  0
   21.3106    4.5000    0.0000 C   0  0  0  0  0  0  0  0  0  0  0  0
   20.0115    5.2500    0.0000 C   0  0  0  0  0  0  0  0  0  0  0  0
   13.5163    3.0000    0.0000 O   0  0  0  0  0  0  0  0  0  0  0  0
   22.6096    2.2500    0.0000 O   0  0  0  0  0  0  0  0  0  0  0  0
   22.6096    5.2500    0.0000 C   0  0  0  0  0  0  0  0  0  0  0  0
   23.9086    4.5000    0.0000 C   0  0  0  0  0  0  0  0  0  0  0  0
   25.2077    5.2500    0.0000 C   0  0  0  0  0  0  0  0  0  0  0  0
   26.5067    4.5000    0.0000 C   0  0  0  0  0  0  0  0  0  0  0  0
   25.2077    6.7500    0.0000 C   0  0  0  0  0  0  0  0  0  0  0  0
  1  2  2  0  0  0  0
  1  6  1  0  0  0  0
  1 11  1  0  0  0  0
  2  3  1  0  0  0  0
  3  4  2  0  0  0  0
  4  5  1  0  0  0  0
  4  7  1  0  0  0  0
  5  6  2  0  0  0  0
  5 10  1  0  0  0  0
  6 32  1  0  0  0  0
  7  8  2  0  0  0  0
  7 43  1  0  0  0  0
  8  9  1  0  0  0  0
  8 36  1  0  0  0  0
  9 10  1  0  0  0  0
  9 33  2  0  0  0  0
 11 17  1  0  0  0  0
 12 13  1  0  0  0  0
 12 17  1  0  0  0  0
 13 14  1  0  0  0  0
 13 29  1  0  0  0  0
 13 30  1  0  0  0  0
 14 15  1  0  0  0  0
 14 21  1  0  0  0  0
 15 16  1  0  0  0  0
 15 18  1  0  0  0  0
 16 17  1  0  0  0  0
 16 31  1  0  0  0  0
 18 19  1  0  0  0  0
 19 20  2  0  0  0  0
 19 23  1  0  0  0  0
 21 22  1  0  0  0  0
 23 26  2  0  0  0  0
 23 27  1  0  0  0  0
 24 25  2  0  0  0  0
 24 27  1  0  0  0  0
 24 28  1  0  0  0  0
 25 26  1  0  0  0  0
 34 35  2  0  0  0  0
 34 36  1  0  0  0  0
 34 37  1  0  0  0  0
 37 38  2  0  0  0  0
 37 42  1  0  0  0  0
 38 39  1  0  0  0  0
 39 40  2  0  0  0  0
 40 41  1  0  0  0  0
 40 44  1  0  0  0  0
 41 42  2  0  0  0  0
 41 45  1  0  0  0  0
 45 46  1  0  0  0  0
 46 47  2  0  0  0  0
 47 48  1  0  0  0  0
 47 49  1  0  0  0  0
M  END
