319994
 OpenBabel03021519512D

 27 29  0  0  0  0  0  0  0  0999 V2000
   -5.5245    4.9216    0.0000 C   0  0  0  0  0  0  0  0  0  0  0  0
   -4.7745    6.2207    0.0000 C   0  0  0  0  0  0  0  0  0  0  0  0
   -4.7745    3.6226    0.0000 N   0  0  0  0  0  0  0  0  0  0  0  0
   -3.2745    6.2207    0.0000 C   0  0  0  0  0  0  0  0  0  0  0  0
   -3.2745    3.6226    0.0000 C   0  0  0  0  0  0  0  0  0  0  0  0
   -2.5245    4.9216    0.0000 C   0  0  0  0  0  0  0  0  0  0  0  0
   -1.0245    7.5197    0.0000 O   0  0  0  0  0  0  0  0  0  0  0  0
   -0.2745    6.2207    0.0000 C   0  0  0  0  0  0  0  0  0  0  0  0
    1.9755    7.5197    0.0000 C   0  0  0  0  0  0  0  0  0  0  0  0
    1.2255    8.8188    0.0000 C   0  0  0  0  0  0  0  0  0  0  0  0
    3.4755    7.5197    0.0000 C   0  0  0  0  0  0  0  0  0  0  0  0
    1.9755   10.1178    0.0000 C   0  0  0  0  0  0  0  0  0  0  0  0
    4.2255    8.8188    0.0000 C   0  0  0  0  0  0  0  0  0  0  0  0
    3.4755   10.1178    0.0000 C   0  0  0  0  0  0  0  0  0  0  0  0
    1.9755   12.7159    0.0000 C   0  0  0  0  0  0  0  0  0  0  0  0
    1.2255   14.0149    0.0000 O   0  0  0  0  0  0  0  0  0  0  0  0
    4.2255   14.0149    0.0000 C   0  0  0  0  0  0  0  0  0  0  0  0
    3.4755   15.3139    0.0000 C   0  0  0  0  0  0  0  0  0  0  0  0
    5.7255   14.0149    0.0000 C   0  0  0  0  0  0  0  0  0  0  0  0
    6.4755   15.3139    0.0000 N   0  0  0  0  0  0  0  0  0  0  0  0
    4.2255   16.6130    0.0000 C   0  0  0  0  0  0  0  0  0  0  0  0
    5.7255   16.6130    0.0000 C   0  0  0  0  0  0  0  0  0  0  0  0
   -1.0245    4.9216    0.0000 N   0  0  0  0  0  0  0  0  0  0  0  0
    1.2255    6.2207    0.0000 N   0  0  0  0  0  0  0  0  0  0  0  0
    1.2255   11.4168    0.0000 N   0  0  0  0  0  0  0  0  0  0  0  0
    4.2255   11.4168    0.0000 C   0  0  0  0  0  0  0  0  0  0  0  0
    3.4755   12.7159    0.0000 N   0  0  0  0  0  0  0  0  0  0  0  0
  1  2  2  0  0  0  0
  1  3  1  0  0  0  0
  2  4  1  0  0  0  0
  3  5  2  0  0  0  0
  4  6  2  0  0  0  0
  5  6  1  0  0  0  0
  6 23  1  0  0  0  0
  7  8  2  0  0  0  0
  8 23  1  0  0  0  0
  8 24  1  0  0  0  0
  9 10  2  0  0  0  0
  9 11  1  0  0  0  0
  9 24  1  0  0  0  0
 10 12  1  0  0  0  0
 11 13  2  0  0  0  0
 12 14  2  0  0  0  0
 12 25  1  0  0  0  0
 13 14  1  0  0  0  0
 14 26  1  0  0  0  0
 15 16  2  0  0  0  0
 15 25  1  0  0  0  0
 15 27  1  0  0  0  0
 17 18  2  0  0  0  0
 17 19  1  0  0  0  0
 17 27  1  0  0  0  0
 18 21  1  0  0  0  0
 19 20  2  0  0  0  0
 20 22  1  0  0  0  0
 21 22  2  0  0  0  0
M  END
