55957
 OpenBabel03021519512D

 16 15  0  0  0  0  0  0  0  0999 V2000
    5.5245   -2.3235    0.0000 H   0  0  0  0  0  0  0  0  0  0  0  0
    6.2745   -1.0245    0.0000 C   0  0  0  0  0  0  0  0  0  0  0  0
    7.7745   -1.0245    0.0000 C   0  0  0  0  0  0  0  0  0  0  0  0
    8.5245   -2.3235    0.0000 H   0  0  0  0  0  0  0  0  0  0  0  0
   10.0245    0.2745    0.0000 O   0  0  0  0  0  0  0  0  0  0  0  0
    1.7745    1.5735    0.0000 N   0  0  0  0  0  0  0  0  0  0  0  0
    3.2745    1.5736    0.0000 C   0  0  0  0  0  0  0  0  0  0  0  0
    4.0245    2.8726    0.0000 O   0  0  0  0  0  0  0  0  0  0  0  0
    4.0245    0.2745    0.0000 N   0  0  0  0  0  0  0  0  0  0  0  0
    5.5245    0.2745    0.0000 C   0  0  0  0  0  0  0  0  0  0  0  0
    6.2745    1.5736    0.0000 O   0  0  0  0  0  0  0  0  0  0  0  0
    8.5245    0.2745    0.0000 C   0  0  0  0  0  0  0  0  0  0  0  0
    7.7745    1.5736    0.0000 O   0  0  0  0  0  0  0  0  0  0  0  0
   10.7745   -1.0245    0.0000 C   0  0  0  0  0  0  0  0  0  0  0  0
   10.0245   -2.3235    0.0000 C   0  0  0  0  0  0  0  0  0  0  0  0
   10.7745   -3.6226    0.0000 C   0  0  0  0  0  0  0  0  0  0  0  0
  1  2  1  0  0  0  0
  2  3  2  0  0  0  0
  2 10  1  0  0  0  0
  3  4  1  0  0  0  0
  3 12  1  0  0  0  0
  5 12  1  0  0  0  0
  5 14  1  0  0  0  0
  6  7  1  0  0  0  0
  7  8  2  0  0  0  0
  7  9  1  0  0  0  0
  9 10  1  0  0  0  0
 10 11  2  0  0  0  0
 12 13  2  0  0  0  0
 14 15  1  0  0  0  0
 15 16  2  0  0  0  0
M  END
