16162
 OpenBabel03021519512D

 12 12  0  0  0  0  0  0  0  0999 V2000
   -6.1135   -3.0000    0.0000 C   0  0  0  0  0  0  0  0  0  0  0  0
   -4.8145   -3.7500    0.0000 C   0  0  0  0  0  0  0  0  0  0  0  0
   -7.4126   -3.7500    0.0000 C   0  0  0  0  0  0  0  0  0  0  0  0
   -4.8145   -5.2500    0.0000 C   0  0  0  0  0  0  0  0  0  0  0  0
   -7.4126   -5.2500    0.0000 C   0  0  0  0  0  0  0  0  0  0  0  0
   -6.1135   -6.0000    0.0000 C   0  0  0  0  0  0  0  0  0  0  0  0
   -6.1135   -1.5000    0.0000 C   0  0  0  0  0  0  0  0  0  0  0  0
   -7.4126   -0.7500    0.0000 O   0  0  0  0  0  0  0  0  0  0  0  0
   -4.8145   -0.7500    0.0000 O   0  0  0  0  0  0  0  0  0  0  0  0
   -3.5155   -3.0000    0.0000 N   0  0  0  0  0  0  0  0  0  0  0  0
   -2.2164   -3.7500    0.0000 C   0  0  0  0  0  0  0  0  0  0  0  0
   -0.9174   -3.0000    0.0000 C   0  0  0  0  0  0  0  0  0  0  0  0
  1  2  2  0  0  0  0
  1  3  1  0  0  0  0
  1  7  1  0  0  0  0
  2  4  1  0  0  0  0
  2 10  1  0  0  0  0
  3  5  2  0  0  0  0
  4  6  2  0  0  0  0
  5  6  1  0  0  0  0
  7  8  2  0  0  0  0
  7  9  1  0  0  0  0
 10 11  1  0  0  0  0
 11 12  1  0  0  0  0
M  END
