34769
 OpenBabel03021519512D

 15 15  0  0  0  0  0  0  0  0999 V2000
   -9.2694   -0.4586    0.0000 Cl  0  0  0  0  0  0  0  0  0  0  0  0
   -8.8513    2.1815    0.0000 N   0  0  0  0  0  0  0  0  0  0  0  0
   -6.8877    0.7549    0.0000 N   0  0  0  0  0  0  0  0  0  0  0  0
   -6.0061   -0.4586    0.0000 H   0  0  0  0  0  0  0  0  0  0  0  0
   -7.6377    3.0632    0.0000 C   0  0  0  0  0  0  0  0  0  0  0  0
   -6.4242    2.1815    0.0000 C   0  0  0  0  0  0  0  0  0  0  0  0
   -8.3877    0.7549    0.0000 C   0  0  0  0  0  0  0  0  0  0  0  0
   -7.6378    4.5632    0.0000 C   0  0  0  0  0  0  0  0  0  0  0  0
   -8.9368    5.3132    0.0000 O   0  0  0  0  0  0  0  0  0  0  0  0
   -6.3387    5.3132    0.0000 N   0  0  0  0  0  0  0  0  0  0  0  0
   -4.9976    2.6450    0.0000 C   0  0  0  0  0  0  0  0  0  0  0  0
   -4.0741    1.4630    0.0000 C   0  0  0  0  0  0  0  0  0  0  0  0
   -4.6361    0.0722    0.0000 O   0  0  0  0  0  0  0  0  0  0  0  0
   -2.5887    1.6718    0.0000 O   0  0  0  0  0  0  0  0  0  0  0  0
   -2.0268    3.0626    0.0000 C   0  0  0  0  0  0  0  0  0  0  0  0
  1  7  1  0  0  0  0
  2  7  2  0  0  0  0
  2  5  1  0  0  0  0
  3  6  1  0  0  0  0
  3  7  1  0  0  0  0
  3  4  1  0  0  0  0
  5  6  2  0  0  0  0
  5  8  1  0  0  0  0
  6 11  1  0  0  0  0
  8  9  2  0  0  0  0
  8 10  1  0  0  0  0
 11 12  1  0  0  0  0
 12 13  2  0  0  0  0
 12 14  1  0  0  0  0
 14 15  1  0  0  0  0
M  END
