319990
 OpenBabel03021519512D

 33 37  0  0  0  0  0  0  0  0999 V2000
   -8.7055  -16.5783    0.0000 C   0  0  0  0  0  0  0  0  0  0  0  0
   -8.7055  -18.0783    0.0000 C   0  0  0  0  0  0  0  0  0  0  0  0
   -7.4065  -15.8283    0.0000 C   0  0  0  0  0  0  0  0  0  0  0  0
   -7.4065  -18.8283    0.0000 C   0  0  0  0  0  0  0  0  0  0  0  0
   -6.1074  -16.5783    0.0000 C   0  0  0  0  0  0  0  0  0  0  0  0
   -6.1074  -18.0783    0.0000 C   0  0  0  0  0  0  0  0  0  0  0  0
   -4.6808  -16.1148    0.0000 N   0  0  0  0  0  0  0  0  0  0  0  0
   -4.6808  -18.5419    0.0000 S   0  0  0  0  0  0  0  0  0  0  0  0
   -3.7992  -17.3283    0.0000 C   0  0  0  0  0  0  0  0  0  0  0  0
   -2.2992  -14.7303    0.0000 O   0  0  0  0  0  0  0  0  0  0  0  0
   -1.5492  -16.0293    0.0000 C   0  0  0  0  0  0  0  0  0  0  0  0
    0.7008  -14.7303    0.0000 C   0  0  0  0  0  0  0  0  0  0  0  0
   -0.0492  -13.4312    0.0000 C   0  0  0  0  0  0  0  0  0  0  0  0
    2.2008  -14.7302    0.0000 C   0  0  0  0  0  0  0  0  0  0  0  0
    0.7008  -12.1322    0.0000 C   0  0  0  0  0  0  0  0  0  0  0  0
    2.9508  -13.4312    0.0000 C   0  0  0  0  0  0  0  0  0  0  0  0
    2.2008  -12.1322    0.0000 C   0  0  0  0  0  0  0  0  0  0  0  0
    0.7008   -9.5341    0.0000 C   0  0  0  0  0  0  0  0  0  0  0  0
   -0.0492   -8.2351    0.0000 O   0  0  0  0  0  0  0  0  0  0  0  0
    2.9508   -8.2351    0.0000 C   0  0  0  0  0  0  0  0  0  0  0  0
    2.3407   -6.8647    0.0000 N   0  0  0  0  0  0  0  0  0  0  0  0
    4.4426   -8.0783    0.0000 S   0  0  0  0  0  0  0  0  0  0  0  0
    3.4554   -5.8610    0.0000 C   0  0  0  0  0  0  0  0  0  0  0  0
    4.7545   -6.6110    0.0000 C   0  0  0  0  0  0  0  0  0  0  0  0
    3.4554   -4.3610    0.0000 C   0  0  0  0  0  0  0  0  0  0  0  0
    6.0535   -5.8610    0.0000 C   0  0  0  0  0  0  0  0  0  0  0  0
    6.0535   -4.3610    0.0000 C   0  0  0  0  0  0  0  0  0  0  0  0
    4.7545   -3.6110    0.0000 C   0  0  0  0  0  0  0  0  0  0  0  0
   -2.2992  -17.3283    0.0000 N   0  0  0  0  0  0  0  0  0  0  0  0
   -0.0492  -16.0293    0.0000 N   0  0  0  0  0  0  0  0  0  0  0  0
   -0.0492  -10.8331    0.0000 N   0  0  0  0  0  0  0  0  0  0  0  0
    2.9508  -10.8331    0.0000 C   0  0  0  0  0  0  0  0  0  0  0  0
    2.2008   -9.5341    0.0000 N   0  0  0  0  0  0  0  0  0  0  0  0
  1  3  1  0  0  0  0
  1  2  2  0  0  0  0
  2  4  1  0  0  0  0
  3  5  2  0  0  0  0
  4  6  2  0  0  0  0
  5  7  1  0  0  0  0
  5  6  1  0  0  0  0
  6  8  1  0  0  0  0
  7  9  2  0  0  0  0
  8  9  1  0  0  0  0
  9 29  1  0  0  0  0
 10 11  2  0  0  0  0
 11 29  1  0  0  0  0
 11 30  1  0  0  0  0
 12 13  2  0  0  0  0
 12 14  1  0  0  0  0
 12 30  1  0  0  0  0
 13 15  1  0  0  0  0
 14 16  2  0  0  0  0
 15 17  2  0  0  0  0
 15 31  1  0  0  0  0
 16 17  1  0  0  0  0
 17 32  1  0  0  0  0
 18 19  2  0  0  0  0
 18 31  1  0  0  0  0
 18 33  1  0  0  0  0
 20 21  2  0  0  0  0
 20 22  1  0  0  0  0
 20 33  1  0  0  0  0
 21 23  1  0  0  0  0
 22 24  1  0  0  0  0
 23 25  2  0  0  0  0
 23 24  1  0  0  0  0
 24 26  2  0  0  0  0
 25 28  1  0  0  0  0
 26 27  1  0  0  0  0
 27 28  2  0  0  0  0
M  END
