303612
 OpenBabel03021519512D

 23 27  0  0  1  0  0  0  0  0999 V2000
    2.3236    2.5245    0.0000 C   0  0  0  0  0  0  0  0  0  0  0  0
    2.3236    1.0245    0.0000 C   0  0  0  0  0  0  0  0  0  0  0  0
    3.6226    3.2745    0.0000 C   0  0  0  0  0  0  0  0  0  0  0  0
    3.6226    0.2745    0.0000 C   0  0  0  0  0  0  0  0  0  0  0  0
    4.9216    2.5245    0.0000 C   0  0  0  0  0  0  0  0  0  0  0  0
    4.9216    1.0245    0.0000 C   0  0  0  0  0  0  0  0  0  0  0  0
    6.2207    3.2745    0.0000 S   0  0  0  0  0  0  0  0  0  0  0  0
    6.2207    0.2745    0.0000 N   0  0  0  0  0  0  0  0  0  0  0  0
    7.5197    2.5245    0.0000 C   0  0  0  0  0  0  0  0  0  0  0  0
    7.5197    1.0245    0.0000 C   0  0  0  0  0  0  0  0  0  0  0  0
    7.5197   -1.9755    0.0000 C   0  0  3  0  0  0  0  0  0  0  0  0
    7.5197   -3.4755    0.0000 C   0  0  0  0  0  0  0  0  0  0  0  0
    8.8188    0.2745    0.0000 C   0  0  0  0  0  0  0  0  0  0  0  0
    8.8187    3.2745    0.0000 C   0  0  0  0  0  0  0  0  0  0  0  0
   10.1178    1.0245    0.0000 C   0  0  0  0  0  0  0  0  0  0  0  0
   10.1178    2.5245    0.0000 C   0  0  0  0  0  0  0  0  0  0  0  0
    8.2697   -2.1764    0.0000 C   0  0  0  0  0  0  0  0  0  0  0  0
    8.2697   -3.2745    0.0000 C   0  0  0  0  0  0  0  0  0  0  0  0
    8.8188   -1.2255    0.0000 C   0  0  3  0  0  0  0  0  0  0  0  0
    8.8188   -4.2255    0.0000 N   0  0  3  0  0  0  0  0  0  0  0  0
   10.1178   -1.9755    0.0000 C   0  0  0  0  0  0  0  0  0  0  0  0
   10.1178   -3.4755    0.0000 C   0  0  0  0  0  0  0  0  0  0  0  0
    6.2207   -1.2255    0.0000 C   0  0  0  0  0  0  0  0  0  0  0  0
  1  3  1  0  0  0  0
  1  2  2  0  0  0  0
  2  4  1  0  0  0  0
  3  5  2  0  0  0  0
  4  6  2  0  0  0  0
  5  7  1  0  0  0  0
  5  6  1  0  0  0  0
  6  8  1  0  0  0  0
  7  9  1  0  0  0  0
  8 10  1  0  0  0  0
  8 23  1  0  0  0  0
  9 14  1  0  0  0  0
  9 10  2  0  0  0  0
 10 13  1  0  0  0  0
 11 19  1  0  0  0  0
 11 12  1  0  0  0  0
 11 23  1  0  0  0  0
 12 20  1  0  0  0  0
 13 15  2  0  0  0  0
 14 16  2  0  0  0  0
 15 16  1  0  0  0  0
 17 19  1  0  0  0  0
 17 18  1  0  0  0  0
 18 20  1  0  0  0  0
 19 21  1  0  0  0  0
 20 22  1  0  0  0  0
 21 22  1  0  0  0  0
M  END
