107522
 OpenBabel03021519512D

 33 34  0  0  0  0  0  0  0  0999 V2000
   -8.8176   14.1357    0.0000 O   0  0  0  0  0  0  0  0  0  0  0  0
   -7.7790   10.4085    0.0000 N   0  0  0  0  0  0  0  0  0  0  0  0
   -9.1886    3.8954    0.0000 O   0  0  0  0  0  0  0  0  0  0  0  0
   -6.5905    3.8954    0.0000 C   0  0  0  0  0  0  0  0  0  0  0  0
   -5.2915    3.1454    0.0000 C   0  0  0  0  0  0  0  0  0  0  0  0
   -7.8895    3.1454    0.0000 C   0  0  0  0  0  0  0  0  0  0  0  0
   -5.2915    1.6454    0.0000 C   0  0  0  0  0  0  0  0  0  0  0  0
   -7.8895    1.6454    0.0000 C   0  0  0  0  0  0  0  0  0  0  0  0
   -6.5905    0.8954    0.0000 C   0  0  0  0  0  0  0  0  0  0  0  0
   -7.8895    6.1454    0.0000 C   0  0  0  0  0  0  0  0  0  0  0  0
   -9.1886    5.3954    0.0000 C   0  0  0  0  0  0  0  0  0  0  0  0
   -7.8895    7.6454    0.0000 C   0  0  0  0  0  0  0  0  0  0  0  0
  -10.4876    6.1454    0.0000 C   0  0  0  0  0  0  0  0  0  0  0  0
   -9.1886    8.3954    0.0000 C   0  0  0  0  0  0  0  0  0  0  0  0
  -10.4876    7.6454    0.0000 C   0  0  0  0  0  0  0  0  0  0  0  0
   -5.8486   18.3759    0.0000 C   0  0  0  0  0  0  0  0  0  0  0  0
   -6.9976   19.3401    0.0000 O   0  0  0  0  0  0  0  0  0  0  0  0
   -4.4390   18.8890    0.0000 O   0  0  0  0  0  0  0  0  0  0  0  0
   -6.1090   16.8987    0.0000 C   0  0  0  0  0  0  0  0  0  0  0  0
   -7.5186   16.3857    0.0000 C   0  0  0  0  0  0  0  0  0  0  0  0
   -7.5186   14.8857    0.0000 C   0  0  0  0  0  0  0  0  0  0  0  0
   -6.2195   14.1357    0.0000 O   0  0  0  0  0  0  0  0  0  0  0  0
   -8.8176   12.6357    0.0000 C   0  0  0  0  0  0  0  0  0  0  0  0
   -5.2204    9.9573    0.0000 C   0  0  0  0  0  0  0  0  0  0  0  0
   -4.9600   11.4345    0.0000 Cl  0  0  0  0  0  0  0  0  0  0  0  0
   -4.0714    8.9932    0.0000 Cl  0  0  0  0  0  0  0  0  0  0  0  0
   -7.5186   11.8857    0.0000 C   0  0  0  0  0  0  0  0  0  0  0  0
   -6.6300    9.4443    0.0000 C   0  0  0  0  0  0  0  0  0  0  0  0
   -6.8904    7.9671    0.0000 O   0  0  0  0  0  0  0  0  0  0  0  0
   -9.1886    9.8954    0.0000 C   0  0  0  0  0  0  0  0  0  0  0  0
   -3.9924    0.8954    0.0000 N   0  3  0  0  0  0  0  0  0  0  0  0
   -2.6934    1.6454    0.0000 O   0  5  0  0  0  0  0  0  0  0  0  0
   -3.9924   -0.6046    0.0000 O   0  0  0  0  0  0  0  0  0  0  0  0
  1 21  1  0  0  0  0
  1 23  1  0  0  0  0
  2 27  1  0  0  0  0
  2 28  1  0  0  0  0
  2 30  1  0  0  0  0
  3  6  1  0  0  0  0
  3 11  1  0  0  0  0
  4  5  2  0  0  0  0
  4  6  1  0  0  0  0
  5  7  1  0  0  0  0
  6  8  2  0  0  0  0
  7  9  2  0  0  0  0
  7 31  1  0  0  0  0
  8  9  1  0  0  0  0
 10 11  2  0  0  0  0
 10 12  1  0  0  0  0
 11 13  1  0  0  0  0
 12 14  2  0  0  0  0
 13 15  2  0  0  0  0
 14 15  1  0  0  0  0
 14 30  1  0  0  0  0
 16 17  2  0  0  0  0
 16 18  1  0  0  0  0
 16 19  1  0  0  0  0
 19 20  1  0  0  0  0
 20 21  1  0  0  0  0
 21 22  2  0  0  0  0
 23 27  1  0  0  0  0
 24 25  1  0  0  0  0
 24 26  1  0  0  0  0
 24 28  1  0  0  0  0
 28 29  2  0  0  0  0
 31 32  1  0  0  0  0
 31 33  2  0  0  0  0
M  CHG  2  31   1  32  -1
M  END
