125727
 OpenBabel03021519512D

 17 17  0  0  0  0  0  0  0  0999 V2000
    5.3299    2.9850    0.0000 O   0  0  0  0  0  0  0  0  0  0  0  0
    5.3299    0.3869    0.0000 C   0  0  0  0  0  0  0  0  0  0  0  0
    5.3299   -2.2112    0.0000 O   0  0  0  0  0  0  0  0  0  0  0  0
    6.0799   -0.9122    0.0000 C   0  0  0  0  0  0  0  0  0  0  0  0
    6.0799    1.6859    0.0000 C   0  0  0  0  0  0  0  0  0  0  0  0
    7.5799   -0.9122    0.0000 N   0  0  0  0  0  0  0  0  0  0  0  0
    7.5799    1.6859    0.0000 N   0  0  0  0  0  0  0  0  0  0  0  0
    8.3299    2.9850    0.0000 H   0  0  0  0  0  0  0  0  0  0  0  0
    8.3299    0.3869    0.0000 C   0  0  0  0  0  0  0  0  0  0  0  0
    8.3299   -2.2112    0.0000 H   0  0  0  0  0  0  0  0  0  0  0  0
    9.8299    0.3869    0.0000 S   0  0  0  0  0  0  0  0  0  0  0  0
    0.2837    0.6010    0.0000 C   0  0  0  0  0  0  0  0  0  0  0  0
    1.5828    1.3510    0.0000 C   0  0  0  0  0  0  0  0  0  0  0  0
    2.8818    0.6011    0.0000 C   0  0  0  0  0  0  0  0  0  0  0  0
    4.1808    1.3511    0.0000 C   0  0  0  0  0  0  0  0  0  0  0  0
    4.1809   -0.5773    0.0000 C   0  0  0  0  0  0  0  0  0  0  0  0
    4.4413   -2.0545    0.0000 C   0  0  0  0  0  0  0  0  0  0  0  0
  1  5  2  0  0  0  0
  2  5  1  0  0  0  0
  2  4  1  0  0  0  0
  2 15  1  0  0  0  0
  2 16  1  0  0  0  0
  3  4  2  0  0  0  0
  4  6  1  0  0  0  0
  5  7  1  0  0  0  0
  6  9  1  0  0  0  0
  6 10  1  0  0  0  0
  7  8  1  0  0  0  0
  7  9  1  0  0  0  0
  9 11  2  0  0  0  0
 12 13  1  0  0  0  0
 13 14  2  0  0  0  0
 14 15  1  0  0  0  0
 16 17  1  0  0  0  0
M  END
