144958
 OpenBabel03021519512D

 18 19  0  0  0  0  0  0  0  0999 V2000
   -3.6226   -0.2745    0.0000 N   0  0  0  0  0  0  0  0  0  0  0  0
   -6.2207   -0.2745    0.0000 C   0  0  0  0  0  0  0  0  0  0  0  0
   -4.9216   -1.0245    0.0000 C   0  0  0  0  0  0  0  0  0  0  0  0
   -7.5197   -1.0245    0.0000 C   0  0  0  0  0  0  0  0  0  0  0  0
   -4.9216   -2.5245    0.0000 C   0  0  0  0  0  0  0  0  0  0  0  0
   -7.5197   -2.5245    0.0000 C   0  0  0  0  0  0  0  0  0  0  0  0
   -3.6226   -3.2745    0.0000 C   0  0  0  0  0  0  0  0  0  0  0  0
   -2.3236   -1.0245    0.0000 C   0  0  0  0  0  0  0  0  0  0  0  0
   -2.3236   -2.5245    0.0000 C   0  0  0  0  0  0  0  0  0  0  0  0
   -6.2207   -3.2745    0.0000 C   0  0  0  0  0  0  0  0  0  0  0  0
  -11.4168    1.2255    0.0000 C   0  0  0  0  0  0  0  0  0  0  0  0
  -12.7159    1.9755    0.0000 O   0  0  0  0  0  0  0  0  0  0  0  0
  -11.4168   -0.2745    0.0000 O   0  0  0  0  0  0  0  0  0  0  0  0
  -10.1178    1.9755    0.0000 C   0  0  0  0  0  0  0  0  0  0  0  0
   -8.8188    1.2255    0.0000 C   0  0  0  0  0  0  0  0  0  0  0  0
   -7.5197    1.9755    0.0000 C   0  0  0  0  0  0  0  0  0  0  0  0
   -7.5197    3.4755    0.0000 O   0  0  0  0  0  0  0  0  0  0  0  0
   -6.2207    1.2255    0.0000 N   0  0  0  0  0  0  0  0  0  0  0  0
  1  8  2  0  0  0  0
  1  3  1  0  0  0  0
  2  4  2  0  0  0  0
  2  3  1  0  0  0  0
  2 18  1  0  0  0  0
  3  5  2  0  0  0  0
  4  6  1  0  0  0  0
  5  7  1  0  0  0  0
  5 10  1  0  0  0  0
  6 10  2  0  0  0  0
  7  9  2  0  0  0  0
  8  9  1  0  0  0  0
 11 12  2  0  0  0  0
 11 13  1  0  0  0  0
 11 14  1  0  0  0  0
 14 15  2  0  0  0  0
 15 16  1  0  0  0  0
 16 17  2  0  0  0  0
 16 18  1  0  0  0  0
M  END
