107701
 OpenBabel03021519512D

 30 33  0  0  1  0  0  0  0  0999 V2000
  -10.2629    2.7758    0.0000 N   0  0  0  0  0  0  0  0  0  0  0  0
  -10.2629    1.2758    0.0000 N   0  0  0  0  0  0  0  0  0  0  0  0
   -8.9639    5.0258    0.0000 O   0  0  0  0  0  0  0  0  0  0  0  0
   -8.9638   -0.9742    0.0000 S   0  0  0  0  0  0  0  0  0  0  0  0
   -7.6648    2.7758    0.0000 N   0  0  0  0  0  0  0  0  0  0  0  0
   -6.3658    0.5258    0.0000 O   0  0  0  0  0  0  0  0  0  0  0  0
   -6.3658    8.0258    0.0000 C   0  0  0  0  0  0  0  0  0  0  0  0
   -7.6648    7.2758    0.0000 C   0  0  0  0  0  0  0  0  0  0  0  0
   -5.0667    7.2758    0.0000 C   0  0  0  0  0  0  0  0  0  0  0  0
   -5.0667    5.7758    0.0000 C   0  0  0  0  0  0  0  0  0  0  0  0
   -7.6648    5.7758    0.0000 C   0  0  0  0  0  0  0  0  0  0  0  0
   -6.3658    5.0258    0.0000 C   0  0  0  0  0  0  0  0  0  0  0  0
   -8.9638    3.5258    0.0000 C   0  0  0  0  0  0  0  0  0  0  0  0
   -3.7677    3.5258    0.0000 C   0  0  0  0  0  0  0  0  0  0  0  0
   -2.4687    2.7758    0.0000 C   0  0  0  0  0  0  0  0  0  0  0  0
   -5.0667    2.7758    0.0000 C   0  0  0  0  0  0  0  0  0  0  0  0
   -2.4687    1.2758    0.0000 C   0  0  0  0  0  0  0  0  0  0  0  0
   -5.0667    1.2758    0.0000 C   0  0  0  0  0  0  0  0  0  0  0  0
   -3.7677    0.5258    0.0000 C   0  0  0  0  0  0  0  0  0  0  0  0
   -7.6648    1.2758    0.0000 C   0  0  0  0  0  0  0  0  0  0  0  0
   -8.9638    0.5258    0.0000 C   0  0  0  0  0  0  0  0  0  0  0  0
  -11.5619   -0.9742    0.0000 C   0  0  0  0  0  0  0  0  0  0  0  0
  -12.8610   -1.7242    0.0000 C   0  0  0  0  0  0  0  0  0  0  0  0
  -11.5619    0.5258    0.0000 C   0  0  0  0  0  0  0  0  0  0  0  0
  -12.8610    1.2758    0.0000 C   0  0  0  0  0  0  0  0  0  0  0  0
  -14.1600   -0.9742    0.0000 C   0  0  0  0  0  0  0  0  0  0  0  0
  -14.1600    0.5258    0.0000 C   0  0  0  0  0  0  0  0  0  0  0  0
  -11.5619    3.5258    0.0000 C   0  0  0  0  0  0  0  0  0  0  0  0
  -10.2629   -1.7242    0.0000 C   0  0  0  0  0  0  0  0  0  0  0  0
   -6.3658    3.5258    0.0000 C   0  0  3  0  0  0  0  0  0  0  0  0
  1  2  1  0  0  0  0
  1 13  1  0  0  0  0
  1 28  1  0  0  0  0
  2 21  2  0  0  0  0
  3 13  2  0  0  0  0
  4 21  1  0  0  0  0
  4 29  1  0  0  0  0
  5 13  1  0  0  0  0
  5 20  1  0  0  0  0
  5 30  1  0  0  0  0
  6 20  2  0  0  0  0
  7  9  2  0  0  0  0
  7  8  1  0  0  0  0
  8 11  2  0  0  0  0
  9 10  1  0  0  0  0
 10 12  2  0  0  0  0
 11 12  1  0  0  0  0
 12 30  1  0  0  0  0
 14 15  2  0  0  0  0
 14 16  1  0  0  0  0
 15 17  1  0  0  0  0
 16 18  2  0  0  0  0
 16 30  1  0  0  0  0
 17 19  2  0  0  0  0
 18 19  1  0  0  0  0
 20 21  1  0  0  0  0
 22 24  2  0  0  0  0
 22 23  1  0  0  0  0
 22 29  1  0  0  0  0
 23 26  2  0  0  0  0
 24 25  1  0  0  0  0
 25 27  2  0  0  0  0
 26 27  1  0  0  0  0
M  END
