98026
 OpenBabel03021519512D

 22 23  0  0  0  0  0  0  0  0999 V2000
   -3.3481   -7.5000    0.0000 O   0  0  0  0  0  0  0  0  0  0  0  0
    1.8481   -4.5000    0.0000 O   0  0  0  0  0  0  0  0  0  0  0  0
   -0.7500   -3.0000    0.0000 O   0  0  0  0  0  0  0  0  0  0  0  0
   -2.0490   -6.7500    0.0000 C   0  0  0  0  0  0  0  0  0  0  0  0
   -2.0490   -5.2500    0.0000 C   0  0  0  0  0  0  0  0  0  0  0  0
   -0.7500   -7.5000    0.0000 C   0  0  0  0  0  0  0  0  0  0  0  0
   -0.7500   -9.0000    0.0000 C   0  0  0  0  0  0  0  0  0  0  0  0
    0.5491   -9.7500    0.0000 C   0  0  0  0  0  0  0  0  0  0  0  0
   -0.7500   -4.5000    0.0000 C   0  0  0  0  0  0  0  0  0  0  0  0
    0.5491   -6.7500    0.0000 C   0  0  0  0  0  0  0  0  0  0  0  0
    1.8481   -9.0000    0.0000 C   0  0  0  0  0  0  0  0  0  0  0  0
    0.5490   -5.2500    0.0000 C   0  0  0  0  0  0  0  0  0  0  0  0
    1.8481   -7.5000    0.0000 C   0  0  0  0  0  0  0  0  0  0  0  0
   -3.3481   -4.5000    0.0000 C   0  0  0  0  0  0  0  0  0  0  0  0
    0.6595   -2.4870    0.0000 C   0  0  0  0  0  0  0  0  0  0  0  0
   -3.3481   -3.0000    0.0000 C   0  0  0  0  0  0  0  0  0  0  0  0
    0.9200   -1.0098    0.0000 C   0  0  0  0  0  0  0  0  0  0  0  0
   -0.2291   -0.0456    0.0000 O   0  0  0  0  0  0  0  0  0  0  0  0
    2.3295   -0.4967    0.0000 O   0  0  0  0  0  0  0  0  0  0  0  0
   -2.0490   -2.2500    0.0000 C   0  0  0  0  0  0  0  0  0  0  0  0
   -0.7500   -3.0000    0.0000 C   0  0  0  0  0  0  0  0  0  0  0  0
   -2.0490   -0.7500    0.0000 C   0  0  0  0  0  0  0  0  0  0  0  0
  1  4  2  0  0  0  0
  2 12  2  0  0  0  0
  3  9  1  0  0  0  0
  3 15  1  0  0  0  0
  4  5  1  0  0  0  0
  4  6  1  0  0  0  0
  5  9  2  0  0  0  0
  5 14  1  0  0  0  0
  6 10  2  0  0  0  0
  6  7  1  0  0  0  0
  7  8  2  0  0  0  0
  8 11  1  0  0  0  0
  9 12  1  0  0  0  0
 10 13  1  0  0  0  0
 10 12  1  0  0  0  0
 11 13  2  0  0  0  0
 14 16  1  0  0  0  0
 15 17  1  0  0  0  0
 16 20  2  0  0  0  0
 17 18  2  0  0  0  0
 17 19  1  0  0  0  0
 20 21  1  0  0  0  0
 20 22  1  0  0  0  0
M  END
