7218
 OpenBabel03021519512D

 24 26  0  0  0  0  0  0  0  0999 V2000
   -5.9462   -0.7500    0.0000 C   0  0  0  0  0  0  0  0  0  0  0  0
   -8.5442   -0.7500    0.0000 C   0  0  0  0  0  0  0  0  0  0  0  0
  -11.1423   -0.7500    0.0000 C   0  0  0  0  0  0  0  0  0  0  0  0
   -4.6471   -1.5000    0.0000 C   0  0  0  0  0  0  0  0  0  0  0  0
   -7.2452   -1.5000    0.0000 C   0  0  0  0  0  0  0  0  0  0  0  0
   -9.8433   -1.5000    0.0000 C   0  0  0  0  0  0  0  0  0  0  0  0
  -12.4413   -1.5000    0.0000 C   0  0  0  0  0  0  0  0  0  0  0  0
   -4.6471   -3.0000    0.0000 C   0  0  0  0  0  0  0  0  0  0  0  0
   -7.2452   -3.0000    0.0000 C   0  0  0  0  0  0  0  0  0  0  0  0
   -9.8433   -3.0000    0.0000 C   0  0  0  0  0  0  0  0  0  0  0  0
  -12.4413   -3.0000    0.0000 C   0  0  0  0  0  0  0  0  0  0  0  0
   -5.9461   -3.7500    0.0000 C   0  0  0  0  0  0  0  0  0  0  0  0
  -11.1423   -3.7500    0.0000 C   0  0  0  0  0  0  0  0  0  0  0  0
  -13.7404   -3.7500    0.0000 N   0  0  0  0  0  0  0  0  0  0  0  0
  -13.7404   -5.2500    0.0000 H   0  0  0  0  0  0  0  0  0  0  0  0
   -8.5442   -3.7500    0.0000 N   0  0  0  0  0  0  0  0  0  0  0  0
   -3.3481   -5.2500    0.0000 H   0  0  0  0  0  0  0  0  0  0  0  0
   -3.3481   -3.7500    0.0000 N   0  0  0  0  0  0  0  0  0  0  0  0
  -15.0394   -3.0000    0.0000 C   0  0  0  0  0  0  0  0  0  0  0  0
  -15.0394   -1.5000    0.0000 O   0  0  0  0  0  0  0  0  0  0  0  0
  -16.3385   -3.7500    0.0000 C   0  0  0  0  0  0  0  0  0  0  0  0
   -2.0490   -3.0000    0.0000 C   0  0  0  0  0  0  0  0  0  0  0  0
   -2.0490   -1.5000    0.0000 O   0  0  0  0  0  0  0  0  0  0  0  0
   -0.7500   -3.7500    0.0000 C   0  0  0  0  0  0  0  0  0  0  0  0
  1  4  2  0  0  0  0
  1  5  1  0  0  0  0
  2  5  2  0  0  0  0
  2  6  1  0  0  0  0
  3  7  2  0  0  0  0
  3  6  1  0  0  0  0
  4  8  1  0  0  0  0
  5  9  1  0  0  0  0
  6 10  2  0  0  0  0
  7 11  1  0  0  0  0
  8 12  2  0  0  0  0
  8 18  1  0  0  0  0
  9 16  2  0  0  0  0
  9 12  1  0  0  0  0
 10 16  1  0  0  0  0
 10 13  1  0  0  0  0
 11 13  2  0  0  0  0
 11 14  1  0  0  0  0
 14 15  1  0  0  0  0
 14 19  1  0  0  0  0
 17 18  1  0  0  0  0
 18 22  1  0  0  0  0
 19 20  2  0  0  0  0
 19 21  1  0  0  0  0
 22 23  2  0  0  0  0
 22 24  1  0  0  0  0
M  END
