343526
 OpenBabel03021519512D

 18 19  0  0  0  0  0  0  0  0999 V2000
    7.0245   -0.2745    0.0000 C   0  0  0  0  0  0  0  0  0  0  0  0
    5.5245   -0.2745    0.0000 C   0  0  0  0  0  0  0  0  0  0  0  0
    7.7745    1.0245    0.0000 C   0  0  0  0  0  0  0  0  0  0  0  0
    7.0245    2.3236    0.0000 C   0  0  0  0  0  0  0  0  0  0  0  0
    4.7745    1.0245    0.0000 C   0  0  0  0  0  0  0  0  0  0  0  0
    5.5245    2.3236    0.0000 C   0  0  0  0  0  0  0  0  0  0  0  0
    7.0163    5.0784    0.0000 S   0  0  0  0  0  0  0  0  0  0  0  0
    5.5245    4.9216    0.0000 C   0  0  0  0  0  0  0  0  0  0  0  0
    7.3282    6.5457    0.0000 C   0  0  0  0  0  0  0  0  0  0  0  0
    8.6985    7.1558    0.0000 S   0  0  0  0  0  0  0  0  0  0  0  0
    4.9144    6.2920    0.0000 C   0  0  0  0  0  0  0  0  0  0  0  0
    6.0291    7.2957    0.0000 N   0  0  0  0  0  0  0  0  0  0  0  0
    3.4472    6.6038    0.0000 O   0  0  0  0  0  0  0  0  0  0  0  0
    5.8723    8.7874    0.0000 H   0  0  0  0  0  0  0  0  0  0  0  0
    7.7745   -1.5736    0.0000 O   0  0  0  0  0  0  0  0  0  0  0  0
    4.7745   -1.5735    0.0000 C   0  0  0  0  0  0  0  0  0  0  0  0
    9.2745    1.0245    0.0000 C   0  0  0  0  0  0  0  0  0  0  0  0
    4.7745    3.6226    0.0000 C   0  0  0  0  0  0  0  0  0  0  0  0
  1  2  2  0  0  0  0
  1  3  1  0  0  0  0
  1 15  1  0  0  0  0
  2  5  1  0  0  0  0
  2 16  1  0  0  0  0
  3  4  2  0  0  0  0
  3 17  1  0  0  0  0
  4  6  1  0  0  0  0
  5  6  2  0  0  0  0
  6 18  1  0  0  0  0
  7  8  1  0  0  0  0
  7  9  1  0  0  0  0
  8 11  1  0  0  0  0
  8 18  2  0  0  0  0
  9 12  1  0  0  0  0
  9 10  2  0  0  0  0
 11 13  2  0  0  0  0
 11 12  1  0  0  0  0
 12 14  1  0  0  0  0
M  END
