17362
 OpenBabel03021519512D

 20 22  0  0  1  0  0  0  0  0999 V2000
   -8.4756    6.4845    0.0000 O   0  0  0  0  0  0  0  0  0  0  0  0
   -8.6155    3.8151    0.0000 O   0  0  0  0  0  0  0  0  0  0  0  0
   -5.2835    5.8060    0.0000 O   0  0  0  0  0  0  0  0  0  0  0  0
   -6.3982    4.8023    0.0000 C   0  0  0  0  0  0  0  0  0  0  0  0
   -7.8654    5.1141    0.0000 C   0  0  0  0  0  0  0  0  0  0  0  0
   -6.2414    3.3105    0.0000 C   0  0  3  0  0  0  0  0  0  0  0  0
   -4.9424    2.5605    0.0000 C   0  0  0  0  0  0  0  0  0  0  0  0
   -3.6434    3.3105    0.0000 C   0  0  0  0  0  0  0  0  0  0  0  0
   -2.3443    2.5605    0.0000 C   0  0  0  0  0  0  0  0  0  0  0  0
   -2.3443    1.0605    0.0000 C   0  0  0  0  0  0  0  0  0  0  0  0
   -4.9424    1.0605    0.0000 C   0  0  0  0  0  0  0  0  0  0  0  0
   -7.6118    2.7004    0.0000 C   0  0  3  0  0  0  0  0  0  0  0  0
   -3.6434    0.3105    0.0000 C   0  0  0  0  0  0  0  0  0  0  0  0
   -9.3502    0.7696    0.0000 C   0  0  0  0  0  0  0  0  0  0  0  0
   -9.6621   -0.6976    0.0000 C   0  0  0  0  0  0  0  0  0  0  0  0
  -10.4649    1.7733    0.0000 C   0  0  0  0  0  0  0  0  0  0  0  0
  -11.8915    1.3098    0.0000 C   0  0  0  0  0  0  0  0  0  0  0  0
  -11.0887   -1.1611    0.0000 C   0  0  0  0  0  0  0  0  0  0  0  0
  -12.2034   -0.1574    0.0000 C   0  0  0  0  0  0  0  0  0  0  0  0
   -7.9236    1.2332    0.0000 C   0  0  0  0  0  0  0  0  0  0  0  0
  1  5  2  0  0  0  0
  2  5  1  0  0  0  0
  2 12  1  0  0  0  0
  3  4  2  0  0  0  0
  4  5  1  0  0  0  0
  4  6  1  0  0  0  0
  6  7  1  0  0  0  0
  6 12  1  0  0  0  0
  7 11  2  0  0  0  0
  7  8  1  0  0  0  0
  8  9  2  0  0  0  0
  9 10  1  0  0  0  0
 10 13  2  0  0  0  0
 11 13  1  0  0  0  0
 12 20  1  0  0  0  0
 14 16  2  0  0  0  0
 14 15  1  0  0  0  0
 14 20  1  0  0  0  0
 15 18  2  0  0  0  0
 16 17  1  0  0  0  0
 17 19  2  0  0  0  0
 18 19  1  0  0  0  0
M  END
