79139
 OpenBabel03021519512D

 19 21  0  0  0  0  0  0  0  0999 V2000
   -1.2324    0.6346    0.0000 C   0  0  0  0  0  0  0  0  0  0  0  0
    0.0666    1.3846    0.0000 C   0  0  0  0  0  0  0  0  0  0  0  0
   -1.2324   -0.8654    0.0000 C   0  0  0  0  0  0  0  0  0  0  0  0
    1.3656    0.6346    0.0000 C   0  0  0  0  0  0  0  0  0  0  0  0
    0.0666   -1.6154    0.0000 C   0  0  0  0  0  0  0  0  0  0  0  0
    1.3656   -0.8654    0.0000 C   0  0  0  0  0  0  0  0  0  0  0  0
    3.9637   -5.3654    0.0000 C   0  0  0  0  0  0  0  0  0  0  0  0
    3.9637   -3.8654    0.0000 C   0  0  0  0  0  0  0  0  0  0  0  0
    5.2628   -3.1154    0.0000 C   0  0  0  0  0  0  0  0  0  0  0  0
    5.2628   -6.1154    0.0000 C   0  0  0  0  0  0  0  0  0  0  0  0
    6.5618   -5.3654    0.0000 C   0  0  0  0  0  0  0  0  0  0  0  0
    6.5618   -3.8654    0.0000 C   0  0  0  0  0  0  0  0  0  0  0  0
    7.8608   -6.1154    0.0000 N   0  0  0  0  0  0  0  0  0  0  0  0
    7.8608   -3.1154    0.0000 C   0  0  0  0  0  0  0  0  0  0  0  0
    9.1599   -3.8654    0.0000 C   0  0  0  0  0  0  0  0  0  0  0  0
    9.1599   -5.3654    0.0000 C   0  0  0  0  0  0  0  0  0  0  0  0
   -2.5315    1.3846    0.0000 N   0  0  0  0  0  0  0  0  0  0  0  0
    2.6647   -1.6154    0.0000 C   0  0  0  0  0  0  0  0  0  0  0  0
    2.6647   -3.1154    0.0000 C   0  0  0  0  0  0  0  0  0  0  0  0
  1  2  2  0  0  0  0
  1  3  1  0  0  0  0
  1 17  1  0  0  0  0
  2  4  1  0  0  0  0
  3  5  2  0  0  0  0
  4  6  2  0  0  0  0
  5  6  1  0  0  0  0
  6 18  1  0  0  0  0
  7  8  1  0  0  0  0
  7 10  2  0  0  0  0
  8  9  2  0  0  0  0
  8 19  1  0  0  0  0
  9 12  1  0  0  0  0
 10 11  1  0  0  0  0
 11 12  1  0  0  0  0
 11 13  2  0  0  0  0
 12 14  2  0  0  0  0
 13 16  1  0  0  0  0
 14 15  1  0  0  0  0
 15 16  2  0  0  0  0
 18 19  2  0  0  0  0
M  END
