177952
 OpenBabel03021519512D

 12 12  0  0  0  0  0  0  0  0999 V2000
   -4.2736   -1.0218    0.0000 H   0  0  0  0  0  0  0  0  0  0  0  0
   -2.8045   -0.7189    0.0000 N   0  0  0  0  0  0  0  0  0  0  0  0
   -2.1860    0.6476    0.0000 N   0  0  0  0  0  0  0  0  0  0  0  0
   -0.3924   -0.9874    0.0000 N   0  0  0  0  0  0  0  0  0  0  0  0
   -0.6952    0.4817    0.0000 C   0  0  0  0  0  0  0  0  0  0  0  0
   -1.6960   -1.7294    0.0000 C   0  0  0  0  0  0  0  0  0  0  0  0
    0.3153    1.5902    0.0000 N   0  0  0  0  0  0  0  0  0  0  0  0
    1.7806    1.2694    0.0000 C   0  0  0  0  0  0  0  0  0  0  0  0
    2.7911    2.3779    0.0000 O   0  0  0  0  0  0  0  0  0  0  0  0
    2.2353   -0.1600    0.0000 C   0  0  0  0  0  0  0  0  0  0  0  0
    3.7006   -0.4808    0.0000 O   0  0  0  0  0  0  0  0  0  0  0  0
    1.2248   -1.2685    0.0000 O   0  0  0  0  0  0  0  0  0  0  0  0
  1  2  1  0  0  0  0
  2  3  1  0  0  0  0
  2  6  1  0  0  0  0
  3  5  2  0  0  0  0
  4  6  2  0  0  0  0
  4  5  1  0  0  0  0
  5  7  1  0  0  0  0
  7  8  1  0  0  0  0
  8  9  2  0  0  0  0
  8 10  1  0  0  0  0
 10 11  2  0  0  0  0
 10 12  1  0  0  0  0
M  END
