117987
 OpenBabel03021519512D

 26 29  0  0  0  0  0  0  0  0999 V2000
   -6.1202   -4.3995    0.0000 O   0  0  0  0  0  0  0  0  0  0  0  0
   -6.1202  -10.3995    0.0000 O   0  0  0  0  0  0  0  0  0  0  0  0
   -3.5221   -4.3995    0.0000 S   0  0  0  0  0  0  0  0  0  0  0  0
   -0.0749   -1.5070    0.0000 C   0  0  0  0  0  0  0  0  0  0  0  0
   -1.4845   -0.9939    0.0000 C   0  0  0  0  0  0  0  0  0  0  0  0
    0.1856   -2.9842    0.0000 C   0  0  0  0  0  0  0  0  0  0  0  0
   -0.9635   -3.9484    0.0000 C   0  0  0  0  0  0  0  0  0  0  0  0
   -2.6335   -1.9581    0.0000 C   0  0  0  0  0  0  0  0  0  0  0  0
   -2.3730   -3.4353    0.0000 C   0  0  0  0  0  0  0  0  0  0  0  0
   -3.5221   -5.8995    0.0000 C   0  0  0  0  0  0  0  0  0  0  0  0
   -4.8211   -6.6495    0.0000 C   0  0  0  0  0  0  0  0  0  0  0  0
   -2.2231   -6.6495    0.0000 C   0  0  0  0  0  0  0  0  0  0  0  0
   -6.1202   -5.8995    0.0000 C   0  0  0  0  0  0  0  0  0  0  0  0
   -7.4192   -6.6495    0.0000 C   0  0  0  0  0  0  0  0  0  0  0  0
   -8.7183   -5.8995    0.0000 C   0  0  0  0  0  0  0  0  0  0  0  0
  -10.0173   -6.6495    0.0000 C   0  0  0  0  0  0  0  0  0  0  0  0
   -2.2231   -8.1495    0.0000 C   0  0  0  0  0  0  0  0  0  0  0  0
   -4.8211   -8.1495    0.0000 C   0  0  0  0  0  0  0  0  0  0  0  0
   -7.4192   -8.1495    0.0000 C   0  0  0  0  0  0  0  0  0  0  0  0
  -10.0173   -8.1495    0.0000 C   0  0  0  0  0  0  0  0  0  0  0  0
   -3.5221   -8.8995    0.0000 C   0  0  0  0  0  0  0  0  0  0  0  0
   -6.1202   -8.8995    0.0000 C   0  0  0  0  0  0  0  0  0  0  0  0
   -8.7183   -8.8995    0.0000 C   0  0  0  0  0  0  0  0  0  0  0  0
   -0.8135   -6.1365    0.0000 C   0  0  0  0  0  0  0  0  0  0  0  0
    0.3355   -7.1007    0.0000 O   0  0  0  0  0  0  0  0  0  0  0  0
   -0.5531   -4.6593    0.0000 O   0  0  0  0  0  0  0  0  0  0  0  0
  1 13  2  0  0  0  0
  2 22  2  0  0  0  0
  3  9  1  0  0  0  0
  3 10  1  0  0  0  0
  4  6  2  0  0  0  0
  4  5  1  0  0  0  0
  5  8  2  0  0  0  0
  6  7  1  0  0  0  0
  7  9  2  0  0  0  0
  8  9  1  0  0  0  0
 10 12  2  0  0  0  0
 10 11  1  0  0  0  0
 11 18  2  0  0  0  0
 11 13  1  0  0  0  0
 12 17  1  0  0  0  0
 12 24  1  0  0  0  0
 13 14  1  0  0  0  0
 14 19  2  0  0  0  0
 14 15  1  0  0  0  0
 15 16  2  0  0  0  0
 16 20  1  0  0  0  0
 17 21  2  0  0  0  0
 18 22  1  0  0  0  0
 18 21  1  0  0  0  0
 19 22  1  0  0  0  0
 19 23  1  0  0  0  0
 20 23  2  0  0  0  0
 24 25  2  0  0  0  0
 24 26  1  0  0  0  0
M  END
