7606
 OpenBabel03021519512D

 13 13  0  0  1  0  0  0  0  0999 V2000
    1.8875    0.4291    0.0000 C   0  0  0  0  0  0  0  0  0  0  0  0
   -0.3876   -0.4162    0.0000 C   0  0  3  0  0  0  0  0  0  0  0  0
    0.5437   -1.5920    0.0000 C   0  0  0  0  0  0  0  0  0  0  0  0
   -1.9944    2.1173    0.0000 O   0  0  0  0  0  0  0  0  0  0  0  0
   -2.6897    0.7882    0.0000 C   0  0  0  0  0  0  0  0  0  0  0  0
    0.1399   -3.0366    0.0000 O   0  0  0  0  0  0  0  0  0  0  0  0
   -0.0796    2.2390    0.0000 H   0  0  0  0  0  0  0  0  0  0  0  0
    0.4428    0.8330    0.0000 N   0  0  0  0  0  0  0  0  0  0  0  0
    1.9498   -1.0696    0.0000 N   0  0  0  0  0  0  0  0  0  0  0  0
    3.1990   -1.9000    0.0000 H   0  0  0  0  0  0  0  0  0  0  0  0
    3.0633    1.3605    0.0000 O   0  0  0  0  0  0  0  0  0  0  0  0
   -4.1884    0.7258    0.0000 N   0  0  0  0  0  0  0  0  0  0  0  0
   -1.8863   -0.4786    0.0000 N   0  0  0  0  0  0  0  0  0  0  0  0
  1 11  2  0  0  0  0
  1  8  1  0  0  0  0
  1  9  1  0  0  0  0
  2  8  1  0  0  0  0
  2 13  1  0  0  0  0
  2  3  1  0  0  0  0
  3  9  1  0  0  0  0
  3  6  2  0  0  0  0
  4  5  2  0  0  0  0
  5 12  1  0  0  0  0
  5 13  1  0  0  0  0
  7  8  1  0  0  0  0
  9 10  1  0  0  0  0
M  END
