93817
 OpenBabel03021519512D

 17 19  0  0  0  0  0  0  0  0999 V2000
   -0.7298   -3.1475    0.0000 O   0  0  0  0  0  0  0  0  0  0  0  0
   -0.7298   -5.5746    0.0000 N   0  0  0  0  0  0  0  0  0  0  0  0
   -0.2663   -7.0012    0.0000 H   0  0  0  0  0  0  0  0  0  0  0  0
    1.6518   -4.3611    0.0000 S   0  0  0  0  0  0  0  0  0  0  0  0
   -3.4555   -2.8611    0.0000 C   0  0  0  0  0  0  0  0  0  0  0  0
   -4.7545   -3.6111    0.0000 C   0  0  0  0  0  0  0  0  0  0  0  0
   -2.1564   -3.6111    0.0000 C   0  0  0  0  0  0  0  0  0  0  0  0
   -2.1564   -5.1111    0.0000 C   0  0  0  0  0  0  0  0  0  0  0  0
   -4.7545   -5.1111    0.0000 C   0  0  0  0  0  0  0  0  0  0  0  0
   -3.4555   -5.8611    0.0000 C   0  0  0  0  0  0  0  0  0  0  0  0
   -6.0535   -5.8611    0.0000 C   0  0  0  0  0  0  0  0  0  0  0  0
   -7.3526   -5.1111    0.0000 C   0  0  0  0  0  0  0  0  0  0  0  0
   -8.6516   -5.8611    0.0000 C   0  0  0  0  0  0  0  0  0  0  0  0
   -6.0535   -7.3611    0.0000 C   0  0  0  0  0  0  0  0  0  0  0  0
   -8.6516   -7.3611    0.0000 C   0  0  0  0  0  0  0  0  0  0  0  0
   -7.3526   -8.1111    0.0000 C   0  0  0  0  0  0  0  0  0  0  0  0
    0.1518   -4.3611    0.0000 C   0  0  0  0  0  0  0  0  0  0  0  0
  1  7  1  0  0  0  0
  1 17  1  0  0  0  0
  2  8  1  0  0  0  0
  2 17  1  0  0  0  0
  2  3  1  0  0  0  0
  4 17  2  0  0  0  0
  5  6  2  0  0  0  0
  5  7  1  0  0  0  0
  6  9  1  0  0  0  0
  7  8  2  0  0  0  0
  8 10  1  0  0  0  0
  9 10  2  0  0  0  0
  9 11  1  0  0  0  0
 11 14  2  0  0  0  0
 11 12  1  0  0  0  0
 12 13  2  0  0  0  0
 13 15  1  0  0  0  0
 14 16  1  0  0  0  0
 15 16  2  0  0  0  0
M  END
