10211
 OpenBabel03021519512D

 22 25  0  0  0  0  0  0  0  0999 V2000
   -0.2586   -7.1699    0.0000 N   0  0  0  0  0  0  0  0  0  0  0  0
   -0.2586   -1.6949    0.0000 C   0  0  0  0  0  0  0  0  0  0  0  0
   -1.5576   -2.4449    0.0000 C   0  0  0  0  0  0  0  0  0  0  0  0
    1.0404   -2.4449    0.0000 C   0  0  0  0  0  0  0  0  0  0  0  0
    1.0404   -3.9449    0.0000 C   0  0  0  0  0  0  0  0  0  0  0  0
   -1.5576   -3.9449    0.0000 C   0  0  0  0  0  0  0  0  0  0  0  0
   -0.2586   -4.6949    0.0000 C   0  0  0  0  0  0  0  0  0  0  0  0
    2.4222   -7.7397    0.0000 C   0  0  0  0  0  0  0  0  0  0  0  0
    0.9549   -8.0515    0.0000 C   0  0  0  0  0  0  0  0  0  0  0  0
    3.4259   -8.8544    0.0000 C   0  0  0  0  0  0  0  0  0  0  0  0
    2.9623  -10.2810    0.0000 C   0  0  0  0  0  0  0  0  0  0  0  0
    0.4914   -9.4781    0.0000 C   0  0  0  0  0  0  0  0  0  0  0  0
    1.4951  -10.5928    0.0000 C   0  0  0  0  0  0  0  0  0  0  0  0
   -1.0086   -9.4781    0.0000 C   0  0  0  0  0  0  0  0  0  0  0  0
   -2.9393   -7.7397    0.0000 C   0  0  0  0  0  0  0  0  0  0  0  0
   -1.4721   -8.0516    0.0000 C   0  0  0  0  0  0  0  0  0  0  0  0
   -3.9430   -8.8544    0.0000 C   0  0  0  0  0  0  0  0  0  0  0  0
   -3.4795  -10.2810    0.0000 C   0  0  0  0  0  0  0  0  0  0  0  0
   -2.0123  -10.5929    0.0000 C   0  0  0  0  0  0  0  0  0  0  0  0
    2.3395   -4.6949    0.0000 C   0  0  0  0  0  0  0  0  0  0  0  0
    2.3395   -6.1949    0.0000 O   0  0  0  0  0  0  0  0  0  0  0  0
    3.6385   -3.9449    0.0000 O   0  0  0  0  0  0  0  0  0  0  0  0
  1  7  1  0  0  0  0
  1  9  1  0  0  0  0
  1 16  1  0  0  0  0
  2  4  2  0  0  0  0
  2  3  1  0  0  0  0
  3  6  2  0  0  0  0
  4  5  1  0  0  0  0
  5  7  2  0  0  0  0
  5 20  1  0  0  0  0
  6  7  1  0  0  0  0
  8 10  2  0  0  0  0
  8  9  1  0  0  0  0
  9 12  2  0  0  0  0
 10 11  1  0  0  0  0
 11 13  2  0  0  0  0
 12 13  1  0  0  0  0
 12 14  1  0  0  0  0
 14 16  2  0  0  0  0
 14 19  1  0  0  0  0
 15 17  2  0  0  0  0
 15 16  1  0  0  0  0
 17 18  1  0  0  0  0
 18 19  2  0  0  0  0
 20 21  2  0  0  0  0
 20 22  1  0  0  0  0
M  END
