191441
 OpenBabel03021519512D

 26 28  0  0  0  0  0  0  0  0999 V2000
    2.6661  -11.8821    0.0000 C   0  0  0  0  0  0  0  0  0  0  0  0
    1.3671  -12.6321    0.0000 C   0  0  0  0  0  0  0  0  0  0  0  0
    3.9652  -12.6321    0.0000 C   0  0  0  0  0  0  0  0  0  0  0  0
    3.9652  -14.1321    0.0000 C   0  0  0  0  0  0  0  0  0  0  0  0
    1.3671  -14.1321    0.0000 C   0  0  0  0  0  0  0  0  0  0  0  0
    2.6661  -14.8821    0.0000 C   0  0  0  0  0  0  0  0  0  0  0  0
   -1.2310   -9.6322    0.0000 C   0  0  0  0  0  0  0  0  0  0  0  0
   -1.2310   -8.1322    0.0000 C   0  0  0  0  0  0  0  0  0  0  0  0
   -2.5300  -10.3822    0.0000 C   0  0  0  0  0  0  0  0  0  0  0  0
   -3.8291   -9.6322    0.0000 C   0  0  0  0  0  0  0  0  0  0  0  0
   -2.5300   -7.3822    0.0000 C   0  0  0  0  0  0  0  0  0  0  0  0
   -3.8291   -8.1322    0.0000 C   0  0  0  0  0  0  0  0  0  0  0  0
    3.9652   -8.1321    0.0000 C   0  0  0  0  0  0  0  0  0  0  0  0
    2.6661   -7.3821    0.0000 C   0  0  0  0  0  0  0  0  0  0  0  0
    5.2642   -7.3821    0.0000 C   0  0  0  0  0  0  0  0  0  0  0  0
    2.6661   -5.8821    0.0000 C   0  0  0  0  0  0  0  0  0  0  0  0
    5.2642   -5.8821    0.0000 C   0  0  0  0  0  0  0  0  0  0  0  0
    3.9652   -5.1321    0.0000 C   0  0  0  0  0  0  0  0  0  0  0  0
    1.3671   -8.1321    0.0000 C   0  0  0  0  0  0  0  0  0  0  0  0
    1.3671   -9.6321    0.0000 O   0  0  0  0  0  0  0  0  0  0  0  0
    0.0680   -7.3821    0.0000 O   0  0  0  0  0  0  0  0  0  0  0  0
   -2.5300  -11.8822    0.0000 O   0  0  0  0  0  0  0  0  0  0  0  0
   -1.2310  -12.6322    0.0000 C   0  0  0  0  0  0  0  0  0  0  0  0
   -1.2310  -14.1322    0.0000 O   0  0  0  0  0  0  0  0  0  0  0  0
    0.0681  -11.8822    0.0000 N   0  0  0  0  0  0  0  0  0  0  0  0
    0.0681  -14.8822    0.0000 C   0  0  0  0  0  0  0  0  0  0  0  0
  1  3  2  0  0  0  0
  1  2  1  0  0  0  0
  2  5  2  0  0  0  0
  2 25  1  0  0  0  0
  3  4  1  0  0  0  0
  4  6  2  0  0  0  0
  5  6  1  0  0  0  0
  5 26  1  0  0  0  0
  7  8  2  0  0  0  0
  7  9  1  0  0  0  0
  8 11  1  0  0  0  0
  8 21  1  0  0  0  0
  9 10  2  0  0  0  0
  9 22  1  0  0  0  0
 10 12  1  0  0  0  0
 11 12  2  0  0  0  0
 13 15  2  0  0  0  0
 13 14  1  0  0  0  0
 14 16  2  0  0  0  0
 14 19  1  0  0  0  0
 15 17  1  0  0  0  0
 16 18  1  0  0  0  0
 17 18  2  0  0  0  0
 19 20  2  0  0  0  0
 19 21  1  0  0  0  0
 22 23  1  0  0  0  0
 23 24  2  0  0  0  0
 23 25  1  0  0  0  0
M  END
