41805
 OpenBabel03021519512D

 21 23  0  0  0  0  0  0  0  0999 V2000
   11.0490   -0.5490    0.0000 C   0  0  0  0  0  0  0  0  0  0  0  0
    9.5490   -0.5490    0.0000 C   0  0  0  0  0  0  0  0  0  0  0  0
    5.7990    3.3481    0.0000 C   0  0  0  0  0  0  0  0  0  0  0  0
   11.7990   -1.8481    0.0000 C   0  0  0  0  0  0  0  0  0  0  0  0
    8.7990   -1.8481    0.0000 C   0  0  0  0  0  0  0  0  0  0  0  0
    5.0490   -0.5490    0.0000 C   0  0  0  0  0  0  0  0  0  0  0  0
    5.0490    2.0491    0.0000 C   0  0  0  0  0  0  0  0  0  0  0  0
    5.0490    4.6471    0.0000 C   0  0  0  0  0  0  0  0  0  0  0  0
   11.0490   -3.1471    0.0000 C   0  0  0  0  0  0  0  0  0  0  0  0
    9.5490   -3.1471    0.0000 C   0  0  0  0  0  0  0  0  0  0  0  0
    3.5490   -0.5490    0.0000 C   0  0  0  0  0  0  0  0  0  0  0  0
    3.5490    2.0491    0.0000 C   0  0  0  0  0  0  0  0  0  0  0  0
    3.5490    4.6471    0.0000 C   0  0  0  0  0  0  0  0  0  0  0  0
    2.7990    3.3481    0.0000 C   0  0  0  0  0  0  0  0  0  0  0  0
    5.7990    0.7500    0.0000 N   0  0  0  0  0  0  0  0  0  0  0  0
    2.7990    0.7500    0.0000 N   0  0  0  0  0  0  0  0  0  0  0  0
    5.7990   -1.8481    0.0000 N   0  0  0  0  0  0  0  0  0  0  0  0
    7.2990   -1.8481    0.0000 S   0  0  0  0  0  0  0  0  0  0  0  0
    7.2990   -0.3481    0.0000 O   0  0  0  0  0  0  0  0  0  0  0  0
    7.2990   -3.3481    0.0000 O   0  0  0  0  0  0  0  0  0  0  0  0
   13.2990   -1.8481    0.0000 N   0  0  0  0  0  0  0  0  0  0  0  0
  1  2  1  0  0  0  0
  1  4  2  0  0  0  0
  2  5  2  0  0  0  0
  3  8  2  0  0  0  0
  3  7  1  0  0  0  0
  4  9  1  0  0  0  0
  4 21  1  0  0  0  0
  5 18  1  0  0  0  0
  5 10  1  0  0  0  0
  6 15  2  0  0  0  0
  6 11  1  0  0  0  0
  6 17  1  0  0  0  0
  7 15  1  0  0  0  0
  7 12  2  0  0  0  0
  8 13  1  0  0  0  0
  9 10  2  0  0  0  0
 11 16  2  0  0  0  0
 12 16  1  0  0  0  0
 12 14  1  0  0  0  0
 13 14  2  0  0  0  0
 17 18  1  0  0  0  0
 18 19  2  0  0  0  0
 18 20  2  0  0  0  0
M  END
