159092
 OpenBabel03021519512D

 22 24  0  0  1  0  0  0  0  0999 V2000
    7.2542    2.4836    0.0000 C   0  0  0  0  0  0  0  0  0  0  0  0
    6.0406    1.6019    0.0000 N   0  0  0  0  0  0  0  0  0  0  0  0
    6.5042    0.1753    0.0000 C   0  0  0  0  0  0  0  0  0  0  0  0
    8.0042    0.1753    0.0000 C   0  0  0  0  0  0  0  0  0  0  0  0
    8.4677    1.6019    0.0000 C   0  0  3  0  0  0  0  0  0  0  0  0
    7.2542    3.9836    0.0000 O   0  0  0  0  0  0  0  0  0  0  0  0
    9.8943    2.0654    0.0000 S   0  0  0  0  0  0  0  0  0  0  0  0
    5.6225   -1.0382    0.0000 O   0  0  0  0  0  0  0  0  0  0  0  0
    4.6141    2.0654    0.0000 C   0  0  0  0  0  0  0  0  0  0  0  0
    4.3022    3.5326    0.0000 C   0  0  0  0  0  0  0  0  0  0  0  0
    2.8756    3.9961    0.0000 C   0  0  0  0  0  0  0  0  0  0  0  0
    1.7609    2.9924    0.0000 C   0  0  0  0  0  0  0  0  0  0  0  0
    2.0728    1.5252    0.0000 C   0  0  0  0  0  0  0  0  0  0  0  0
    3.4993    1.0617    0.0000 C   0  0  0  0  0  0  0  0  0  0  0  0
   11.0090    1.0617    0.0000 C   0  0  0  0  0  0  0  0  0  0  0  0
   10.6971   -0.4055    0.0000 C   0  0  0  0  0  0  0  0  0  0  0  0
   11.8119   -1.4092    0.0000 C   0  0  0  0  0  0  0  0  0  0  0  0
   13.2384   -0.9457    0.0000 C   0  0  0  0  0  0  0  0  0  0  0  0
   13.5503    0.5216    0.0000 C   0  0  0  0  0  0  0  0  0  0  0  0
   12.4356    1.5253    0.0000 C   0  0  0  0  0  0  0  0  0  0  0  0
    3.8112   -0.4055    0.0000 Cl  0  0  0  0  0  0  0  0  0  0  0  0
   12.7474    2.9925    0.0000 N   0  0  0  0  0  0  0  0  0  0  0  0
  1  2  1  0  0  0  0
  1  5  1  0  0  0  0
  1  6  2  0  0  0  0
  2  3  1  0  0  0  0
  2  9  1  0  0  0  0
  3  4  1  0  0  0  0
  3  8  2  0  0  0  0
  4  5  1  0  0  0  0
  5  7  1  0  0  0  0
  7 15  1  0  0  0  0
  9 10  2  0  0  0  0
  9 14  1  0  0  0  0
 10 11  1  0  0  0  0
 11 12  2  0  0  0  0
 12 13  1  0  0  0  0
 13 14  2  0  0  0  0
 14 21  1  0  0  0  0
 15 16  2  0  0  0  0
 15 20  1  0  0  0  0
 16 17  1  0  0  0  0
 17 18  2  0  0  0  0
 18 19  1  0  0  0  0
 19 20  2  0  0  0  0
 20 22  1  0  0  0  0
M  END
