59776
 OpenBabel03021519512D

 18 20  0  0  0  0  0  0  0  0999 V2000
    2.6357   -3.2577    0.0000 N   0  0  0  0  0  0  0  0  0  0  0  0
    2.3238   -4.7249    0.0000 C   0  0  0  0  0  0  0  0  0  0  0  0
    3.6229   -5.4749    0.0000 N   0  0  0  0  0  0  0  0  0  0  0  0
    3.7797   -6.9667    0.0000 H   0  0  0  0  0  0  0  0  0  0  0  0
    4.1275   -3.1009    0.0000 C   0  0  0  0  0  0  0  0  0  0  0  0
    4.7376   -4.4712    0.0000 C   0  0  0  0  0  0  0  0  0  0  0  0
    4.1275   -0.5028    0.0000 C   0  0  0  0  0  0  0  0  0  0  0  0
    6.2048   -4.7831    0.0000 C   0  0  0  0  0  0  0  0  0  0  0  0
    4.8775   -1.8019    0.0000 C   0  0  0  0  0  0  0  0  0  0  0  0
    4.8775    0.7962    0.0000 C   0  0  0  0  0  0  0  0  0  0  0  0
    6.6683   -6.2097    0.0000 C   0  0  0  0  0  0  0  0  0  0  0  0
    6.3775   -1.8019    0.0000 C   0  0  0  0  0  0  0  0  0  0  0  0
    8.1356   -6.5215    0.0000 C   0  0  0  0  0  0  0  0  0  0  0  0
    7.2085   -3.6684    0.0000 C   0  0  0  0  0  0  0  0  0  0  0  0
    6.3775    0.7962    0.0000 C   0  0  0  0  0  0  0  0  0  0  0  0
    9.1393   -5.4068    0.0000 C   0  0  0  0  0  0  0  0  0  0  0  0
    8.6757   -3.9802    0.0000 C   0  0  0  0  0  0  0  0  0  0  0  0
    7.1275   -0.5028    0.0000 C   0  0  0  0  0  0  0  0  0  0  0  0
  1  5  1  0  0  0  0
  1  2  2  0  0  0  0
  2  3  1  0  0  0  0
  3  6  1  0  0  0  0
  3  4  1  0  0  0  0
  5  9  1  0  0  0  0
  5  6  2  0  0  0  0
  6  8  1  0  0  0  0
  7 10  1  0  0  0  0
  7  9  2  0  0  0  0
  8 14  2  0  0  0  0
  8 11  1  0  0  0  0
  9 12  1  0  0  0  0
 10 15  2  0  0  0  0
 11 13  2  0  0  0  0
 12 18  2  0  0  0  0
 13 16  1  0  0  0  0
 14 17  1  0  0  0  0
 15 18  1  0  0  0  0
 16 17  2  0  0  0  0
M  END
