92794
 OpenBabel03021519512D

 18 19  0  0  0  0  0  0  0  0999 V2000
    8.1692   -5.1495    0.0000 C   0  0  0  0  0  0  0  0  0  0  0  0
    9.4683   -5.8995    0.0000 C   0  0  0  0  0  0  0  0  0  0  0  0
    6.8702   -5.8995    0.0000 C   0  0  0  0  0  0  0  0  0  0  0  0
    9.4683   -7.3995    0.0000 C   0  0  0  0  0  0  0  0  0  0  0  0
    6.8702   -7.3995    0.0000 C   0  0  0  0  0  0  0  0  0  0  0  0
    8.1692   -8.1495    0.0000 C   0  0  0  0  0  0  0  0  0  0  0  0
    6.8702   -2.8995    0.0000 C   0  0  0  0  0  0  0  0  0  0  0  0
    5.5712   -3.6495    0.0000 C   0  0  0  0  0  0  0  0  0  0  0  0
    6.8702   -1.3995    0.0000 C   0  0  0  0  0  0  0  0  0  0  0  0
    4.2721   -2.8995    0.0000 C   0  0  0  0  0  0  0  0  0  0  0  0
    5.5712   -0.6495    0.0000 C   0  0  0  0  0  0  0  0  0  0  0  0
    4.2721   -1.3995    0.0000 C   0  0  0  0  0  0  0  0  0  0  0  0
    5.5711    0.8505    0.0000 N   0  3  0  0  0  0  0  0  0  0  0  0
    6.8702    1.6005    0.0000 O   0  5  0  0  0  0  0  0  0  0  0  0
    4.2721    1.6005    0.0000 O   0  0  0  0  0  0  0  0  0  0  0  0
    2.9731   -3.6495    0.0000 N   0  0  0  0  0  0  0  0  0  0  0  0
    5.5712   -5.1495    0.0000 N   0  0  0  0  0  0  0  0  0  0  0  0
   10.7673   -8.1495    0.0000 O   0  0  0  0  0  0  0  0  0  0  0  0
  1  2  2  0  0  0  0
  1  3  1  0  0  0  0
  2  4  1  0  0  0  0
  3  5  2  0  0  0  0
  3 17  1  0  0  0  0
  4  6  2  0  0  0  0
  4 18  1  0  0  0  0
  5  6  1  0  0  0  0
  7  9  2  0  0  0  0
  7  8  1  0  0  0  0
  8 10  2  0  0  0  0
  8 17  1  0  0  0  0
  9 11  1  0  0  0  0
 10 12  1  0  0  0  0
 10 16  1  0  0  0  0
 11 12  2  0  0  0  0
 11 13  1  0  0  0  0
 13 14  1  0  0  0  0
 13 15  2  0  0  0  0
M  CHG  2  13   1  14  -1
M  END
