372063
 OpenBabel03021519512D

 14 15  0  0  1  0  0  0  0  0999 V2000
   -4.2718   -3.3901    0.0000 C   0  0  3  0  0  0  0  0  0  0  0  0
   -3.3901   -2.1766    0.0000 C   0  0  0  0  0  0  0  0  0  0  0  0
   -3.3901   -4.6036    0.0000 O   0  0  0  0  0  0  0  0  0  0  0  0
   -1.9635   -4.1401    0.0000 C   0  0  0  0  0  0  0  0  0  0  0  0
   -1.9635   -2.6401    0.0000 C   0  0  0  0  0  0  0  0  0  0  0  0
   -5.7718   -3.3901    0.0000 C   0  0  0  0  0  0  0  0  0  0  0  0
   -6.5218   -4.6892    0.0000 C   0  0  0  0  0  0  0  0  0  0  0  0
   -8.0218   -4.6892    0.0000 C   0  0  0  0  0  0  0  0  0  0  0  0
   -8.7718   -3.3901    0.0000 C   0  0  0  0  0  0  0  0  0  0  0  0
   -8.0218   -2.0911    0.0000 C   0  0  0  0  0  0  0  0  0  0  0  0
   -6.5218   -2.0911    0.0000 C   0  0  0  0  0  0  0  0  0  0  0  0
   -3.8536   -0.7500    0.0000 O   0  0  0  0  0  0  0  0  0  0  0  0
   -0.7500   -5.0218    0.0000 N   0  0  0  0  0  0  0  0  0  0  0  0
   -0.7500   -1.7584    0.0000 O   0  0  0  0  0  0  0  0  0  0  0  0
  1  2  1  0  0  0  0
  1  3  1  0  0  0  0
  1  6  1  0  0  0  0
  2  5  2  0  0  0  0
  2 12  1  0  0  0  0
  3  4  1  0  0  0  0
  4  5  1  0  0  0  0
  4 13  2  0  0  0  0
  5 14  1  0  0  0  0
  6  7  2  0  0  0  0
  6 11  1  0  0  0  0
  7  8  1  0  0  0  0
  8  9  2  0  0  0  0
  9 10  1  0  0  0  0
 10 11  2  0  0  0  0
M  END
