166583
 OpenBabel03021519512D

 14 15  0  0  0  0  0  0  0  0999 V2000
   -4.0857    0.6098    0.0000 Cl  0  0  0  0  0  0  0  0  0  0  0  0
   -3.4935   -2.3312    0.0000 Cl  0  0  0  0  0  0  0  0  0  0  0  0
   -1.5387    1.1226    0.0000 N   0  0  0  0  0  0  0  0  0  0  0  0
   -0.9466   -1.8184    0.0000 N   0  0  0  0  0  0  0  0  0  0  0  0
    1.1898    1.3797    0.0000 N   0  0  0  0  0  0  0  0  0  0  0  0
    1.3627    2.8697    0.0000 H   0  0  0  0  0  0  0  0  0  0  0  0
    1.6689   -0.9996    0.0000 N   0  0  0  0  0  0  0  0  0  0  0  0
   -2.6642    0.1309    0.0000 C   0  0  0  0  0  0  0  0  0  0  0  0
   -2.3681   -1.3396    0.0000 C   0  0  0  0  0  0  0  0  0  0  0  0
    2.2937    0.3641    0.0000 C   0  0  0  0  0  0  0  0  0  0  0  0
   -0.1172    0.6437    0.0000 C   0  0  0  0  0  0  0  0  0  0  0  0
    0.1789   -0.8268    0.0000 C   0  0  0  0  0  0  0  0  0  0  0  0
    3.7642    0.6602    0.0000 C   0  0  0  0  0  0  0  0  0  0  0  0
    4.7558   -0.4653    0.0000 O   0  0  0  0  0  0  0  0  0  0  0  0
  1  8  1  0  0  0  0
  2  9  1  0  0  0  0
  3  8  2  0  0  0  0
  3 11  1  0  0  0  0
  4  9  2  0  0  0  0
  4 12  1  0  0  0  0
  5 10  1  0  0  0  0
  5 11  1  0  0  0  0
  5  6  1  0  0  0  0
  7 10  2  0  0  0  0
  7 12  1  0  0  0  0
  8  9  1  0  0  0  0
 10 13  1  0  0  0  0
 11 12  2  0  0  0  0
 13 14  1  0  0  0  0
M  END
