241624
 OpenBabel03021519512D

 23 24  0  0  0  0  0  0  0  0999 V2000
    3.7500    3.5490    0.0000 C   0  0  0  0  0  0  0  0  0  0  0  0
    4.5000    4.8481    0.0000 C   0  0  0  0  0  0  0  0  0  0  0  0
    4.5000    2.2500    0.0000 C   0  0  0  0  0  0  0  0  0  0  0  0
    6.0000    4.8481    0.0000 C   0  0  0  0  0  0  0  0  0  0  0  0
    6.0000    2.2500    0.0000 C   0  0  0  0  0  0  0  0  0  0  0  0
    6.7500    3.5490    0.0000 C   0  0  0  0  0  0  0  0  0  0  0  0
    8.2500    3.5490    0.0000 C   0  0  0  0  0  0  0  0  0  0  0  0
    9.0000    4.8481    0.0000 O   0  0  0  0  0  0  0  0  0  0  0  0
   10.5000    2.2500    0.0000 C   0  0  0  0  0  0  0  0  0  0  0  0
   11.2500    3.5490    0.0000 C   0  0  0  0  0  0  0  0  0  0  0  0
   11.2500    0.9510    0.0000 C   0  0  0  0  0  0  0  0  0  0  0  0
   12.7500    3.5490    0.0000 C   0  0  0  0  0  0  0  0  0  0  0  0
   12.7500    0.9510    0.0000 C   0  0  0  0  0  0  0  0  0  0  0  0
   13.5000    2.2500    0.0000 C   0  0  0  0  0  0  0  0  0  0  0  0
   15.0000    3.7500    0.0000 O   0  0  0  0  0  0  0  0  0  0  0  0
   15.0000    0.7500    0.0000 O   0  0  0  0  0  0  0  0  0  0  0  0
   15.0000    2.2500    0.0000 S   0  0  0  0  0  0  0  0  0  0  0  0
    2.2500    3.5490    0.0000 C   0  0  0  0  0  0  0  0  0  0  0  0
    2.2500    5.0490    0.0000 C   0  0  0  0  0  0  0  0  0  0  0  0
    0.7500    3.5490    0.0000 C   0  0  0  0  0  0  0  0  0  0  0  0
    2.2500    2.0490    0.0000 C   0  0  0  0  0  0  0  0  0  0  0  0
    9.0000    2.2500    0.0000 N   0  0  0  0  0  0  0  0  0  0  0  0
   16.5000    2.2500    0.0000 N   0  0  0  0  0  0  0  0  0  0  0  0
  1  2  1  0  0  0  0
  1  3  2  0  0  0  0
  1 18  1  0  0  0  0
  2  4  2  0  0  0  0
  3  5  1  0  0  0  0
  4  6  1  0  0  0  0
  5  6  2  0  0  0  0
  6  7  1  0  0  0  0
  7  8  2  0  0  0  0
  7 22  1  0  0  0  0
  9 10  1  0  0  0  0
  9 11  2  0  0  0  0
  9 22  1  0  0  0  0
 10 12  2  0  0  0  0
 11 13  1  0  0  0  0
 12 14  1  0  0  0  0
 13 14  2  0  0  0  0
 14 17  1  0  0  0  0
 15 17  2  0  0  0  0
 16 17  2  0  0  0  0
 17 23  1  0  0  0  0
 18 19  1  0  0  0  0
 18 20  1  0  0  0  0
 18 21  1  0  0  0  0
M  END
