361570
 OpenBabel03021519512D

 19 19  0  0  0  0  0  0  0  0999 V2000
    2.2500    0.7500    0.0000 S   0  0  0  0  0  0  0  0  0  0  0  0
    2.2500    3.3481    0.0000 O   0  0  0  0  0  0  0  0  0  0  0  0
    3.0000    2.0490    0.0000 C   0  0  0  0  0  0  0  0  0  0  0  0
    5.2500    3.3481    0.0000 C   0  0  0  0  0  0  0  0  0  0  0  0
    4.5000    4.6471    0.0000 O   0  0  0  0  0  0  0  0  0  0  0  0
    7.5000    4.6471    0.0000 C   0  0  0  0  0  0  0  0  0  0  0  0
    6.7500    5.9462    0.0000 O   0  0  0  0  0  0  0  0  0  0  0  0
    9.0000    4.6471    0.0000 C   0  0  0  0  0  0  0  0  0  0  0  0
    9.7500    5.9462    0.0000 C   0  0  0  0  0  0  0  0  0  0  0  0
    9.7500    3.3481    0.0000 C   0  0  0  0  0  0  0  0  0  0  0  0
   11.2500    5.9462    0.0000 C   0  0  0  0  0  0  0  0  0  0  0  0
   11.2500    3.3481    0.0000 C   0  0  0  0  0  0  0  0  0  0  0  0
   12.0000    4.6471    0.0000 C   0  0  0  0  0  0  0  0  0  0  0  0
    0.7500    0.7500    0.0000 C   0  0  0  0  0  0  0  0  0  0  0  0
    4.5000    2.0490    0.0000 N   0  0  0  0  0  0  0  0  0  0  0  0
    6.7500    3.3481    0.0000 N   0  0  0  0  0  0  0  0  0  0  0  0
   13.5000    4.6471    0.0000 N   0  3  0  0  0  0  0  0  0  0  0  0
   14.2500    5.9462    0.0000 O   0  5  0  0  0  0  0  0  0  0  0  0
   14.2500    3.3481    0.0000 O   0  0  0  0  0  0  0  0  0  0  0  0
  1  3  1  0  0  0  0
  1 14  1  0  0  0  0
  2  3  2  0  0  0  0
  3 15  1  0  0  0  0
  4  5  2  0  0  0  0
  4 15  1  0  0  0  0
  4 16  1  0  0  0  0
  6  7  2  0  0  0  0
  6  8  1  0  0  0  0
  6 16  1  0  0  0  0
  8  9  2  0  0  0  0
  8 10  1  0  0  0  0
  9 11  1  0  0  0  0
 10 12  2  0  0  0  0
 11 13  2  0  0  0  0
 12 13  1  0  0  0  0
 13 17  1  0  0  0  0
 17 18  1  0  0  0  0
 17 19  2  0  0  0  0
M  CHG  2  17   1  18  -1
M  END
