46492
 OpenBabel03021519512D

 23 24  0  0  0  0  0  0  0  0999 V2000
    2.0491   -9.7500    0.0000 C   0  0  0  0  0  0  0  0  0  0  0  0
    0.7500  -10.5000    0.0000 C   0  0  0  0  0  0  0  0  0  0  0  0
    3.3481  -10.5000    0.0000 C   0  0  0  0  0  0  0  0  0  0  0  0
    3.3481  -12.0000    0.0000 C   0  0  0  0  0  0  0  0  0  0  0  0
    0.7500  -12.0000    0.0000 C   0  0  0  0  0  0  0  0  0  0  0  0
    2.0491  -12.7500    0.0000 C   0  0  0  0  0  0  0  0  0  0  0  0
    2.0490   -5.2500    0.0000 C   0  0  0  0  0  0  0  0  0  0  0  0
    3.3481   -6.0000    0.0000 C   0  0  0  0  0  0  0  0  0  0  0  0
    2.0490   -3.7500    0.0000 C   0  0  0  0  0  0  0  0  0  0  0  0
    3.3481   -3.0000    0.0000 C   0  0  0  0  0  0  0  0  0  0  0  0
    4.6471   -5.2500    0.0000 C   0  0  0  0  0  0  0  0  0  0  0  0
    4.6471   -3.7500    0.0000 C   0  0  0  0  0  0  0  0  0  0  0  0
    2.0490   -8.2500    0.0000 C   0  0  0  0  0  0  0  0  0  0  0  0
    2.0491  -14.2500    0.0000 C   0  0  0  0  0  0  0  0  0  0  0  0
    0.7500  -15.0000    0.0000 C   0  0  0  0  0  0  0  0  0  0  0  0
    3.3481  -15.0000    0.0000 C   0  0  0  0  0  0  0  0  0  0  0  0
    4.6471   -9.7500    0.0000 N   0  0  0  0  0  0  0  0  0  0  0  0
    4.6471   -8.2500    0.0000 C   0  0  0  0  0  0  0  0  0  0  0  0
    5.9462   -7.5000    0.0000 O   0  0  0  0  0  0  0  0  0  0  0  0
    3.3481   -7.5000    0.0000 N   0  0  0  0  0  0  0  0  0  0  0  0
    3.3481   -1.5000    0.0000 N   0  3  0  0  0  0  0  0  0  0  0  0
    2.0490   -0.7500    0.0000 O   0  5  0  0  0  0  0  0  0  0  0  0
    4.6471   -0.7500    0.0000 O   0  0  0  0  0  0  0  0  0  0  0  0
  1  3  2  0  0  0  0
  1  2  1  0  0  0  0
  1 13  1  0  0  0  0
  2  5  2  0  0  0  0
  3  4  1  0  0  0  0
  3 17  1  0  0  0  0
  4  6  2  0  0  0  0
  5  6  1  0  0  0  0
  6 14  1  0  0  0  0
  7  9  2  0  0  0  0
  7  8  1  0  0  0  0
  8 11  2  0  0  0  0
  8 20  1  0  0  0  0
  9 10  1  0  0  0  0
 10 12  2  0  0  0  0
 10 21  1  0  0  0  0
 11 12  1  0  0  0  0
 14 15  1  0  0  0  0
 14 16  1  0  0  0  0
 17 18  1  0  0  0  0
 18 19  2  0  0  0  0
 18 20  1  0  0  0  0
 21 22  1  0  0  0  0
 21 23  2  0  0  0  0
M  CHG  2  21   1  22  -1
M  END
