144982
 OpenBabel03021519512D

 16 16  0  0  1  0  0  0  0  0999 V2000
   -1.8820    7.2404    0.0000 C   0  0  0  0  0  0  0  0  0  0  0  0
   -3.1810    6.4904    0.0000 C   0  0  0  0  0  0  0  0  0  0  0  0
   -0.5829    6.4904    0.0000 C   0  0  3  0  0  0  0  0  0  0  0  0
   -0.5829    4.9904    0.0000 C   0  0  3  0  0  0  0  0  0  0  0  0
   -3.1810    4.9904    0.0000 C   0  0  0  0  0  0  0  0  0  0  0  0
   -1.8819    4.2404    0.0000 C   0  0  0  0  0  0  0  0  0  0  0  0
   -4.4800    7.2404    0.0000 C   0  0  0  0  0  0  0  0  0  0  0  0
   -4.4800    4.2404    0.0000 C   0  0  0  0  0  0  0  0  0  0  0  0
    0.7161    7.2404    0.0000 C   0  0  0  0  0  0  0  0  0  0  0  0
    2.0152    6.4904    0.0000 O   0  0  0  0  0  0  0  0  0  0  0  0
    0.7161    4.2404    0.0000 C   0  0  0  0  0  0  0  0  0  0  0  0
    2.0152    4.9904    0.0000 O   0  0  0  0  0  0  0  0  0  0  0  0
    0.7161    2.7404    0.0000 O   0  0  0  0  0  0  0  0  0  0  0  0
    0.7161    8.7404    0.0000 O   0  0  0  0  0  0  0  0  0  0  0  0
   -0.5829    9.4904    0.0000 C   0  0  0  0  0  0  0  0  0  0  0  0
   -0.5829   10.9904    0.0000 C   0  0  0  0  0  0  0  0  0  0  0  0
  1  2  1  0  0  0  0
  1  3  1  0  0  0  0
  2  5  2  0  0  0  0
  2  7  1  0  0  0  0
  3  4  1  0  0  0  0
  3  9  1  0  0  0  0
  4  6  1  0  0  0  0
  4 11  1  0  0  0  0
  5  6  1  0  0  0  0
  5  8  1  0  0  0  0
  9 10  2  0  0  0  0
  9 14  1  0  0  0  0
 11 12  2  0  0  0  0
 11 13  1  0  0  0  0
 14 15  1  0  0  0  0
 15 16  1  0  0  0  0
M  END
