637827
 OpenBabel03021519512D

 21 24  0  0  1  0  0  0  0  0999 V2000
    5.3114   -0.4430    0.0000 C   0  0  0  0  0  0  0  0  0  0  0  0
    6.8114   -0.4430    0.0000 C   0  0  0  0  0  0  0  0  0  0  0  0
    7.7466    0.7298    0.0000 C   0  0  0  0  0  0  0  0  0  0  0  0
    7.4128    2.1922    0.0000 C   0  0  0  0  0  0  0  0  0  0  0  0
    6.0614    2.8430    0.0000 C   0  0  3  0  0  0  0  0  0  0  0  0
    4.7099    2.1922    0.0000 C   0  0  0  0  0  0  0  0  0  0  0  0
    4.3762    0.7298    0.0000 C   0  0  0  0  0  0  0  0  0  0  0  0
    3.6104    3.2124    0.0000 C   0  0  0  0  0  0  0  0  0  0  0  0
    2.1770    2.7703    0.0000 C   0  0  0  0  0  0  0  0  0  0  0  0
    1.8432    1.3079    0.0000 C   0  0  0  0  0  0  0  0  0  0  0  0
    2.9428    0.2876    0.0000 C   0  0  0  0  0  0  0  0  0  0  0  0
    8.5124    3.2124    0.0000 C   0  0  0  0  0  0  0  0  0  0  0  0
    9.9458    2.7703    0.0000 C   0  0  0  0  0  0  0  0  0  0  0  0
   10.2796    1.3079    0.0000 C   0  0  0  0  0  0  0  0  0  0  0  0
    9.1800    0.2876    0.0000 C   0  0  0  0  0  0  0  0  0  0  0  0
    4.8479    3.7247    0.0000 O   0  0  0  0  0  0  0  0  0  0  0  0
    5.3114    5.1512    0.0000 C   0  0  0  0  0  0  0  0  0  0  0  0
    4.4297    6.3648    0.0000 O   0  0  0  0  0  0  0  0  0  0  0  0
    6.8114    5.1512    0.0000 C   0  0  0  0  0  0  0  0  0  0  0  0
    7.6931    6.3648    0.0000 C   0  0  0  0  0  0  0  0  0  0  0  0
    7.2749    3.7247    0.0000 C   0  0  0  0  0  0  0  0  0  0  0  0
  1  2  1  0  0  0  0
  1  7  1  0  0  0  0
  2  3  1  0  0  0  0
  3  4  2  0  0  0  0
  3 15  1  0  0  0  0
  4  5  1  0  0  0  0
  4 12  1  0  0  0  0
  5  6  1  0  0  0  0
  5 16  1  0  0  0  0
  5 21  1  0  0  0  0
  6  7  1  0  0  0  0
  6  8  2  0  0  0  0
  7 11  2  0  0  0  0
  8  9  1  0  0  0  0
  9 10  2  0  0  0  0
 10 11  1  0  0  0  0
 12 13  2  0  0  0  0
 13 14  1  0  0  0  0
 14 15  2  0  0  0  0
 16 17  1  0  0  0  0
 17 18  2  0  0  0  0
 17 19  1  0  0  0  0
 19 20  2  0  0  0  0
 19 21  1  0  0  0  0
M  END
