76549
 OpenBabel03021519512D

 18 19  0  0  0  0  0  0  0  0999 V2000
   -9.4683   -1.3995    0.0000 Cl  0  0  0  0  0  0  0  0  0  0  0  0
   -2.9731    0.8505    0.0000 C   0  0  0  0  0  0  0  0  0  0  0  0
   -1.6740    0.1005    0.0000 C   0  0  0  0  0  0  0  0  0  0  0  0
   -4.2721    0.1005    0.0000 C   0  0  0  0  0  0  0  0  0  0  0  0
   -1.6740   -1.3995    0.0000 C   0  0  0  0  0  0  0  0  0  0  0  0
   -4.2721   -1.3995    0.0000 C   0  0  0  0  0  0  0  0  0  0  0  0
   -2.9731   -2.1495    0.0000 C   0  0  0  0  0  0  0  0  0  0  0  0
   -8.1692    2.3505    0.0000 C   0  0  0  0  0  0  0  0  0  0  0  0
   -8.1692    0.8505    0.0000 C   0  0  0  0  0  0  0  0  0  0  0  0
   -9.4683    3.1005    0.0000 C   0  0  0  0  0  0  0  0  0  0  0  0
   -9.4683    0.1005    0.0000 C   0  0  0  0  0  0  0  0  0  0  0  0
  -10.7673    2.3505    0.0000 C   0  0  0  0  0  0  0  0  0  0  0  0
  -10.7673    0.8505    0.0000 C   0  0  0  0  0  0  0  0  0  0  0  0
  -12.0663    3.1005    0.0000 N   0  0  0  0  0  0  0  0  0  0  0  0
   -9.4683    4.6005    0.0000 C   0  0  0  0  0  0  0  0  0  0  0  0
   -6.8702    0.1005    0.0000 N   0  0  0  0  0  0  0  0  0  0  0  0
   -5.5712    0.8505    0.0000 C   0  0  0  0  0  0  0  0  0  0  0  0
   -5.5712    2.3505    0.0000 O   0  0  0  0  0  0  0  0  0  0  0  0
  1 11  1  0  0  0  0
  2  3  2  0  0  0  0
  2  4  1  0  0  0  0
  3  5  1  0  0  0  0
  4  6  2  0  0  0  0
  4 17  1  0  0  0  0
  5  7  2  0  0  0  0
  6  7  1  0  0  0  0
  8 10  2  0  0  0  0
  8  9  1  0  0  0  0
  9 11  2  0  0  0  0
  9 16  1  0  0  0  0
 10 12  1  0  0  0  0
 10 15  1  0  0  0  0
 11 13  1  0  0  0  0
 12 13  2  0  0  0  0
 12 14  1  0  0  0  0
 16 17  1  0  0  0  0
 17 18  2  0  0  0  0
M  END
