284234
 OpenBabel03021519512D

 19 20  0  0  0  0  0  0  0  0999 V2000
   -0.8505    5.5711    0.0000 C   0  0  0  0  0  0  0  0  0  0  0  0
   -0.1005    6.8702    0.0000 C   0  0  0  0  0  0  0  0  0  0  0  0
   -0.1005    4.2721    0.0000 N   0  0  0  0  0  0  0  0  0  0  0  0
   -0.8505    2.9731    0.0000 H   0  0  0  0  0  0  0  0  0  0  0  0
    1.3995    4.2721    0.0000 C   0  0  0  0  0  0  0  0  0  0  0  0
    2.1495    2.9731    0.0000 O   0  0  0  0  0  0  0  0  0  0  0  0
    1.3995    6.8702    0.0000 C   0  0  0  0  0  0  0  0  0  0  0  0
    2.1495    5.5711    0.0000 C   0  0  0  0  0  0  0  0  0  0  0  0
    3.6495    5.5711    0.0000 O   0  0  0  0  0  0  0  0  0  0  0  0
    4.3995    6.8702    0.0000 C   0  0  0  0  0  0  0  0  0  0  0  0
    3.6495    8.1692    0.0000 O   0  0  0  0  0  0  0  0  0  0  0  0
    5.8995    6.8702    0.0000 C   0  0  0  0  0  0  0  0  0  0  0  0
    6.6495    5.5711    0.0000 C   0  0  0  0  0  0  0  0  0  0  0  0
    6.6495    8.1692    0.0000 C   0  0  0  0  0  0  0  0  0  0  0  0
    8.1495    5.5711    0.0000 C   0  0  0  0  0  0  0  0  0  0  0  0
    8.1495    8.1692    0.0000 C   0  0  0  0  0  0  0  0  0  0  0  0
    8.8995    6.8702    0.0000 C   0  0  0  0  0  0  0  0  0  0  0  0
   10.3995    6.8702    0.0000 O   0  0  0  0  0  0  0  0  0  0  0  0
   11.1495    8.1692    0.0000 C   0  0  0  0  0  0  0  0  0  0  0  0
  1  2  2  0  0  0  0
  1  3  1  0  0  0  0
  2  7  1  0  0  0  0
  3  5  1  0  0  0  0
  3  4  1  0  0  0  0
  5  8  1  0  0  0  0
  5  6  2  0  0  0  0
  7  8  2  0  0  0  0
  8  9  1  0  0  0  0
  9 10  1  0  0  0  0
 10 11  2  0  0  0  0
 10 12  1  0  0  0  0
 12 14  2  0  0  0  0
 12 13  1  0  0  0  0
 13 15  2  0  0  0  0
 14 16  1  0  0  0  0
 15 17  1  0  0  0  0
 16 17  2  0  0  0  0
 17 18  1  0  0  0  0
 18 19  1  0  0  0  0
M  END
