76478
 OpenBabel03021519512D

 22 25  0  0  0  0  0  0  0  0999 V2000
    5.5712   -3.6495    0.0000 N   0  0  0  0  0  0  0  0  0  0  0  0
    6.8702   -1.3995    0.0000 N   0  0  0  0  0  0  0  0  0  0  0  0
    8.1693   -3.6495    0.0000 N   0  0  0  0  0  0  0  0  0  0  0  0
    9.5958   -1.6860    0.0000 N   0  0  0  0  0  0  0  0  0  0  0  0
   10.4775   -2.8995    0.0000 N   0  0  0  0  0  0  0  0  0  0  0  0
    4.2721    0.1005    0.0000 C   0  0  0  0  0  0  0  0  0  0  0  0
    2.9731    0.8505    0.0000 C   0  0  0  0  0  0  0  0  0  0  0  0
    4.2721   -1.3995    0.0000 C   0  0  0  0  0  0  0  0  0  0  0  0
    2.9731   -2.1495    0.0000 C   0  0  0  0  0  0  0  0  0  0  0  0
    5.5712   -2.1495    0.0000 C   0  0  0  0  0  0  0  0  0  0  0  0
    1.6741    0.1005    0.0000 C   0  0  0  0  0  0  0  0  0  0  0  0
    1.6741   -1.3995    0.0000 C   0  0  0  0  0  0  0  0  0  0  0  0
    8.1692   -2.1495    0.0000 C   0  0  0  0  0  0  0  0  0  0  0  0
    9.5958   -4.1130    0.0000 C   0  0  0  0  0  0  0  0  0  0  0  0
    6.8702   -4.3995    0.0000 C   0  0  0  0  0  0  0  0  0  0  0  0
    6.8702   -5.8995    0.0000 C   0  0  0  0  0  0  0  0  0  0  0  0
    5.5712   -6.6495    0.0000 C   0  0  0  0  0  0  0  0  0  0  0  0
    8.1693   -6.6495    0.0000 C   0  0  0  0  0  0  0  0  0  0  0  0
    8.1693   -8.1495    0.0000 C   0  0  0  0  0  0  0  0  0  0  0  0
    5.5712   -8.1495    0.0000 C   0  0  0  0  0  0  0  0  0  0  0  0
    6.8702   -8.8995    0.0000 C   0  0  0  0  0  0  0  0  0  0  0  0
   10.0594   -5.5396    0.0000 C   0  0  0  0  0  0  0  0  0  0  0  0
  1 15  2  0  0  0  0
  1 10  1  0  0  0  0
  2 10  2  0  0  0  0
  2 13  1  0  0  0  0
  3 13  1  0  0  0  0
  3 14  1  0  0  0  0
  3 15  1  0  0  0  0
  4  5  1  0  0  0  0
  4 13  2  0  0  0  0
  5 14  2  0  0  0  0
  6  7  2  0  0  0  0
  6  8  1  0  0  0  0
  7 11  1  0  0  0  0
  8  9  2  0  0  0  0
  8 10  1  0  0  0  0
  9 12  1  0  0  0  0
 11 12  2  0  0  0  0
 14 22  1  0  0  0  0
 15 16  1  0  0  0  0
 16 18  2  0  0  0  0
 16 17  1  0  0  0  0
 17 20  2  0  0  0  0
 18 19  1  0  0  0  0
 19 21  2  0  0  0  0
 20 21  1  0  0  0  0
M  END
