64859
 OpenBabel03021519512D

 18 19  0  0  0  0  0  0  0  0999 V2000
   -6.1248   -7.2311    0.0000 Cl  0  0  0  0  0  0  0  0  0  0  0  0
   -4.3614   -9.6581    0.0000 Cl  0  0  0  0  0  0  0  0  0  0  0  0
   -4.9046   -4.4904    0.0000 Cl  0  0  0  0  0  0  0  0  0  0  0  0
   -1.3779   -9.3445    0.0000 Cl  0  0  0  0  0  0  0  0  0  0  0  0
   -2.1130   -2.9071    0.0000 O   0  0  0  0  0  0  0  0  0  0  0  0
   -0.2229   -4.7972    0.0000 N   0  0  0  0  0  0  0  0  0  0  0  0
    0.9907   -7.1788    0.0000 O   0  0  0  0  0  0  0  0  0  0  0  0
   -1.6495   -4.3336    0.0000 C   0  0  0  0  0  0  0  0  0  0  0  0
   -2.5311   -5.5472    0.0000 C   0  0  0  0  0  0  0  0  0  0  0  0
   -4.0229   -5.7040    0.0000 C   0  0  0  0  0  0  0  0  0  0  0  0
   -4.6330   -7.0743    0.0000 C   0  0  0  0  0  0  0  0  0  0  0  0
   -1.6495   -6.7607    0.0000 C   0  0  0  0  0  0  0  0  0  0  0  0
   -3.7513   -8.2878    0.0000 C   0  0  0  0  0  0  0  0  0  0  0  0
   -0.2229   -6.2972    0.0000 C   0  0  0  0  0  0  0  0  0  0  0  0
   -2.2596   -8.1310    0.0000 C   0  0  0  0  0  0  0  0  0  0  0  0
    0.9907   -3.9155    0.0000 N   0  0  0  0  0  0  0  0  0  0  0  0
    2.3610   -4.5256    0.0000 C   0  0  0  0  0  0  0  0  0  0  0  0
    0.8339   -2.4237    0.0000 C   0  0  0  0  0  0  0  0  0  0  0  0
  1 11  1  0  0  0  0
  2 13  1  0  0  0  0
  3 10  1  0  0  0  0
  4 15  1  0  0  0  0
  5  8  2  0  0  0  0
  6  8  1  0  0  0  0
  6 14  1  0  0  0  0
  6 16  1  0  0  0  0
  7 14  2  0  0  0  0
  8  9  1  0  0  0  0
  9 12  2  0  0  0  0
  9 10  1  0  0  0  0
 10 11  2  0  0  0  0
 11 13  1  0  0  0  0
 12 14  1  0  0  0  0
 12 15  1  0  0  0  0
 13 15  2  0  0  0  0
 16 17  1  0  0  0  0
 16 18  1  0  0  0  0
M  END
