100708
 OpenBabel03021519512D

 28 30  0  0  1  0  0  0  0  0999 V2000
    8.2500    9.1471    0.0000 C   0  0  0  0  0  0  0  0  0  0  0  0
    6.9510    8.3971    0.0000 C   0  0  0  0  0  0  0  0  0  0  0  0
    9.5490    8.3971    0.0000 C   0  0  0  0  0  0  0  0  0  0  0  0
    9.5490    6.8971    0.0000 C   0  0  0  0  0  0  0  0  0  0  0  0
    6.9510    6.8971    0.0000 C   0  0  0  0  0  0  0  0  0  0  0  0
    8.2500    6.1471    0.0000 C   0  0  0  0  0  0  0  0  0  0  0  0
   10.5000    5.9462    0.0000 C   0  0  0  0  0  0  0  0  0  0  0  0
    9.7500    4.6471    0.0000 C   0  0  0  0  0  0  0  0  0  0  0  0
   12.0000    5.9461    0.0000 C   0  0  0  0  0  0  0  0  0  0  0  0
   12.7500    4.6471    0.0000 C   0  0  0  0  0  0  0  0  0  0  0  0
   10.5000    3.3481    0.0000 C   0  0  0  0  0  0  0  0  0  0  0  0
   12.0000    3.3481    0.0000 C   0  0  0  0  0  0  0  0  0  0  0  0
    6.0000    5.9462    0.0000 C   0  0  0  0  0  0  0  0  0  0  0  0
    6.7500    4.6471    0.0000 C   0  0  0  0  0  0  0  0  0  0  0  0
    4.5000    5.9462    0.0000 C   0  0  0  0  0  0  0  0  0  0  0  0
    6.0000    3.3481    0.0000 C   0  0  0  0  0  0  0  0  0  0  0  0
    3.7500    4.6471    0.0000 C   0  0  0  0  0  0  0  0  0  0  0  0
    4.5000    3.3481    0.0000 C   0  0  0  0  0  0  0  0  0  0  0  0
    2.2500    4.6471    0.0000 C   0  0  0  0  0  0  0  0  0  0  0  0
    2.2500    6.1471    0.0000 F   0  0  0  0  0  0  0  0  0  0  0  0
    0.7500    4.6471    0.0000 F   0  0  0  0  0  0  0  0  0  0  0  0
    2.2500    3.1471    0.0000 F   0  0  0  0  0  0  0  0  0  0  0  0
    8.2500    4.6471    0.0000 C   0  0  3  0  0  0  0  0  0  0  0  0
    8.2500    3.1471    0.0000 O   0  0  0  0  0  0  0  0  0  0  0  0
    6.7500    2.0490    0.0000 C   0  0  0  0  0  0  0  0  0  0  0  0
    6.0000    0.7500    0.0000 N   0  0  0  0  0  0  0  0  0  0  0  0
    6.7500   -0.5490    0.0000 C   0  0  0  0  0  0  0  0  0  0  0  0
    4.5000    0.7500    0.0000 C   0  0  0  0  0  0  0  0  0  0  0  0
  1  3  2  0  0  0  0
  1  2  1  0  0  0  0
  2  5  2  0  0  0  0
  3  4  1  0  0  0  0
  4  6  2  0  0  0  0
  5  6  1  0  0  0  0
  6 23  1  0  0  0  0
  7  9  2  0  0  0  0
  7  8  1  0  0  0  0
  8 11  2  0  0  0  0
  8 23  1  0  0  0  0
  9 10  1  0  0  0  0
 10 12  2  0  0  0  0
 11 12  1  0  0  0  0
 13 15  2  0  0  0  0
 13 14  1  0  0  0  0
 14 16  2  0  0  0  0
 14 23  1  0  0  0  0
 15 17  1  0  0  0  0
 16 18  1  0  0  0  0
 16 25  1  0  0  0  0
 17 18  2  0  0  0  0
 17 19  1  0  0  0  0
 19 20  1  0  0  0  0
 19 21  1  0  0  0  0
 19 22  1  0  0  0  0
 23 24  1  0  0  0  0
 25 26  1  0  0  0  0
 26 27  1  0  0  0  0
 26 28  1  0  0  0  0
M  END
