217306
 OpenBabel03021519512D

 21 23  0  0  1  0  0  0  0  0999 V2000
   -2.0490    6.7500    0.0000 C   0  0  3  0  0  0  0  0  0  0  0  0
   -2.0490    5.2500    0.0000 C   0  0  3  0  0  0  0  0  0  0  0  0
   -0.7500    6.0000    0.0000 O   0  0  0  0  0  0  0  0  0  0  0  0
   -5.9462    7.5000    0.0000 C   0  0  0  0  0  0  0  0  0  0  0  0
   -7.2452    6.7500    0.0000 C   0  0  0  0  0  0  0  0  0  0  0  0
   -4.6471    6.7500    0.0000 C   0  0  0  0  0  0  0  0  0  0  0  0
   -3.3481    7.5000    0.0000 C   0  0  0  0  0  0  0  0  0  0  0  0
   -7.2452    5.2500    0.0000 C   0  0  0  0  0  0  0  0  0  0  0  0
   -4.6471    5.2500    0.0000 C   0  0  0  0  0  0  0  0  0  0  0  0
   -5.9462    4.5000    0.0000 C   0  0  0  0  0  0  0  0  0  0  0  0
   -3.3481    4.5000    0.0000 C   0  0  0  0  0  0  0  0  0  0  0  0
   -5.9462    9.0000    0.0000 O   0  0  0  0  0  0  0  0  0  0  0  0
   -7.2452    9.7500    0.0000 C   0  0  0  0  0  0  0  0  0  0  0  0
   -8.5442    9.0000    0.0000 O   0  0  0  0  0  0  0  0  0  0  0  0
   -7.2452   11.2500    0.0000 C   0  0  0  0  0  0  0  0  0  0  0  0
   -5.9462    3.0000    0.0000 O   0  0  0  0  0  0  0  0  0  0  0  0
   -7.2452    2.2500    0.0000 C   0  0  0  0  0  0  0  0  0  0  0  0
   -8.5442    3.0000    0.0000 O   0  0  0  0  0  0  0  0  0  0  0  0
   -7.2452    0.7500    0.0000 C   0  0  0  0  0  0  0  0  0  0  0  0
   -1.2990    8.0490    0.0000 C   0  0  0  0  0  0  0  0  0  0  0  0
   -1.2990    3.9510    0.0000 C   0  0  0  0  0  0  0  0  0  0  0  0
  1  7  1  0  0  0  0
  1  2  1  0  0  0  0
  1  3  1  0  0  0  0
  1 20  1  0  0  0  0
  2 11  1  0  0  0  0
  2  3  1  0  0  0  0
  2 21  1  0  0  0  0
  4  5  2  0  0  0  0
  4  6  1  0  0  0  0
  4 12  1  0  0  0  0
  5  8  1  0  0  0  0
  6  9  2  0  0  0  0
  6  7  1  0  0  0  0
  8 10  2  0  0  0  0
  9 10  1  0  0  0  0
  9 11  1  0  0  0  0
 10 16  1  0  0  0  0
 12 13  1  0  0  0  0
 13 14  2  0  0  0  0
 13 15  1  0  0  0  0
 16 17  1  0  0  0  0
 17 18  2  0  0  0  0
 17 19  1  0  0  0  0
M  END
