20192
 OpenBabel03021519512D

 27 26  0  0  0  0  0  0  0  0999 V2000
   -2.0787    1.0196    0.0000 C   0  0  0  0  0  0  0  0  0  0  0  0
   -0.8054    0.2268    0.0000 C   0  0  0  0  0  0  0  0  0  0  0  0
    0.5179    0.9332    0.0000 C   0  0  0  0  0  0  0  0  0  0  0  0
    1.7913    0.1404    0.0000 C   0  0  0  0  0  0  0  0  0  0  0  0
    3.1145    0.8468    0.0000 C   0  0  0  0  0  0  0  0  0  0  0  0
    4.3879    0.0540    0.0000 C   0  0  0  0  0  0  0  0  0  0  0  0
    5.7112    0.7604    0.0000 C   0  0  0  0  0  0  0  0  0  0  0  0
    6.9845   -0.0324    0.0000 C   0  0  0  0  0  0  0  0  0  0  0  0
    8.3078    0.6740    0.0000 C   0  0  0  0  0  0  0  0  0  0  0  0
    9.5812   -0.1188    0.0000 C   0  0  0  0  0  0  0  0  0  0  0  0
   10.9045    0.5876    0.0000 C   0  0  0  0  0  0  0  0  0  0  0  0
   12.1778   -0.2052    0.0000 C   0  0  0  0  0  0  0  0  0  0  0  0
   -2.7820   -3.6067    0.0000 C   0  0  0  0  0  0  0  0  0  0  0  0
   -3.5748   -4.8801    0.0000 C   0  0  0  0  0  0  0  0  0  0  0  0
   -3.4884   -2.2834    0.0000 O   0  0  0  0  0  0  0  0  0  0  0  0
   -2.6956   -1.0101    0.0000 C   0  0  0  0  0  0  0  0  0  0  0  0
   -1.1964   -1.0599    0.0000 O   0  0  0  0  0  0  0  0  0  0  0  0
   -3.4020    0.3132    0.0000 C   0  0  0  0  0  0  0  0  0  0  0  0
   -4.7253   -0.3932    0.0000 C   0  0  0  0  0  0  0  0  0  0  0  0
   -4.7751   -1.8924    0.0000 O   0  0  0  0  0  0  0  0  0  0  0  0
   -5.9986    0.3996    0.0000 O   0  0  0  0  0  0  0  0  0  0  0  0
   -7.3219   -0.3068    0.0000 C   0  0  0  0  0  0  0  0  0  0  0  0
   -7.3718   -1.8060    0.0000 C   0  0  0  0  0  0  0  0  0  0  0  0
   -4.1084    1.6364    0.0000 N   0  0  0  0  0  0  0  0  0  0  0  0
   -3.3156    2.9098    0.0000 C   0  0  0  0  0  0  0  0  0  0  0  0
   -4.0220    4.2331    0.0000 O   0  0  0  0  0  0  0  0  0  0  0  0
   -1.8164    2.8600    0.0000 C   0  0  0  0  0  0  0  0  0  0  0  0
  1  2  1  0  0  0  0
  1 18  1  0  0  0  0
  2  3  1  0  0  0  0
  3  4  1  0  0  0  0
  4  5  1  0  0  0  0
  5  6  1  0  0  0  0
  6  7  1  0  0  0  0
  7  8  1  0  0  0  0
  8  9  1  0  0  0  0
  9 10  1  0  0  0  0
 10 11  1  0  0  0  0
 11 12  1  0  0  0  0
 13 14  1  0  0  0  0
 13 15  1  0  0  0  0
 15 16  1  0  0  0  0
 16 17  2  0  0  0  0
 16 18  1  0  0  0  0
 18 19  1  0  0  0  0
 18 24  1  0  0  0  0
 19 20  2  0  0  0  0
 19 21  1  0  0  0  0
 21 22  1  0  0  0  0
 22 23  1  0  0  0  0
 24 25  1  0  0  0  0
 25 26  2  0  0  0  0
 25 27  1  0  0  0  0
M  END
