661221
 OpenBabel03021519512D

 21 24  0  0  0  0  0  0  0  0999 V2000
    1.4713    3.2868    0.0000 C   0  0  0  0  0  0  0  0  0  0  0  0
    2.7703    2.5368    0.0000 C   0  0  0  0  0  0  0  0  0  0  0  0
    4.0693    3.2868    0.0000 C   0  0  0  0  0  0  0  0  0  0  0  0
    4.0693    4.7868    0.0000 C   0  0  0  0  0  0  0  0  0  0  0  0
    2.7703    5.5368    0.0000 C   0  0  0  0  0  0  0  0  0  0  0  0
    1.4713    4.7868    0.0000 C   0  0  0  0  0  0  0  0  0  0  0  0
    5.4959    2.8233    0.0000 N   0  0  0  0  0  0  0  0  0  0  0  0
    6.3776    4.0368    0.0000 C   0  0  0  0  0  0  0  0  0  0  0  0
    5.4959    5.2503    0.0000 C   0  0  0  0  0  0  0  0  0  0  0  0
    7.8694    4.1936    0.0000 C   0  0  0  0  0  0  0  0  0  0  0  0
    8.4795    5.5639    0.0000 C   0  0  0  0  0  0  0  0  0  0  0  0
    7.5978    6.7774    0.0000 C   0  0  0  0  0  0  0  0  0  0  0  0
    6.1060    6.6206    0.0000 C   0  0  0  0  0  0  0  0  0  0  0  0
    8.7511    2.9801    0.0000 C   0  0  0  0  0  0  0  0  0  0  0  0
    8.1409    1.6097    0.0000 O   0  0  0  0  0  0  0  0  0  0  0  0
   10.2428    3.1368    0.0000 C   0  0  0  0  0  0  0  0  0  0  0  0
   10.8529    4.5072    0.0000 C   0  0  0  0  0  0  0  0  0  0  0  0
    9.9713    5.7207    0.0000 C   0  0  0  0  0  0  0  0  0  0  0  0
   10.5814    7.0910    0.0000 O   0  0  0  0  0  0  0  0  0  0  0  0
    5.9594    1.3967    0.0000 C   0  0  0  0  0  0  0  0  0  0  0  0
    0.1722    5.5368    0.0000 C   0  0  0  0  0  0  0  0  0  0  0  0
  1  2  2  0  0  0  0
  1  6  1  0  0  0  0
  2  3  1  0  0  0  0
  3  4  2  0  0  0  0
  3  7  1  0  0  0  0
  4  5  1  0  0  0  0
  4  9  1  0  0  0  0
  5  6  2  0  0  0  0
  6 21  1  0  0  0  0
  7  8  1  0  0  0  0
  7 20  1  0  0  0  0
  8  9  2  0  0  0  0
  8 10  1  0  0  0  0
  9 13  1  0  0  0  0
 10 11  2  0  0  0  0
 10 14  1  0  0  0  0
 11 12  1  0  0  0  0
 11 18  1  0  0  0  0
 12 13  2  0  0  0  0
 14 15  2  0  0  0  0
 14 16  1  0  0  0  0
 16 17  2  0  0  0  0
 17 18  1  0  0  0  0
 18 19  2  0  0  0  0
M  END
