121268
 OpenBabel03021519512D

 20 23  0  0  1  0  0  0  0  0999 V2000
    6.1202    5.8995    0.0000 N   0  0  3  0  0  0  0  0  0  0  0  0
    7.4192    8.1495    0.0000 N   0  0  0  0  0  0  0  0  0  0  0  0
    9.3093   10.0397    0.0000 O   0  0  0  0  0  0  0  0  0  0  0  0
    8.8458    8.6131    0.0000 C   0  0  0  0  0  0  0  0  0  0  0  0
    9.7275    7.3995    0.0000 C   0  0  0  0  0  0  0  0  0  0  0  0
    8.8458    6.1860    0.0000 C   0  0  0  0  0  0  0  0  0  0  0  0
    7.4192    6.6495    0.0000 C   0  0  3  0  0  0  0  0  0  0  0  0
    6.1202    8.8995    0.0000 C   0  0  0  0  0  0  0  0  0  0  0  0
    4.8211    8.1495    0.0000 C   0  0  0  0  0  0  0  0  0  0  0  0
    4.8211    6.6495    0.0000 C   0  0  3  0  0  0  0  0  0  0  0  0
    3.5221    5.8995    0.0000 C   0  0  0  0  0  0  0  0  0  0  0  0
    2.2231    6.6495    0.0000 C   0  0  0  0  0  0  0  0  0  0  0  0
    0.9240    5.8995    0.0000 C   0  0  0  0  0  0  0  0  0  0  0  0
    3.5221    4.3995    0.0000 C   0  0  0  0  0  0  0  0  0  0  0  0
    0.9240    4.3995    0.0000 C   0  0  0  0  0  0  0  0  0  0  0  0
    2.2231    3.6495    0.0000 C   0  0  0  0  0  0  0  0  0  0  0  0
    4.8211    3.6495    0.0000 C   0  0  0  0  0  0  0  0  0  0  0  0
    6.1202    4.3995    0.0000 C   0  0  0  0  0  0  0  0  0  0  0  0
   -0.3750    3.6495    0.0000 O   0  0  0  0  0  0  0  0  0  0  0  0
   -1.6741    4.3995    0.0000 C   0  0  0  0  0  0  0  0  0  0  0  0
  1  7  1  0  0  0  0
  1 10  1  0  0  0  0
  1 18  1  0  0  0  0
  2  4  1  0  0  0  0
  2  7  1  0  0  0  0
  2  8  1  0  0  0  0
  3  4  2  0  0  0  0
  4  5  1  0  0  0  0
  5  6  1  0  0  0  0
  6  7  1  0  0  0  0
  8  9  1  0  0  0  0
  9 10  1  0  0  0  0
 10 11  1  0  0  0  0
 11 14  2  0  0  0  0
 11 12  1  0  0  0  0
 12 13  2  0  0  0  0
 13 15  1  0  0  0  0
 14 16  1  0  0  0  0
 14 17  1  0  0  0  0
 15 16  2  0  0  0  0
 15 19  1  0  0  0  0
 17 18  1  0  0  0  0
 19 20  1  0  0  0  0
M  END
