269905
 OpenBabel03021519512D

 14 15  0  0  0  0  0  0  0  0999 V2000
   -5.8856    1.6522    0.0000 N   0  0  0  0  0  0  0  0  0  0  0  0
   -5.0039    2.8657    0.0000 C   0  0  0  0  0  0  0  0  0  0  0  0
   -5.0039    0.4387    0.0000 C   0  0  0  0  0  0  0  0  0  0  0  0
   -3.5774    2.4022    0.0000 N   0  0  0  0  0  0  0  0  0  0  0  0
   -3.5774    0.9022    0.0000 C   0  0  0  0  0  0  0  0  0  0  0  0
   -5.4675    4.2923    0.0000 C   0  0  0  0  0  0  0  0  0  0  0  0
   -6.9347    4.6042    0.0000 C   0  0  0  0  0  0  0  0  0  0  0  0
   -7.3982    6.0308    0.0000 C   0  0  0  0  0  0  0  0  0  0  0  0
   -6.3945    7.1455    0.0000 C   0  0  0  0  0  0  0  0  0  0  0  0
   -4.9273    6.8336    0.0000 C   0  0  0  0  0  0  0  0  0  0  0  0
   -4.4638    5.4071    0.0000 C   0  0  0  0  0  0  0  0  0  0  0  0
   -2.3638    0.0205    0.0000 C   0  0  0  0  0  0  0  0  0  0  0  0
   -2.3638    3.2839    0.0000 C   0  0  0  0  0  0  0  0  0  0  0  0
   -0.9935    0.6307    0.0000 O   0  0  0  0  0  0  0  0  0  0  0  0
  1  2  2  0  0  0  0
  1  3  1  0  0  0  0
  2  4  1  0  0  0  0
  2  6  1  0  0  0  0
  3  5  2  0  0  0  0
  4  5  1  0  0  0  0
  4 13  1  0  0  0  0
  5 12  1  0  0  0  0
  6  7  2  0  0  0  0
  6 11  1  0  0  0  0
  7  8  1  0  0  0  0
  8  9  2  0  0  0  0
  9 10  1  0  0  0  0
 10 11  2  0  0  0  0
 12 14  1  0  0  0  0
M  END
