367469
 OpenBabel03021519512D

 21 23  0  0  0  0  0  0  0  0999 V2000
    0.8702   -0.2216    0.0000 S   0  0  0  0  0  0  0  0  0  0  0  0
   -0.0940   -1.3706    0.0000 C   0  0  0  0  0  0  0  0  0  0  0  0
    2.3474   -0.4820    0.0000 C   0  0  0  0  0  0  0  0  0  0  0  0
    0.4190   -2.7802    0.0000 C   0  0  0  0  0  0  0  0  0  0  0  0
    2.8604   -1.8916    0.0000 C   0  0  0  0  0  0  0  0  0  0  0  0
    1.8963   -3.0406    0.0000 N   0  0  0  0  0  0  0  0  0  0  0  0
    1.4451   -5.5992    0.0000 S   0  0  0  0  0  0  0  0  0  0  0  0
    2.4093   -4.4502    0.0000 C   0  0  0  0  0  0  0  0  0  0  0  0
    3.8865   -4.7106    0.0000 S   0  0  0  0  0  0  0  0  0  0  0  0
    5.8995   -6.1202    0.0000 C   0  0  0  0  0  0  0  0  0  0  0  0
    5.8995   -3.5221    0.0000 O   0  0  0  0  0  0  0  0  0  0  0  0
    6.6495   -2.2231    0.0000 C   0  0  0  0  0  0  0  0  0  0  0  0
    6.6495   -4.8211    0.0000 C   0  0  0  0  0  0  0  0  0  0  0  0
    6.6495   -7.4192    0.0000 C   0  0  0  0  0  0  0  0  0  0  0  0
    8.1495   -2.2231    0.0000 O   0  0  0  0  0  0  0  0  0  0  0  0
    8.1495   -7.4192    0.0000 C   0  0  0  0  0  0  0  0  0  0  0  0
    8.1495   -4.8211    0.0000 C   0  0  0  0  0  0  0  0  0  0  0  0
    8.8995   -6.1202    0.0000 C   0  0  0  0  0  0  0  0  0  0  0  0
    8.8995   -3.5221    0.0000 C   0  0  0  0  0  0  0  0  0  0  0  0
    8.8995   -8.7183    0.0000 Cl  0  0  0  0  0  0  0  0  0  0  0  0
    4.3995   -6.1202    0.0000 C   0  0  0  0  0  0  0  0  0  0  0  0
  1  2  1  0  0  0  0
  1  3  1  0  0  0  0
  2  4  1  0  0  0  0
  3  5  1  0  0  0  0
  4  6  1  0  0  0  0
  5  6  1  0  0  0  0
  6  8  1  0  0  0  0
  7  8  2  0  0  0  0
  8  9  1  0  0  0  0
  9 21  1  0  0  0  0
 10 13  2  0  0  0  0
 10 14  1  0  0  0  0
 10 21  1  0  0  0  0
 11 12  1  0  0  0  0
 11 13  1  0  0  0  0
 12 15  1  0  0  0  0
 13 17  1  0  0  0  0
 14 16  2  0  0  0  0
 15 19  1  0  0  0  0
 16 18  1  0  0  0  0
 16 20  1  0  0  0  0
 17 19  1  0  0  0  0
 17 18  2  0  0  0  0
M  END
