73170
 OpenBabel03021519512D

 16 16  0  0  1  0  0  0  0  0999 V2000
   -9.4683   -2.8995    0.0000 Cl  0  0  0  0  0  0  0  0  0  0  0  0
   -9.4683    1.6005    0.0000 C   0  0  0  0  0  0  0  0  0  0  0  0
   -8.1692    0.8505    0.0000 C   0  0  0  0  0  0  0  0  0  0  0  0
  -10.7673    0.8505    0.0000 C   0  0  0  0  0  0  0  0  0  0  0  0
   -8.1692   -0.6495    0.0000 C   0  0  0  0  0  0  0  0  0  0  0  0
  -10.7673   -0.6495    0.0000 C   0  0  0  0  0  0  0  0  0  0  0  0
   -9.4683   -1.3995    0.0000 C   0  0  0  0  0  0  0  0  0  0  0  0
   -6.8702    1.6005    0.0000 N   0  0  0  0  0  0  0  0  0  0  0  0
   -5.5712    0.8505    0.0000 C   0  0  0  0  0  0  0  0  0  0  0  0
   -4.2721    1.6005    0.0000 O   0  0  0  0  0  0  0  0  0  0  0  0
   -5.5712   -0.6495    0.0000 O   0  0  0  0  0  0  0  0  0  0  0  0
   -4.2721   -1.3995    0.0000 C   0  0  3  0  0  0  0  0  0  0  0  0
   -2.9731   -0.6495    0.0000 C   0  0  0  0  0  0  0  0  0  0  0  0
   -4.2721   -2.8995    0.0000 C   0  0  0  0  0  0  0  0  0  0  0  0
   -2.9731   -3.6495    0.0000 O   0  0  0  0  0  0  0  0  0  0  0  0
   -5.5711   -3.6495    0.0000 O   0  0  0  0  0  0  0  0  0  0  0  0
  1  7  1  0  0  0  0
  2  4  2  0  0  0  0
  2  3  1  0  0  0  0
  3  5  2  0  0  0  0
  3  8  1  0  0  0  0
  4  6  1  0  0  0  0
  5  7  1  0  0  0  0
  6  7  2  0  0  0  0
  8  9  1  0  0  0  0
  9 10  2  0  0  0  0
  9 11  1  0  0  0  0
 11 12  1  0  0  0  0
 12 13  1  0  0  0  0
 12 14  1  0  0  0  0
 14 15  2  0  0  0  0
 14 16  1  0  0  0  0
M  END
