101298
 OpenBabel03021519512D

 20 22  0  0  0  0  0  0  0  0999 V2000
    1.4731   -3.4486    0.0000 N   0  0  0  0  0  0  0  0  0  0  0  0
    2.2231   -2.1495    0.0000 C   0  0  0  0  0  0  0  0  0  0  0  0
    0.7231   -2.1495    0.0000 C   0  0  0  0  0  0  0  0  0  0  0  0
   -1.1250   -9.4486    0.0000 C   0  0  0  0  0  0  0  0  0  0  0  0
   -2.4240  -10.1986    0.0000 C   0  0  0  0  0  0  0  0  0  0  0  0
    0.1741  -10.1986    0.0000 C   0  0  0  0  0  0  0  0  0  0  0  0
   -3.7231   -9.4486    0.0000 C   0  0  0  0  0  0  0  0  0  0  0  0
   -5.0221  -10.1986    0.0000 C   0  0  0  0  0  0  0  0  0  0  0  0
    0.1741  -11.6986    0.0000 C   0  0  0  0  0  0  0  0  0  0  0  0
   -2.4240  -11.6986    0.0000 C   0  0  0  0  0  0  0  0  0  0  0  0
   -5.0221  -11.6986    0.0000 C   0  0  0  0  0  0  0  0  0  0  0  0
   -1.1250  -12.4486    0.0000 C   0  0  0  0  0  0  0  0  0  0  0  0
   -3.7231  -12.4486    0.0000 C   0  0  0  0  0  0  0  0  0  0  0  0
    2.7721   -7.1986    0.0000 C   0  0  0  0  0  0  0  0  0  0  0  0
    2.7721   -5.6986    0.0000 C   0  0  0  0  0  0  0  0  0  0  0  0
    1.4731   -4.9486    0.0000 C   0  0  0  0  0  0  0  0  0  0  0  0
    1.4731   -7.9486    0.0000 N   0  0  0  0  0  0  0  0  0  0  0  0
    0.1740   -7.1986    0.0000 C   0  0  0  0  0  0  0  0  0  0  0  0
    0.1740   -5.6986    0.0000 O   0  0  0  0  0  0  0  0  0  0  0  0
   -1.1250   -7.9486    0.0000 N   0  0  0  0  0  0  0  0  0  0  0  0
  1  2  1  0  0  0  0
  1  3  1  0  0  0  0
  1 16  1  0  0  0  0
  2  3  1  0  0  0  0
  4  6  2  0  0  0  0
  4  5  1  0  0  0  0
  4 20  1  0  0  0  0
  5 10  2  0  0  0  0
  5  7  1  0  0  0  0
  6  9  1  0  0  0  0
  7  8  2  0  0  0  0
  8 11  1  0  0  0  0
  9 12  2  0  0  0  0
 10 12  1  0  0  0  0
 10 13  1  0  0  0  0
 11 13  2  0  0  0  0
 14 15  1  0  0  0  0
 14 17  1  0  0  0  0
 15 16  1  0  0  0  0
 17 18  1  0  0  0  0
 18 19  2  0  0  0  0
 18 20  1  0  0  0  0
M  END
