169566
 OpenBabel03021519512D

 11 12  0  0  0  0  0  0  0  0999 V2000
    0.7500    4.1401    0.0000 N   0  0  0  0  0  0  0  0  0  0  0  0
    3.3481    2.6401    0.0000 N   0  0  0  0  0  0  0  0  0  0  0  0
    5.6563    3.3901    0.0000 N   0  0  0  0  0  0  0  0  0  0  0  0
    7.1563    3.3901    0.0000 H   0  0  0  0  0  0  0  0  0  0  0  0
    5.2382    0.7500    0.0000 S   0  0  0  0  0  0  0  0  0  0  0  0
    4.7747    4.6036    0.0000 C   0  0  0  0  0  0  0  0  0  0  0  0
    3.3481    4.1401    0.0000 C   0  0  0  0  0  0  0  0  0  0  0  0
    2.0490    4.8901    0.0000 C   0  0  0  0  0  0  0  0  0  0  0  0
    4.7747    2.1766    0.0000 C   0  0  0  0  0  0  0  0  0  0  0  0
    0.7500    2.6401    0.0000 C   0  0  0  0  0  0  0  0  0  0  0  0
    2.0490    1.8901    0.0000 C   0  0  0  0  0  0  0  0  0  0  0  0
  1  8  2  0  0  0  0
  1 10  1  0  0  0  0
  2  7  1  0  0  0  0
  2  9  1  0  0  0  0
  2 11  1  0  0  0  0
  3  6  1  0  0  0  0
  3  9  1  0  0  0  0
  3  4  1  0  0  0  0
  5  9  2  0  0  0  0
  6  7  2  0  0  0  0
  7  8  1  0  0  0  0
 10 11  2  0  0  0  0
M  END
