13800
 OpenBabel03021519512D

 17 18  0  0  0  0  0  0  0  0999 V2000
   -3.5380   -3.4976    0.0000 O   0  0  0  0  0  0  0  0  0  0  0  0
   -1.6479   -5.3877    0.0000 N   0  0  0  0  0  0  0  0  0  0  0  0
   -0.4344   -7.7694    0.0000 O   0  0  0  0  0  0  0  0  0  0  0  0
   -3.0745   -4.9242    0.0000 C   0  0  0  0  0  0  0  0  0  0  0  0
   -3.9562   -6.1377    0.0000 C   0  0  0  0  0  0  0  0  0  0  0  0
   -5.4480   -6.2945    0.0000 C   0  0  0  0  0  0  0  0  0  0  0  0
   -6.0581   -7.6648    0.0000 C   0  0  0  0  0  0  0  0  0  0  0  0
   -3.0745   -7.3512    0.0000 C   0  0  0  0  0  0  0  0  0  0  0  0
   -5.1764   -8.8783    0.0000 C   0  0  0  0  0  0  0  0  0  0  0  0
   -1.6479   -6.8877    0.0000 C   0  0  0  0  0  0  0  0  0  0  0  0
   -3.6846   -8.7215    0.0000 C   0  0  0  0  0  0  0  0  0  0  0  0
   -0.4344   -4.5060    0.0000 S   0  0  0  0  0  0  0  0  0  0  0  0
   -1.3161   -3.2925    0.0000 O   0  0  0  0  0  0  0  0  0  0  0  0
    0.4473   -5.7195    0.0000 O   0  0  0  0  0  0  0  0  0  0  0  0
    0.7791   -3.6243    0.0000 N   0  0  0  0  0  0  0  0  0  0  0  0
    2.1494   -4.2344    0.0000 C   0  0  0  0  0  0  0  0  0  0  0  0
    0.6223   -2.1325    0.0000 C   0  0  0  0  0  0  0  0  0  0  0  0
  1  4  2  0  0  0  0
  2  4  1  0  0  0  0
  2 10  1  0  0  0  0
  2 12  1  0  0  0  0
  3 10  2  0  0  0  0
  4  5  1  0  0  0  0
  5  8  2  0  0  0  0
  5  6  1  0  0  0  0
  6  7  2  0  0  0  0
  7  9  1  0  0  0  0
  8 10  1  0  0  0  0
  8 11  1  0  0  0  0
  9 11  2  0  0  0  0
 12 13  2  0  0  0  0
 12 14  2  0  0  0  0
 12 15  1  0  0  0  0
 15 16  1  0  0  0  0
 15 17  1  0  0  0  0
M  END
