99796
 OpenBabel03021519512D

 17 19  0  0  0  0  0  0  0  0999 V2000
   -6.9554   -2.2500    0.0000 O   0  0  0  0  0  0  0  0  0  0  0  0
   -6.9554   -6.7500    0.0000 O   0  0  0  0  0  0  0  0  0  0  0  0
   -4.3573   -0.7500    0.0000 O   0  0  0  0  0  0  0  0  0  0  0  0
   -4.3573   -6.7500    0.0000 O   0  0  0  0  0  0  0  0  0  0  0  0
   -1.6317   -2.5365    0.0000 O   0  0  0  0  0  0  0  0  0  0  0  0
   -4.3573   -2.2500    0.0000 C   0  0  0  0  0  0  0  0  0  0  0  0
   -3.0583   -3.0000    0.0000 C   0  0  0  0  0  0  0  0  0  0  0  0
   -5.6563   -3.0000    0.0000 C   0  0  0  0  0  0  0  0  0  0  0  0
   -3.0583   -4.5000    0.0000 C   0  0  0  0  0  0  0  0  0  0  0  0
   -5.6563   -4.5000    0.0000 C   0  0  0  0  0  0  0  0  0  0  0  0
   -4.3573   -5.2500    0.0000 C   0  0  0  0  0  0  0  0  0  0  0  0
   -1.6317   -4.9635    0.0000 C   0  0  0  0  0  0  0  0  0  0  0  0
   -0.7500   -3.7500    0.0000 C   0  0  0  0  0  0  0  0  0  0  0  0
   -6.9554   -5.2500    0.0000 C   0  0  0  0  0  0  0  0  0  0  0  0
   -8.2544   -4.5000    0.0000 C   0  0  0  0  0  0  0  0  0  0  0  0
   -8.2544   -3.0000    0.0000 C   0  0  0  0  0  0  0  0  0  0  0  0
   -9.5535   -2.2500    0.0000 C   0  0  0  0  0  0  0  0  0  0  0  0
  1  8  1  0  0  0  0
  1 16  1  0  0  0  0
  2 14  2  0  0  0  0
  3  6  2  0  0  0  0
  4 11  2  0  0  0  0
  5  7  1  0  0  0  0
  5 13  1  0  0  0  0
  6  7  1  0  0  0  0
  6  8  1  0  0  0  0
  7  9  2  0  0  0  0
  8 10  2  0  0  0  0
  9 11  1  0  0  0  0
  9 12  1  0  0  0  0
 10 14  1  0  0  0  0
 10 11  1  0  0  0  0
 12 13  2  0  0  0  0
 14 15  1  0  0  0  0
 15 16  2  0  0  0  0
 16 17  1  0  0  0  0
M  END
