362639
 OpenBabel03021519512D

 28 30  0  0  0  0  0  0  0  0999 V2000
    0.7500   -6.0601    0.0000 C   0  0  0  0  0  0  0  0  0  0  0  0
    0.7500   -7.5601    0.0000 C   0  0  0  0  0  0  0  0  0  0  0  0
    2.0490   -5.3101    0.0000 C   0  0  0  0  0  0  0  0  0  0  0  0
    2.0490   -8.3101    0.0000 C   0  0  0  0  0  0  0  0  0  0  0  0
    3.3481   -6.0601    0.0000 C   0  0  0  0  0  0  0  0  0  0  0  0
    3.3481   -7.5601    0.0000 C   0  0  0  0  0  0  0  0  0  0  0  0
    4.1924   -2.5726    0.0000 O   0  0  0  0  0  0  0  0  0  0  0  0
    3.3481  -10.5601    0.0000 O   0  0  0  0  0  0  0  0  0  0  0  0
    5.4915   -3.3226    0.0000 C   0  0  0  0  0  0  0  0  0  0  0  0
    4.6471   -8.3101    0.0000 N   0  0  0  0  0  0  0  0  0  0  0  0
    4.6471   -9.8101    0.0000 C   0  0  0  0  0  0  0  0  0  0  0  0
    5.4915   -4.8226    0.0000 C   0  0  0  0  0  0  0  0  0  0  0  0
    6.7905   -1.0726    0.0000 H   0  0  0  0  0  0  0  0  0  0  0  0
    5.9461   -7.5601    0.0000 N   0  0  0  0  0  0  0  0  0  0  0  0
    6.7905   -5.5726    0.0000 N   0  0  0  0  0  0  0  0  0  0  0  0
    6.7905   -2.5726    0.0000 N   0  0  0  0  0  0  0  0  0  0  0  0
    5.9461  -10.5601    0.0000 N   0  0  0  0  0  0  0  0  0  0  0  0
    5.9461  -12.0601    0.0000 H   0  0  0  0  0  0  0  0  0  0  0  0
    8.0896   -4.8226    0.0000 N   0  0  0  0  0  0  0  0  0  0  0  0
    7.2452   -8.3101    0.0000 C   0  0  0  0  0  0  0  0  0  0  0  0
    7.2452   -9.8101    0.0000 C   0  0  0  0  0  0  0  0  0  0  0  0
    8.0896   -3.3226    0.0000 C   0  0  0  0  0  0  0  0  0  0  0  0
    9.3886   -2.5726    0.0000 O   0  0  0  0  0  0  0  0  0  0  0  0
    8.5442  -10.5601    0.0000 O   0  0  0  0  0  0  0  0  0  0  0  0
    9.3886   -5.5726    0.0000 H   0  0  0  0  0  0  0  0  0  0  0  0
    8.5442   -7.5601    0.0000 C   0  0  0  0  0  0  0  0  0  0  0  0
    9.8433   -8.3101    0.0000 O   0  0  0  0  0  0  0  0  0  0  0  0
    8.5442   -6.0601    0.0000 O   0  0  0  0  0  0  0  0  0  0  0  0
  1  3  1  0  0  0  0
  1  2  2  0  0  0  0
  2  4  1  0  0  0  0
  3  5  2  0  0  0  0
  4  6  2  0  0  0  0
  5 12  1  0  0  0  0
  5  6  1  0  0  0  0
  6 10  1  0  0  0  0
  7  9  2  0  0  0  0
  8 11  2  0  0  0  0
  9 16  1  0  0  0  0
  9 12  1  0  0  0  0
 10 14  1  0  0  0  0
 10 11  1  0  0  0  0
 11 17  1  0  0  0  0
 12 15  2  0  0  0  0
 13 16  1  0  0  0  0
 14 20  2  0  0  0  0
 15 19  1  0  0  0  0
 16 22  1  0  0  0  0
 17 21  1  0  0  0  0
 17 18  1  0  0  0  0
 19 22  1  0  0  0  0
 19 25  1  0  0  0  0
 20 21  1  0  0  0  0
 20 26  1  0  0  0  0
 21 24  2  0  0  0  0
 22 23  2  0  0  0  0
 26 27  2  0  0  0  0
 26 28  1  0  0  0  0
M  END
