150954
 OpenBabel03021519512D

 16 17  0  0  0  0  0  0  0  0999 V2000
   -2.3236   -7.0245    0.0000 S   0  0  0  0  0  0  0  0  0  0  0  0
   -1.0245   -9.2745    0.0000 N   0  0  0  0  0  0  0  0  0  0  0  0
    1.5736   -3.2745    0.0000 C   0  0  0  0  0  0  0  0  0  0  0  0
    1.5736   -4.7745    0.0000 C   0  0  0  0  0  0  0  0  0  0  0  0
    2.8726   -2.5245    0.0000 C   0  0  0  0  0  0  0  0  0  0  0  0
    4.1716   -3.2745    0.0000 C   0  0  0  0  0  0  0  0  0  0  0  0
    2.8726   -5.5245    0.0000 C   0  0  0  0  0  0  0  0  0  0  0  0
    4.1716   -4.7745    0.0000 C   0  0  0  0  0  0  0  0  0  0  0  0
   -1.0245   -7.7745    0.0000 C   0  0  0  0  0  0  0  0  0  0  0  0
   -3.6226   -7.7745    0.0000 C   0  0  0  0  0  0  0  0  0  0  0  0
   -3.6226   -9.2745    0.0000 C   0  0  0  0  0  0  0  0  0  0  0  0
   -2.3236  -10.0245    0.0000 C   0  0  0  0  0  0  0  0  0  0  0  0
   -3.2877  -11.1736    0.0000 C   0  0  0  0  0  0  0  0  0  0  0  0
   -1.3594  -11.1736    0.0000 C   0  0  0  0  0  0  0  0  0  0  0  0
    0.2745   -7.0245    0.0000 C   0  0  0  0  0  0  0  0  0  0  0  0
    0.2745   -5.5245    0.0000 C   0  0  0  0  0  0  0  0  0  0  0  0
  1  9  1  0  0  0  0
  1 10  1  0  0  0  0
  2  9  2  0  0  0  0
  2 12  1  0  0  0  0
  3  5  2  0  0  0  0
  3  4  1  0  0  0  0
  4  7  2  0  0  0  0
  4 16  1  0  0  0  0
  5  6  1  0  0  0  0
  6  8  2  0  0  0  0
  7  8  1  0  0  0  0
  9 15  1  0  0  0  0
 10 11  1  0  0  0  0
 11 12  1  0  0  0  0
 12 13  1  0  0  0  0
 12 14  1  0  0  0  0
 15 16  2  0  0  0  0
M  END
