98683
 OpenBabel03021519512D

 17 18  0  0  0  0  0  0  0  0999 V2000
    3.5230   -1.6020    0.0000 O   0  0  0  0  0  0  0  0  0  0  0  0
    3.5230   -4.6020    0.0000 H   0  0  0  0  0  0  0  0  0  0  0  0
    4.8220   -3.8520    0.0000 N   0  0  0  0  0  0  0  0  0  0  0  0
    6.1211   -6.1020    0.0000 O   0  0  0  0  0  0  0  0  0  0  0  0
    7.4201   -3.8520    0.0000 N   0  0  0  0  0  0  0  0  0  0  0  0
    9.3102   -0.4619    0.0000 H   0  0  0  0  0  0  0  0  0  0  0  0
    8.8467   -1.8884    0.0000 N   0  0  0  0  0  0  0  0  0  0  0  0
    9.7284   -3.1020    0.0000 N   0  0  0  0  0  0  0  0  0  0  0  0
    6.1211   -1.6020    0.0000 C   0  0  0  0  0  0  0  0  0  0  0  0
    7.4201   -2.3520    0.0000 C   0  0  0  0  0  0  0  0  0  0  0  0
    4.8220   -2.3520    0.0000 C   0  0  0  0  0  0  0  0  0  0  0  0
    8.8467   -4.3155    0.0000 C   0  0  0  0  0  0  0  0  0  0  0  0
    6.1211   -4.6020    0.0000 C   0  0  0  0  0  0  0  0  0  0  0  0
    6.1211   -0.1020    0.0000 N   0  3  0  0  0  0  0  0  0  0  0  0
    4.8220    0.6480    0.0000 O   0  5  0  0  0  0  0  0  0  0  0  0
    7.4201    0.6480    0.0000 O   0  0  0  0  0  0  0  0  0  0  0  0
    9.3102   -5.7421    0.0000 C   0  0  0  0  0  0  0  0  0  0  0  0
  1 11  2  0  0  0  0
  2  3  1  0  0  0  0
  3 11  1  0  0  0  0
  3 13  1  0  0  0  0
  4 13  2  0  0  0  0
  5 10  1  0  0  0  0
  5 12  1  0  0  0  0
  5 13  1  0  0  0  0
  6  7  1  0  0  0  0
  7  8  1  0  0  0  0
  7 10  1  0  0  0  0
  8 12  2  0  0  0  0
  9 10  2  0  0  0  0
  9 11  1  0  0  0  0
  9 14  1  0  0  0  0
 12 17  1  0  0  0  0
 14 15  1  0  0  0  0
 14 16  2  0  0  0  0
M  CHG  2  14   1  15  -1
M  END
