126837
 OpenBabel03021519512D

 27 28  0  0  0  0  0  0  0  0999 V2000
   -5.6250   -7.3457    0.0000 O   0  0  0  0  0  0  0  0  0  0  0  0
    0.3750   -7.3457    0.0000 O   0  0  0  0  0  0  0  0  0  0  0  0
   -1.1250   -4.7476    0.0000 C   0  0  0  0  0  0  0  0  0  0  0  0
   -1.8750   -3.4486    0.0000 C   0  0  0  0  0  0  0  0  0  0  0  0
    0.3750   -4.7476    0.0000 C   0  0  0  0  0  0  0  0  0  0  0  0
   -1.1250   -2.1495    0.0000 C   0  0  0  0  0  0  0  0  0  0  0  0
    1.1250   -3.4486    0.0000 C   0  0  0  0  0  0  0  0  0  0  0  0
    0.3750   -2.1495    0.0000 C   0  0  0  0  0  0  0  0  0  0  0  0
   -9.0305   -9.3834    0.0000 C   0  0  0  0  0  0  0  0  0  0  0  0
   -9.9947  -10.5324    0.0000 C   0  0  0  0  0  0  0  0  0  0  0  0
   -9.5436   -7.9738    0.0000 C   0  0  0  0  0  0  0  0  0  0  0  0
  -11.0208   -7.7134    0.0000 C   0  0  0  0  0  0  0  0  0  0  0  0
  -11.4719  -10.2720    0.0000 C   0  0  0  0  0  0  0  0  0  0  0  0
  -11.9850   -8.8624    0.0000 C   0  0  0  0  0  0  0  0  0  0  0  0
  -12.4361  -11.4210    0.0000 C   0  0  0  0  0  0  0  0  0  0  0  0
   -8.5794   -6.8248    0.0000 S   0  0  0  0  0  0  0  0  0  0  0  0
   -9.7285   -5.8606    0.0000 O   0  0  0  0  0  0  0  0  0  0  0  0
   -7.4303   -7.7889    0.0000 O   0  0  0  0  0  0  0  0  0  0  0  0
   -7.6152   -5.6757    0.0000 C   0  0  0  0  0  0  0  0  0  0  0  0
   -6.1380   -5.9362    0.0000 C   0  0  0  0  0  0  0  0  0  0  0  0
   -4.1250   -7.3457    0.0000 C   0  0  0  0  0  0  0  0  0  0  0  0
   -3.3750   -6.0467    0.0000 O   0  0  0  0  0  0  0  0  0  0  0  0
   -3.3750   -8.6447    0.0000 C   0  0  0  0  0  0  0  0  0  0  0  0
   -1.8750   -8.6447    0.0000 N   0  0  0  0  0  0  0  0  0  0  0  0
   -1.1250   -7.3457    0.0000 C   0  0  0  0  0  0  0  0  0  0  0  0
   -1.8750   -6.0466    0.0000 O   0  0  0  0  0  0  0  0  0  0  0  0
    1.1250   -6.0466    0.0000 C   0  0  0  0  0  0  0  0  0  0  0  0
  1 20  1  0  0  0  0
  1 21  1  0  0  0  0
  2 25  1  0  0  0  0
  2 27  1  0  0  0  0
  3  4  2  0  0  0  0
  3  5  1  0  0  0  0
  4  6  1  0  0  0  0
  5  7  2  0  0  0  0
  5 27  1  0  0  0  0
  6  8  2  0  0  0  0
  7  8  1  0  0  0  0
  9 10  2  0  0  0  0
  9 11  1  0  0  0  0
 10 13  1  0  0  0  0
 11 12  2  0  0  0  0
 11 16  1  0  0  0  0
 12 14  1  0  0  0  0
 13 14  2  0  0  0  0
 13 15  1  0  0  0  0
 16 17  2  0  0  0  0
 16 18  2  0  0  0  0
 16 19  1  0  0  0  0
 19 20  1  0  0  0  0
 21 22  2  0  0  0  0
 21 23  1  0  0  0  0
 23 24  1  0  0  0  0
 24 25  1  0  0  0  0
 25 26  2  0  0  0  0
M  END
