142446
 OpenBabel03021519512D

 25 28  0  0  0  0  0  0  0  0999 V2000
   -8.9481    6.6864    0.0000 N   0  0  0  0  0  0  0  0  0  0  0  0
   -9.4882    1.7181    0.0000 N   0  0  0  0  0  0  0  0  0  0  0  0
   -7.0173    2.5209    0.0000 N   0  0  0  0  0  0  0  0  0  0  0  0
  -10.0284   -0.8233    0.0000 Cl  0  0  0  0  0  0  0  0  0  0  0  0
   -7.5575   -0.0204    0.0000 N   0  0  0  0  0  0  0  0  0  0  0  0
   -7.5575   10.9662    0.0000 C   0  0  0  0  0  0  0  0  0  0  0  0
   -9.0247   10.6543    0.0000 C   0  0  0  0  0  0  0  0  0  0  0  0
   -6.5538    9.8515    0.0000 C   0  0  0  0  0  0  0  0  0  0  0  0
   -7.0173    8.4249    0.0000 C   0  0  0  0  0  0  0  0  0  0  0  0
   -9.4882    9.2277    0.0000 C   0  0  0  0  0  0  0  0  0  0  0  0
   -8.4845    8.1130    0.0000 C   0  0  0  0  0  0  0  0  0  0  0  0
  -11.6737    6.9729    0.0000 C   0  0  0  0  0  0  0  0  0  0  0  0
  -12.9727    6.2229    0.0000 C   0  0  0  0  0  0  0  0  0  0  0  0
  -10.3746    6.2229    0.0000 C   0  0  0  0  0  0  0  0  0  0  0  0
  -10.3746    4.7229    0.0000 C   0  0  0  0  0  0  0  0  0  0  0  0
  -12.9727    4.7229    0.0000 C   0  0  0  0  0  0  0  0  0  0  0  0
  -11.6737    3.9729    0.0000 C   0  0  0  0  0  0  0  0  0  0  0  0
   -8.9480    4.2594    0.0000 C   0  0  0  0  0  0  0  0  0  0  0  0
   -8.0664    5.4729    0.0000 C   0  0  0  0  0  0  0  0  0  0  0  0
   -8.4845    2.8328    0.0000 C   0  0  0  0  0  0  0  0  0  0  0  0
   -6.5538    1.0943    0.0000 C   0  0  0  0  0  0  0  0  0  0  0  0
   -9.0247    0.2915    0.0000 C   0  0  0  0  0  0  0  0  0  0  0  0
   -5.0865    0.7825    0.0000 N   0  0  0  0  0  0  0  0  0  0  0  0
   -4.6230   -0.6441    0.0000 C   0  0  0  0  0  0  0  0  0  0  0  0
   -3.1558   -0.9560    0.0000 C   0  0  0  0  0  0  0  0  0  0  0  0
  1 11  1  0  0  0  0
  1 14  1  0  0  0  0
  1 19  1  0  0  0  0
  2 20  2  0  0  0  0
  2 22  1  0  0  0  0
  3 21  2  0  0  0  0
  3 20  1  0  0  0  0
  4 22  1  0  0  0  0
  5 22  2  0  0  0  0
  5 21  1  0  0  0  0
  6  8  2  0  0  0  0
  6  7  1  0  0  0  0
  7 10  2  0  0  0  0
  8  9  1  0  0  0  0
  9 11  2  0  0  0  0
 10 11  1  0  0  0  0
 12 13  2  0  0  0  0
 12 14  1  0  0  0  0
 13 16  1  0  0  0  0
 14 15  2  0  0  0  0
 15 17  1  0  0  0  0
 15 18  1  0  0  0  0
 16 17  2  0  0  0  0
 18 19  2  0  0  0  0
 18 20  1  0  0  0  0
 21 23  1  0  0  0  0
 23 24  1  0  0  0  0
 24 25  1  0  0  0  0
M  END
