47522
 OpenBabel03021519512D

 16 17  0  0  0  0  0  0  0  0999 V2000
   -4.1716    6.2745    0.0000 Cl  0  0  0  0  0  0  0  0  0  0  0  0
   -2.8726    4.0245    0.0000 N   0  0  0  0  0  0  0  0  0  0  0  0
   -0.2745    4.0245    0.0000 N   0  0  0  0  0  0  0  0  0  0  0  0
    3.6226    7.7745    0.0000 Cl  0  0  0  0  0  0  0  0  0  0  0  0
   -0.2745    8.5245    0.0000 C   0  0  0  0  0  0  0  0  0  0  0  0
   -0.2745   10.0245    0.0000 C   0  0  0  0  0  0  0  0  0  0  0  0
    1.0245    7.7745    0.0000 C   0  0  0  0  0  0  0  0  0  0  0  0
    1.0245   10.7745    0.0000 C   0  0  0  0  0  0  0  0  0  0  0  0
    2.3236    8.5245    0.0000 C   0  0  0  0  0  0  0  0  0  0  0  0
    2.3235   10.0245    0.0000 C   0  0  0  0  0  0  0  0  0  0  0  0
   -1.5736    6.2745    0.0000 C   0  0  0  0  0  0  0  0  0  0  0  0
   -0.2745    5.5245    0.0000 C   0  0  0  0  0  0  0  0  0  0  0  0
   -2.8726    5.5245    0.0000 C   0  0  0  0  0  0  0  0  0  0  0  0
   -1.5736    3.2745    0.0000 C   0  0  0  0  0  0  0  0  0  0  0  0
   -1.5735    1.7745    0.0000 N   0  0  0  0  0  0  0  0  0  0  0  0
    1.0245    6.2745    0.0000 N   0  0  0  0  0  0  0  0  0  0  0  0
  1 13  1  0  0  0  0
  2 13  2  0  0  0  0
  2 14  1  0  0  0  0
  3 14  2  0  0  0  0
  3 12  1  0  0  0  0
  4  9  1  0  0  0  0
  5  6  2  0  0  0  0
  5  7  1  0  0  0  0
  6  8  1  0  0  0  0
  7  9  2  0  0  0  0
  7 16  1  0  0  0  0
  8 10  2  0  0  0  0
  9 10  1  0  0  0  0
 11 12  2  0  0  0  0
 11 13  1  0  0  0  0
 12 16  1  0  0  0  0
 14 15  1  0  0  0  0
M  END
