58907
 OpenBabel03021519512D

 17 18  0  0  0  0  0  0  0  0999 V2000
  -11.5593    2.8077    0.0000 N   0  0  0  0  0  0  0  0  0  0  0  0
  -10.2603    0.5577    0.0000 N   0  0  0  0  0  0  0  0  0  0  0  0
  -10.2603    5.0577    0.0000 S   0  0  0  0  0  0  0  0  0  0  0  0
  -10.2603   -0.9423    0.0000 H   0  0  0  0  0  0  0  0  0  0  0  0
   -7.5347    3.2713    0.0000 N   0  0  0  0  0  0  0  0  0  0  0  0
   -7.5347    0.8442    0.0000 N   0  0  0  0  0  0  0  0  0  0  0  0
  -10.2603    3.5577    0.0000 C   0  0  0  0  0  0  0  0  0  0  0  0
   -8.9613    2.8077    0.0000 C   0  0  0  0  0  0  0  0  0  0  0  0
   -8.9613    1.3077    0.0000 C   0  0  0  0  0  0  0  0  0  0  0  0
   -6.6530    2.0577    0.0000 C   0  0  0  0  0  0  0  0  0  0  0  0
  -11.5593    1.3077    0.0000 C   0  0  0  0  0  0  0  0  0  0  0  0
  -12.8584    0.5577    0.0000 N   0  0  0  0  0  0  0  0  0  0  0  0
   -7.0711   -0.5824    0.0000 C   0  0  0  0  0  0  0  0  0  0  0  0
   -5.6039   -0.8942    0.0000 C   0  0  0  0  0  0  0  0  0  0  0  0
   -5.1404   -2.3208    0.0000 C   0  0  0  0  0  0  0  0  0  0  0  0
   -3.6732   -2.6327    0.0000 C   0  0  0  0  0  0  0  0  0  0  0  0
   -3.2096   -4.0593    0.0000 C   0  0  0  0  0  0  0  0  0  0  0  0
  1 11  2  0  0  0  0
  1  7  1  0  0  0  0
  2  9  1  0  0  0  0
  2 11  1  0  0  0  0
  2  4  1  0  0  0  0
  3  7  2  0  0  0  0
  5 10  2  0  0  0  0
  5  8  1  0  0  0  0
  6  9  1  0  0  0  0
  6 10  1  0  0  0  0
  6 13  1  0  0  0  0
  7  8  1  0  0  0  0
  8  9  2  0  0  0  0
 11 12  1  0  0  0  0
 13 14  1  0  0  0  0
 14 15  1  0  0  0  0
 15 16  1  0  0  0  0
 16 17  1  0  0  0  0
M  END
