13294
 OpenBabel03021519512D

 28 31  0  0  1  0  0  0  0  0999 V2000
    0.8490   -6.0751    0.0000 Cl  0  0  0  0  0  0  0  0  0  0  0  0
    5.5959   -3.9616    0.0000 N   0  0  0  0  0  0  0  0  0  0  0  0
    3.9642   -6.7877    0.0000 O   0  0  0  0  0  0  0  0  0  0  0  0
    6.4597   -7.7457    0.0000 N   0  0  0  0  0  0  0  0  0  0  0  0
    8.0654  -12.6875    0.0000 Cl  0  0  0  0  0  0  0  0  0  0  0  0
   13.0262  -10.1356    0.0000 Cl  0  0  0  0  0  0  0  0  0  0  0  0
    7.6732   -5.6438    0.0000 C   0  0  0  0  0  0  0  0  0  0  0  0
    7.8300   -7.1356    0.0000 C   0  0  3  0  0  0  0  0  0  0  0  0
    6.2060   -5.3319    0.0000 C   0  0  0  0  0  0  0  0  0  0  0  0
    9.1290   -7.8856    0.0000 C   0  0  0  0  0  0  0  0  0  0  0  0
   10.4281   -7.1356    0.0000 C   0  0  0  0  0  0  0  0  0  0  0  0
   11.7271   -7.8856    0.0000 C   0  0  0  0  0  0  0  0  0  0  0  0
   11.7271   -9.3856    0.0000 C   0  0  0  0  0  0  0  0  0  0  0  0
    9.1291   -9.3856    0.0000 C   0  0  0  0  0  0  0  0  0  0  0  0
    5.4560   -6.6310    0.0000 C   0  0  0  0  0  0  0  0  0  0  0  0
   10.4281  -10.1356    0.0000 C   0  0  0  0  0  0  0  0  0  0  0  0
    3.4940   -2.4345    0.0000 C   0  0  0  0  0  0  0  0  0  0  0  0
    2.0022   -2.2777    0.0000 C   0  0  0  0  0  0  0  0  0  0  0  0
    4.1041   -3.8048    0.0000 C   0  0  0  0  0  0  0  0  0  0  0  0
    3.2224   -5.0183    0.0000 C   0  0  0  0  0  0  0  0  0  0  0  0
    1.1205   -3.4912    0.0000 C   0  0  0  0  0  0  0  0  0  0  0  0
    1.7306   -4.8615    0.0000 C   0  0  0  0  0  0  0  0  0  0  0  0
    6.1478   -9.2129    0.0000 C   0  0  0  0  0  0  0  0  0  0  0  0
    4.7212   -9.6764    0.0000 C   0  0  0  0  0  0  0  0  0  0  0  0
    7.2625  -10.2166    0.0000 C   0  0  0  0  0  0  0  0  0  0  0  0
    6.9507  -11.6838    0.0000 C   0  0  0  0  0  0  0  0  0  0  0  0
    4.4094  -11.1436    0.0000 C   0  0  0  0  0  0  0  0  0  0  0  0
    5.5241  -12.1473    0.0000 C   0  0  0  0  0  0  0  0  0  0  0  0
  1 22  1  0  0  0  0
  2  9  2  0  0  0  0
  2 19  1  0  0  0  0
  3 15  2  0  0  0  0
  4  8  1  0  0  0  0
  4 15  1  0  0  0  0
  4 23  1  0  0  0  0
  5 26  1  0  0  0  0
  6 13  1  0  0  0  0
  7  8  1  0  0  0  0
  7  9  1  0  0  0  0
  8 10  1  0  0  0  0
  9 15  1  0  0  0  0
 10 14  2  0  0  0  0
 10 11  1  0  0  0  0
 11 12  2  0  0  0  0
 12 13  1  0  0  0  0
 13 16  2  0  0  0  0
 14 16  1  0  0  0  0
 17 18  2  0  0  0  0
 17 19  1  0  0  0  0
 18 21  1  0  0  0  0
 19 20  2  0  0  0  0
 20 22  1  0  0  0  0
 21 22  2  0  0  0  0
 23 25  2  0  0  0  0
 23 24  1  0  0  0  0
 24 27  2  0  0  0  0
 25 26  1  0  0  0  0
 26 28  2  0  0  0  0
 27 28  1  0  0  0  0
M  END
