121781
 OpenBabel03021519512D

 18 19  0  0  0  0  0  0  0  0999 V2000
   -2.3096   -8.0985    0.0000 C   0  0  0  0  0  0  0  0  0  0  0  0
   -1.5596   -6.7995    0.0000 C   0  0  0  0  0  0  0  0  0  0  0  0
   -1.5596   -9.3976    0.0000 C   0  0  0  0  0  0  0  0  0  0  0  0
   -0.0596   -6.7995    0.0000 C   0  0  0  0  0  0  0  0  0  0  0  0
   -0.0596   -9.3976    0.0000 C   0  0  0  0  0  0  0  0  0  0  0  0
    0.6904   -8.0985    0.0000 C   0  0  0  0  0  0  0  0  0  0  0  0
    2.1904   -8.0985    0.0000 C   0  0  0  0  0  0  0  0  0  0  0  0
    2.9404   -9.3976    0.0000 O   0  0  0  0  0  0  0  0  0  0  0  0
    4.4404   -6.7995    0.0000 O   0  0  0  0  0  0  0  0  0  0  0  0
    2.9404   -6.7995    0.0000 C   0  0  0  0  0  0  0  0  0  0  0  0
    2.1903   -5.5005    0.0000 C   0  0  0  0  0  0  0  0  0  0  0  0
    2.9403   -4.2014    0.0000 C   0  0  0  0  0  0  0  0  0  0  0  0
    0.6903   -5.5005    0.0000 C   0  0  0  0  0  0  0  0  0  0  0  0
    2.1903   -2.9024    0.0000 C   0  0  0  0  0  0  0  0  0  0  0  0
   -0.0597   -4.2014    0.0000 C   0  0  0  0  0  0  0  0  0  0  0  0
    0.6903   -2.9024    0.0000 C   0  0  0  0  0  0  0  0  0  0  0  0
   -3.8096   -8.0985    0.0000 N   0  0  0  0  0  0  0  0  0  0  0  0
   -0.0597   -1.6033    0.0000 N   0  0  0  0  0  0  0  0  0  0  0  0
  1  2  2  0  0  0  0
  1  3  1  0  0  0  0
  1 17  1  0  0  0  0
  2  4  1  0  0  0  0
  3  5  2  0  0  0  0
  4  6  2  0  0  0  0
  5  6  1  0  0  0  0
  6  7  1  0  0  0  0
  7 10  1  0  0  0  0
  7  8  2  0  0  0  0
  9 10  2  0  0  0  0
 10 11  1  0  0  0  0
 11 13  2  0  0  0  0
 11 12  1  0  0  0  0
 12 14  2  0  0  0  0
 13 15  1  0  0  0  0
 14 16  1  0  0  0  0
 15 16  2  0  0  0  0
 16 18  1  0  0  0  0
M  END
