275266
 OpenBabel03021519512D

 28 30  0  0  1  0  0  0  0  0999 V2000
    5.6846    3.5840    0.0000 H   0  0  0  0  0  0  0  0  0  0  0  0
    5.6846    0.5840    0.0000 O   0  0  0  0  0  0  0  0  0  0  0  0
    6.9836    2.8340    0.0000 N   0  0  0  0  0  0  0  0  0  0  0  0
    6.9836    1.3340    0.0000 C   0  0  0  0  0  0  0  0  0  0  0  0
    8.2827    3.5840    0.0000 C   0  0  0  0  0  0  0  0  0  0  0  0
    8.2827    5.0840    0.0000 O   0  0  0  0  0  0  0  0  0  0  0  0
    8.2827    0.5840    0.0000 C   0  0  0  0  0  0  0  0  0  0  0  0
    9.5817    2.8340    0.0000 C   0  0  0  0  0  0  0  0  0  0  0  0
    9.5817    1.3340    0.0000 C   0  0  0  0  0  0  0  0  0  0  0  0
   10.8808    0.5840    0.0000 N   0  0  0  0  0  0  0  0  0  0  0  0
   10.8808    3.5840    0.0000 C   0  0  0  0  0  0  0  0  0  0  0  0
   12.1798    1.3341    0.0000 C   0  0  0  0  0  0  0  0  0  0  0  0
   12.1798    2.8341    0.0000 C   0  0  0  0  0  0  0  0  0  0  0  0
   13.4788    0.5841    0.0000 C   0  0  0  0  0  0  0  0  0  0  0  0
   13.4788    3.5841    0.0000 C   0  0  0  0  0  0  0  0  0  0  0  0
   14.7779    1.3341    0.0000 C   0  0  0  0  0  0  0  0  0  0  0  0
   14.7779    2.8341    0.0000 C   0  0  0  0  0  0  0  0  0  0  0  0
    9.5817   -3.1660    0.0000 C   0  0  0  0  0  0  0  0  0  0  0  0
   12.1798   -1.6660    0.0000 C   0  0  3  0  0  0  0  0  0  0  0  0
   12.1798   -3.1660    0.0000 C   0  0  3  0  0  0  0  0  0  0  0  0
   10.8808   -3.9160    0.0000 C   0  0  3  0  0  0  0  0  0  0  0  0
   10.8808   -0.9160    0.0000 C   0  0  0  0  0  0  0  0  0  0  0  0
   13.4789   -0.9159    0.0000 O   0  0  0  0  0  0  0  0  0  0  0  0
   13.4789   -3.9159    0.0000 O   0  0  0  0  0  0  0  0  0  0  0  0
   10.8808   -5.4160    0.0000 O   0  0  0  0  0  0  0  0  0  0  0  0
    8.2827   -3.9160    0.0000 O   0  0  0  0  0  0  0  0  0  0  0  0
   16.0769    0.5841    0.0000 C   0  0  0  0  0  0  0  0  0  0  0  0
   16.0769    3.5841    0.0000 C   0  0  0  0  0  0  0  0  0  0  0  0
  1  3  1  0  0  0  0
  2  4  2  0  0  0  0
  3  5  1  0  0  0  0
  3  4  1  0  0  0  0
  4  7  1  0  0  0  0
  5  6  2  0  0  0  0
  5  8  1  0  0  0  0
  7  9  2  0  0  0  0
  8 11  2  0  0  0  0
  8  9  1  0  0  0  0
  9 10  1  0  0  0  0
 10 12  1  0  0  0  0
 10 22  1  0  0  0  0
 11 13  1  0  0  0  0
 12 13  2  0  0  0  0
 12 14  1  0  0  0  0
 13 15  1  0  0  0  0
 14 16  2  0  0  0  0
 15 17  2  0  0  0  0
 16 17  1  0  0  0  0
 16 27  1  0  0  0  0
 17 28  1  0  0  0  0
 18 21  1  0  0  0  0
 18 26  1  0  0  0  0
 19 20  1  0  0  0  0
 19 22  1  0  0  0  0
 19 23  1  0  0  0  0
 20 21  1  0  0  0  0
 20 24  1  0  0  0  0
 21 25  1  0  0  0  0
M  END
