81213
 OpenBabel03021519512D

 14 14  0  0  0  0  0  0  0  0999 V2000
   -6.0197   -6.0736    0.0000 Cl  0  0  0  0  0  0  0  0  0  0  0  0
   -3.4216   -3.0736    0.0000 C   0  0  0  0  0  0  0  0  0  0  0  0
   -4.7207   -3.8236    0.0000 C   0  0  0  0  0  0  0  0  0  0  0  0
   -2.1226   -3.8236    0.0000 C   0  0  0  0  0  0  0  0  0  0  0  0
   -2.1226   -5.3236    0.0000 C   0  0  0  0  0  0  0  0  0  0  0  0
   -4.7207   -5.3236    0.0000 C   0  0  0  0  0  0  0  0  0  0  0  0
   -3.4216   -6.0736    0.0000 C   0  0  0  0  0  0  0  0  0  0  0  0
   -0.8236   -3.0736    0.0000 S   0  0  0  0  0  0  0  0  0  0  0  0
   -1.5736   -1.7745    0.0000 O   0  0  0  0  0  0  0  0  0  0  0  0
   -0.0735   -4.3726    0.0000 O   0  0  0  0  0  0  0  0  0  0  0  0
    0.4755   -2.3236    0.0000 N   0  0  0  0  0  0  0  0  0  0  0  0
   -0.8235   -6.0736    0.0000 N   0  3  0  0  0  0  0  0  0  0  0  0
    0.4755   -5.3236    0.0000 O   0  5  0  0  0  0  0  0  0  0  0  0
   -0.8235   -7.5736    0.0000 O   0  0  0  0  0  0  0  0  0  0  0  0
  1  6  1  0  0  0  0
  2  3  2  0  0  0  0
  2  4  1  0  0  0  0
  3  6  1  0  0  0  0
  4  5  2  0  0  0  0
  4  8  1  0  0  0  0
  5  7  1  0  0  0  0
  5 12  1  0  0  0  0
  6  7  2  0  0  0  0
  8  9  2  0  0  0  0
  8 10  2  0  0  0  0
  8 11  1  0  0  0  0
 12 13  1  0  0  0  0
 12 14  2  0  0  0  0
M  CHG  2  12   1  13  -1
M  END
