193043
 OpenBabel03021519512D

 15 17  0  0  0  0  0  0  0  0999 V2000
    0.7500    1.9906    0.0000 Cl  0  0  0  0  0  0  0  0  0  0  0  0
    3.3481    1.9906    0.0000 N   0  0  0  0  0  0  0  0  0  0  0  0
    4.6471    2.7406    0.0000 N   0  0  0  0  0  0  0  0  0  0  0  0
    6.6838    0.9068    0.0000 N   0  0  0  0  0  0  0  0  0  0  0  0
    8.1756    0.7500    0.0000 N   0  0  0  0  0  0  0  0  0  0  0  0
    8.4472    3.3338    0.0000 C   0  0  0  0  0  0  0  0  0  0  0  0
    9.0573    1.9635    0.0000 C   0  0  0  0  0  0  0  0  0  0  0  0
    6.9554    3.4906    0.0000 C   0  0  0  0  0  0  0  0  0  0  0  0
    6.0737    4.7042    0.0000 C   0  0  0  0  0  0  0  0  0  0  0  0
    4.6471    4.2406    0.0000 C   0  0  0  0  0  0  0  0  0  0  0  0
    3.3481    4.9906    0.0000 C   0  0  0  0  0  0  0  0  0  0  0  0
    2.0490    4.2406    0.0000 C   0  0  0  0  0  0  0  0  0  0  0  0
    6.0737    2.2771    0.0000 C   0  0  0  0  0  0  0  0  0  0  0  0
    2.0490    2.7406    0.0000 C   0  0  0  0  0  0  0  0  0  0  0  0
   10.5491    1.8067    0.0000 C   0  0  0  0  0  0  0  0  0  0  0  0
  1 14  1  0  0  0  0
  2 14  2  0  0  0  0
  2  3  1  0  0  0  0
  3 10  1  0  0  0  0
  3 13  1  0  0  0  0
  4  5  2  0  0  0  0
  4 13  1  0  0  0  0
  5  7  1  0  0  0  0
  6  7  2  0  0  0  0
  6  8  1  0  0  0  0
  7 15  1  0  0  0  0
  8 13  2  0  0  0  0
  8  9  1  0  0  0  0
  9 10  2  0  0  0  0
 10 11  1  0  0  0  0
 11 12  1  0  0  0  0
 12 14  1  0  0  0  0
M  END
