2561
 OpenBabel03021519512D

 17 18  0  0  1  0  0  0  0  0999 V2000
   -4.6471    4.5000    0.0000 O   0  0  0  0  0  0  0  0  0  0  0  0
   -4.6471    3.0000    0.0000 C   0  0  0  0  0  0  0  0  0  0  0  0
   -3.3481    2.2500    0.0000 C   0  0  3  0  0  0  0  0  0  0  0  0
   -2.0490    3.0000    0.0000 C   0  0  3  0  0  0  0  0  0  0  0  0
   -2.0490    4.5000    0.0000 C   0  0  3  0  0  0  0  0  0  0  0  0
   -3.3481    5.2500    0.0000 C   0  0  3  0  0  0  0  0  0  0  0  0
   -3.3481    0.7500    0.0000 O   0  0  0  0  0  0  0  0  0  0  0  0
   -0.7500    2.2500    0.0000 O   0  0  0  0  0  0  0  0  0  0  0  0
   -3.3481    3.7500    0.0000 O   0  0  0  0  0  0  0  0  0  0  0  0
   -3.3481    6.7500    0.0000 O   0  0  0  0  0  0  0  0  0  0  0  0
   -4.6471    7.5000    0.0000 C   0  0  0  0  0  0  0  0  0  0  0  0
   -4.6471    9.0000    0.0000 C   0  0  0  0  0  0  0  0  0  0  0  0
   -5.9462    9.7500    0.0000 C   0  0  0  0  0  0  0  0  0  0  0  0
   -5.9462   11.2500    0.0000 C   0  0  0  0  0  0  0  0  0  0  0  0
   -4.6471   12.0000    0.0000 C   0  0  0  0  0  0  0  0  0  0  0  0
   -3.3481   11.2500    0.0000 C   0  0  0  0  0  0  0  0  0  0  0  0
   -3.3481    9.7500    0.0000 C   0  0  0  0  0  0  0  0  0  0  0  0
  1  2  1  0  0  0  0
  1  6  1  0  0  0  0
  2  3  1  0  0  0  0
  3  4  1  0  0  0  0
  3  7  1  0  0  0  0
  4  5  1  0  0  0  0
  4  8  1  0  0  0  0
  5  6  1  0  0  0  0
  5  9  1  0  0  0  0
  6 10  1  0  0  0  0
 10 11  1  0  0  0  0
 11 12  1  0  0  0  0
 12 13  2  0  0  0  0
 12 17  1  0  0  0  0
 13 14  1  0  0  0  0
 14 15  2  0  0  0  0
 15 16  1  0  0  0  0
 16 17  2  0  0  0  0
M  END
