76350
 OpenBabel03021519512D

 29 31  0  0  1  0  0  0  0  0999 V2000
   -9.6927    3.6646    0.0000 O   0  0  0  0  0  0  0  0  0  0  0  0
   -9.2745    1.0245    0.0000 N   0  0  0  0  0  0  0  0  0  0  0  0
   -9.6927   -1.6156    0.0000 O   0  0  0  0  0  0  0  0  0  0  0  0
  -10.1562    2.2380    0.0000 C   0  0  0  0  0  0  0  0  0  0  0  0
  -11.5828    1.7745    0.0000 C   0  0  0  0  0  0  0  0  0  0  0  0
  -12.8818    2.5245    0.0000 C   0  0  0  0  0  0  0  0  0  0  0  0
  -14.1809    1.7745    0.0000 C   0  0  0  0  0  0  0  0  0  0  0  0
  -11.5828    0.2745    0.0000 C   0  0  0  0  0  0  0  0  0  0  0  0
  -14.1809    0.2745    0.0000 C   0  0  0  0  0  0  0  0  0  0  0  0
  -10.1562   -0.1890    0.0000 C   0  0  0  0  0  0  0  0  0  0  0  0
  -12.8818   -0.4755    0.0000 C   0  0  0  0  0  0  0  0  0  0  0  0
   -4.7745    1.0245    0.0000 C   0  0  0  0  0  0  0  0  0  0  0  0
   -3.2745    1.0245    0.0000 C   0  0  0  0  0  0  0  0  0  0  0  0
   -5.5245   -0.2745    0.0000 C   0  0  0  0  0  0  0  0  0  0  0  0
   -2.5245   -0.2745    0.0000 C   0  0  0  0  0  0  0  0  0  0  0  0
   -4.7745   -1.5736    0.0000 C   0  0  0  0  0  0  0  0  0  0  0  0
   -3.2745   -1.5736    0.0000 C   0  0  0  0  0  0  0  0  0  0  0  0
   -7.7745    1.0245    0.0000 C   0  0  3  0  0  0  0  0  0  0  0  0
   -7.0245    2.3235    0.0000 C   0  0  0  0  0  0  0  0  0  0  0  0
   -5.5245    2.3236    0.0000 O   0  0  0  0  0  0  0  0  0  0  0  0
   -7.7745    3.6226    0.0000 O   0  0  0  0  0  0  0  0  0  0  0  0
   -7.0245   -0.2745    0.0000 C   0  0  0  0  0  0  0  0  0  0  0  0
   -5.5245   -2.8726    0.0000 N   0  0  0  0  0  0  0  0  0  0  0  0
   -7.0245   -2.8726    0.0000 C   0  0  0  0  0  0  0  0  0  0  0  0
   -7.7745   -4.1716    0.0000 C   0  0  0  0  0  0  0  0  0  0  0  0
   -9.2745   -4.1717    0.0000 O   0  0  0  0  0  0  0  0  0  0  0  0
   -4.7745   -6.7697    0.0000 O   0  0  0  0  0  0  0  0  0  0  0  0
   -5.5245   -5.4707    0.0000 C   0  0  0  0  0  0  0  0  0  0  0  0
   -4.7745   -4.1716    0.0000 C   0  0  0  0  0  0  0  0  0  0  0  0
  1  4  2  0  0  0  0
  2  4  1  0  0  0  0
  2 10  1  0  0  0  0
  2 18  1  0  0  0  0
  3 10  2  0  0  0  0
  4  5  1  0  0  0  0
  5  8  2  0  0  0  0
  5  6  1  0  0  0  0
  6  7  2  0  0  0  0
  7  9  1  0  0  0  0
  8 10  1  0  0  0  0
  8 11  1  0  0  0  0
  9 11  2  0  0  0  0
 12 13  2  0  0  0  0
 12 14  1  0  0  0  0
 13 15  1  0  0  0  0
 14 16  2  0  0  0  0
 14 22  1  0  0  0  0
 15 17  2  0  0  0  0
 16 17  1  0  0  0  0
 16 23  1  0  0  0  0
 18 19  1  0  0  0  0
 18 22  1  0  0  0  0
 19 20  2  0  0  0  0
 19 21  1  0  0  0  0
 23 24  1  0  0  0  0
 23 29  1  0  0  0  0
 24 25  1  0  0  0  0
 25 26  1  0  0  0  0
 27 28  1  0  0  0  0
 28 29  1  0  0  0  0
M  END
