101345
 OpenBabel03021519512D

 20 21  0  0  0  0  0  0  0  0999 V2000
   -0.6683    5.1708    0.0000 N   0  0  0  0  0  0  0  0  0  0  0  0
   -2.4357    3.5075    0.0000 N   0  0  0  0  0  0  0  0  0  0  0  0
   -3.7923    2.8674    0.0000 H   0  0  0  0  0  0  0  0  0  0  0  0
   -0.6754    1.3538    0.0000 N   0  0  0  0  0  0  0  0  0  0  0  0
   -0.0281    3.8142    0.0000 C   0  0  0  0  0  0  0  0  0  0  0  0
   -1.1205    2.7862    0.0000 C   0  0  0  0  0  0  0  0  0  0  0  0
    3.1409   -2.1726    0.0000 C   0  0  0  0  0  0  0  0  0  0  0  0
    4.6040   -2.5034    0.0000 C   0  0  0  0  0  0  0  0  0  0  0  0
    2.6958   -0.7402    0.0000 C   0  0  0  0  0  0  0  0  0  0  0  0
    5.6220   -1.4017    0.0000 C   0  0  0  0  0  0  0  0  0  0  0  0
    3.7138    0.3615    0.0000 C   0  0  0  0  0  0  0  0  0  0  0  0
    5.1769    0.0307    0.0000 C   0  0  0  0  0  0  0  0  0  0  0  0
   -2.1562    4.9812    0.0000 C   0  0  0  0  0  0  0  0  0  0  0  0
    1.4456    3.5347    0.0000 C   0  0  0  0  0  0  0  0  0  0  0  0
    2.4245    4.6713    0.0000 O   0  0  0  0  0  0  0  0  0  0  0  0
    1.9404    2.1187    0.0000 N   0  0  0  0  0  0  0  0  0  0  0  0
    0.9615    0.9821    0.0000 N   0  0  0  0  0  0  0  0  0  0  0  0
    0.7877    1.0230    0.0000 N   0  0  0  0  0  0  0  0  0  0  0  0
    1.2328   -0.4094    0.0000 N   0  0  0  0  0  0  0  0  0  0  0  0
    0.2148   -1.5111    0.0000 C   0  0  0  0  0  0  0  0  0  0  0  0
  1 13  2  0  0  0  0
  1  5  1  0  0  0  0
  2  6  1  0  0  0  0
  2 13  1  0  0  0  0
  2  3  1  0  0  0  0
  4  6  1  0  0  0  0
  4 18  2  0  0  0  0
  5  6  2  0  0  0  0
  5 14  1  0  0  0  0
  7  8  1  0  0  0  0
  7  9  1  0  0  0  0
  8 10  1  0  0  0  0
  9 11  1  0  0  0  0
  9 19  1  0  0  0  0
 10 12  1  0  0  0  0
 11 12  1  0  0  0  0
 14 15  2  0  0  0  0
 14 16  1  0  0  0  0
 16 17  1  0  0  0  0
 18 19  1  0  0  0  0
 19 20  1  0  0  0  0
M  END
