50405
 OpenBabel03021519512D

 10 10  0  0  0  0  0  0  0  0999 V2000
    3.5262    0.7500    0.0000 S   0  0  0  0  0  0  0  0  0  0  0  0
    3.5263    3.7500    0.0000 C   0  0  0  0  0  0  0  0  0  0  0  0
    4.8253    1.5000    0.0000 C   0  0  0  0  0  0  0  0  0  0  0  0
    2.2272    1.5000    0.0000 C   0  0  0  0  0  0  0  0  0  0  0  0
    2.2272    3.0000    0.0000 S   0  0  0  0  0  0  0  0  0  0  0  0
    1.7142    4.4095    0.0000 O   0  0  0  0  0  0  0  0  0  0  0  0
    0.7500    2.7395    0.0000 O   0  0  0  0  0  0  0  0  0  0  0  0
    4.8253    3.0000    0.0000 S   0  0  0  0  0  0  0  0  0  0  0  0
    5.3383    4.4095    0.0000 O   0  0  0  0  0  0  0  0  0  0  0  0
    6.3025    2.7395    0.0000 O   0  0  0  0  0  0  0  0  0  0  0  0
  1  3  1  0  0  0  0
  1  4  1  0  0  0  0
  2  5  1  0  0  0  0
  2  8  1  0  0  0  0
  3  8  1  0  0  0  0
  4  5  1  0  0  0  0
  5  6  2  0  0  0  0
  5  7  2  0  0  0  0
  8  9  2  0  0  0  0
  8 10  2  0  0  0  0
M  END
