78999
 OpenBabel03021519512D

 12 12  0  0  0  0  0  0  0  0999 V2000
    5.2380    0.5579    0.0000 C   0  0  0  0  0  0  0  0  0  0  0  0
    3.4344    2.1819    0.0000 C   0  0  0  0  0  0  0  0  0  0  0  0
    4.7334    2.9319    0.0000 N   0  0  0  0  0  0  0  0  0  0  0  0
    3.7462    0.7147    0.0000 N   0  0  0  0  0  0  0  0  0  0  0  0
    5.8481    1.9282    0.0000 N   0  0  0  0  0  0  0  0  0  0  0  0
    2.7425   -0.4001    0.0000 H   0  0  0  0  0  0  0  0  0  0  0  0
    5.9880   -0.7412    0.0000 S   0  0  0  0  0  0  0  0  0  0  0  0
    8.2380    0.5579    0.0000 C   0  0  0  0  0  0  0  0  0  0  0  0
    7.4880    1.8569    0.0000 O   0  0  0  0  0  0  0  0  0  0  0  0
    2.0640    2.7920    0.0000 C   0  0  0  0  0  0  0  0  0  0  0  0
    7.4880   -0.7412    0.0000 C   0  0  0  0  0  0  0  0  0  0  0  0
    9.7380    0.5579    0.0000 O   0  0  0  0  0  0  0  0  0  0  0  0
  1  7  1  0  0  0  0
  1  5  2  0  0  0  0
  1  4  1  0  0  0  0
  2  3  2  0  0  0  0
  2  4  1  0  0  0  0
  2 10  1  0  0  0  0
  3  5  1  0  0  0  0
  4  6  1  0  0  0  0
  7 11  1  0  0  0  0
  8  9  2  0  0  0  0
  8 11  1  0  0  0  0
  8 12  1  0  0  0  0
M  END
