76747
 OpenBabel03021519512D

 22 25  0  0  0  0  0  0  0  0999 V2000
    4.2586    5.0780    0.0000 H   0  0  0  0  0  0  0  0  0  0  0  0
    2.9202    4.4007    0.0000 N   0  0  0  0  0  0  0  0  0  0  0  0
    1.9495   -2.2516    0.0000 N   0  0  0  0  0  0  0  0  0  0  0  0
    4.6576   -1.8305    0.0000 C   0  0  0  0  0  0  0  0  0  0  0  0
    5.7212   -0.7728    0.0000 C   0  0  0  0  0  0  0  0  0  0  0  0
    3.2098   -1.4382    0.0000 C   0  0  0  0  0  0  0  0  0  0  0  0
    5.3370    0.6772    0.0000 C   0  0  0  0  0  0  0  0  0  0  0  0
    2.8256    0.0118    0.0000 C   0  0  0  0  0  0  0  0  0  0  0  0
    3.8892    1.0694    0.0000 C   0  0  0  0  0  0  0  0  0  0  0  0
    1.3279    0.0945    0.0000 C   0  0  0  0  0  0  0  0  0  0  0  0
    0.7864   -1.3044    0.0000 C   0  0  0  0  0  0  0  0  0  0  0  0
    1.2014    6.5354    0.0000 C   0  0  0  0  0  0  0  0  0  0  0  0
    1.5856    5.0854    0.0000 C   0  0  0  0  0  0  0  0  0  0  0  0
   -0.2464    6.9277    0.0000 C   0  0  0  0  0  0  0  0  0  0  0  0
    0.5219    4.0277    0.0000 C   0  0  0  0  0  0  0  0  0  0  0  0
   -1.3100    5.8700    0.0000 C   0  0  0  0  0  0  0  0  0  0  0  0
   -0.9259    4.4200    0.0000 C   0  0  0  0  0  0  0  0  0  0  0  0
    1.1992    2.6893    0.0000 C   0  0  0  0  0  0  0  0  0  0  0  0
    2.6814    2.9198    0.0000 C   0  0  0  0  0  0  0  0  0  0  0  0
    3.7391    1.8562    0.0000 C   0  0  0  0  0  0  0  0  0  0  0  0
    0.5145    1.3547    0.0000 C   0  0  0  0  0  0  0  0  0  0  0  0
   -0.6635   -1.6886    0.0000 C   0  0  0  0  0  0  0  0  0  0  0  0
  1  2  1  0  0  0  0
  2 13  1  0  0  0  0
  2 19  1  0  0  0  0
  3 11  2  0  0  0  0
  3  6  1  0  0  0  0
  4  5  2  0  0  0  0
  4  6  1  0  0  0  0
  5  7  1  0  0  0  0
  6  8  2  0  0  0  0
  7  9  2  0  0  0  0
  8  9  1  0  0  0  0
  8 10  1  0  0  0  0
 10 11  1  0  0  0  0
 10 21  2  0  0  0  0
 11 22  1  0  0  0  0
 12 14  2  0  0  0  0
 12 13  1  0  0  0  0
 13 15  2  0  0  0  0
 14 16  1  0  0  0  0
 15 17  1  0  0  0  0
 15 18  1  0  0  0  0
 16 17  2  0  0  0  0
 18 19  2  0  0  0  0
 18 21  1  0  0  0  0
 19 20  1  0  0  0  0
M  END
