12028
 OpenBabel03021519512D

 21 22  0  0  1  0  0  0  0  0999 V2000
   -2.8726   -5.5245    0.0000 N   0  0  0  0  0  0  0  0  0  0  0  0
   -5.4707   -5.5245    0.0000 C   0  0  0  0  0  0  0  0  0  0  0  0
   -4.1716   -6.2745    0.0000 C   0  0  0  0  0  0  0  0  0  0  0  0
   -6.7697   -6.2745    0.0000 C   0  0  0  0  0  0  0  0  0  0  0  0
   -4.1716   -7.7745    0.0000 C   0  0  0  0  0  0  0  0  0  0  0  0
   -6.7697   -7.7745    0.0000 C   0  0  0  0  0  0  0  0  0  0  0  0
   -2.8726   -8.5245    0.0000 C   0  0  0  0  0  0  0  0  0  0  0  0
   -1.5735   -6.2745    0.0000 C   0  0  0  0  0  0  0  0  0  0  0  0
   -1.5735   -7.7745    0.0000 C   0  0  0  0  0  0  0  0  0  0  0  0
   -5.4707   -8.5245    0.0000 C   0  0  0  0  0  0  0  0  0  0  0  0
   -2.8726   -4.0245    0.0000 C   0  0  0  0  0  0  0  0  0  0  0  0
   -4.1716   -3.2745    0.0000 O   0  0  0  0  0  0  0  0  0  0  0  0
   -1.5736   -3.2745    0.0000 N   0  0  0  0  0  0  0  0  0  0  0  0
   -1.5736   -1.7745    0.0000 C   0  0  0  0  0  0  0  0  0  0  0  0
   -0.2745   -1.0245    0.0000 O   0  0  0  0  0  0  0  0  0  0  0  0
   -2.8726   -1.0245    0.0000 C   0  0  3  0  0  0  0  0  0  0  0  0
   -2.8726    0.4755    0.0000 C   0  0  0  0  0  0  0  0  0  0  0  0
   -1.5736    1.2255    0.0000 C   0  0  0  0  0  0  0  0  0  0  0  0
   -4.1716   -1.7745    0.0000 C   0  0  0  0  0  0  0  0  0  0  0  0
   -5.4707   -1.0245    0.0000 C   0  0  0  0  0  0  0  0  0  0  0  0
   -5.4707    0.4755    0.0000 C   0  0  0  0  0  0  0  0  0  0  0  0
  1  3  1  0  0  0  0
  1  8  1  0  0  0  0
  1 11  1  0  0  0  0
  2  4  2  0  0  0  0
  2  3  1  0  0  0  0
  3  5  2  0  0  0  0
  4  6  1  0  0  0  0
  5  7  1  0  0  0  0
  5 10  1  0  0  0  0
  6 10  2  0  0  0  0
  7  9  1  0  0  0  0
  8  9  1  0  0  0  0
 11 12  2  0  0  0  0
 11 13  1  0  0  0  0
 13 14  1  0  0  0  0
 14 15  2  0  0  0  0
 14 16  1  0  0  0  0
 16 17  1  0  0  0  0
 16 19  1  0  0  0  0
 17 18  1  0  0  0  0
 19 20  1  0  0  0  0
 20 21  2  0  0  0  0
M  END
