40383
 OpenBabel03021519512D

 18 20  0  0  0  0  0  0  0  0999 V2000
    0.7500   -4.1401    0.0000 N   0  0  0  0  0  0  0  0  0  0  0  0
    2.0491   -1.8901    0.0000 N   0  0  0  0  0  0  0  0  0  0  0  0
    5.9462   -7.1401    0.0000 N   0  0  0  0  0  0  0  0  0  0  0  0
    4.7747   -2.1766    0.0000 N   0  0  0  0  0  0  0  0  0  0  0  0
    5.2382   -0.7500    0.0000 H   0  0  0  0  0  0  0  0  0  0  0  0
    5.6564   -3.3901    0.0000 N   0  0  0  0  0  0  0  0  0  0  0  0
    3.3481   -2.6401    0.0000 C   0  0  0  0  0  0  0  0  0  0  0  0
    3.3481   -4.1401    0.0000 C   0  0  0  0  0  0  0  0  0  0  0  0
    2.0491   -4.8901    0.0000 C   0  0  0  0  0  0  0  0  0  0  0  0
    4.7747   -4.6036    0.0000 C   0  0  0  0  0  0  0  0  0  0  0  0
    0.7500   -2.6401    0.0000 C   0  0  0  0  0  0  0  0  0  0  0  0
    3.3481   -7.1401    0.0000 C   0  0  0  0  0  0  0  0  0  0  0  0
    3.3481   -8.6401    0.0000 C   0  0  0  0  0  0  0  0  0  0  0  0
    4.6471   -6.3901    0.0000 C   0  0  0  0  0  0  0  0  0  0  0  0
    4.6472   -9.3901    0.0000 C   0  0  0  0  0  0  0  0  0  0  0  0
    5.9462   -8.6401    0.0000 C   0  0  0  0  0  0  0  0  0  0  0  0
    2.0491   -6.3901    0.0000 N   0  0  0  0  0  0  0  0  0  0  0  0
    0.7500   -7.1401    0.0000 C   0  0  0  0  0  0  0  0  0  0  0  0
  1  9  2  0  0  0  0
  1 11  1  0  0  0  0
  2 11  2  0  0  0  0
  2  7  1  0  0  0  0
  3 14  2  0  0  0  0
  3 16  1  0  0  0  0
  4  6  1  0  0  0  0
  4  7  1  0  0  0  0
  4  5  1  0  0  0  0
  6 10  2  0  0  0  0
  7  8  2  0  0  0  0
  8  9  1  0  0  0  0
  8 10  1  0  0  0  0
  9 17  1  0  0  0  0
 12 13  2  0  0  0  0
 12 14  1  0  0  0  0
 12 17  1  0  0  0  0
 13 15  1  0  0  0  0
 15 16  2  0  0  0  0
 17 18  1  0  0  0  0
M  END
