44584
 OpenBabel03021519512D

 23 25  0  0  0  0  0  0  0  0999 V2000
    0.6950   -4.3212    0.0000 N   0  0  0  0  0  0  0  0  0  0  0  0
    2.0490   -6.2455    0.0000 N   0  0  0  0  0  0  0  0  0  0  0  0
    0.0260   -1.9882    0.0000 N   0  0  0  0  0  0  0  0  0  0  0  0
    3.3481   -8.4955    0.0000 N   0  0  0  0  0  0  0  0  0  0  0  0
    3.3481   -3.9955    0.0000 S   0  0  0  0  0  0  0  0  0  0  0  0
    6.0737   -5.7820    0.0000 N   0  0  0  0  0  0  0  0  0  0  0  0
    6.0737   -8.2090    0.0000 N   0  0  0  0  0  0  0  0  0  0  0  0
    1.5251   -2.0406    0.0000 C   0  0  0  0  0  0  0  0  0  0  0  0
    1.9385   -3.4825    0.0000 C   0  0  0  0  0  0  0  0  0  0  0  0
   -0.4870   -3.3977    0.0000 C   0  0  0  0  0  0  0  0  0  0  0  0
    3.3481   -5.4955    0.0000 C   0  0  0  0  0  0  0  0  0  0  0  0
    4.6471   -6.2455    0.0000 C   0  0  0  0  0  0  0  0  0  0  0  0
    4.6471   -7.7455    0.0000 C   0  0  0  0  0  0  0  0  0  0  0  0
    6.9554   -6.9955    0.0000 C   0  0  0  0  0  0  0  0  0  0  0  0
    2.0490   -7.7455    0.0000 C   0  0  0  0  0  0  0  0  0  0  0  0
    0.7500   -8.4955    0.0000 N   0  0  0  0  0  0  0  0  0  0  0  0
    0.6426   -5.8203    0.0000 C   0  0  0  0  0  0  0  0  0  0  0  0
    2.4486   -0.8585    0.0000 N   0  3  0  0  0  0  0  0  0  0  0  0
    3.9340   -1.0673    0.0000 O   0  5  0  0  0  0  0  0  0  0  0  0
    1.8867    0.5322    0.0000 O   0  0  0  0  0  0  0  0  0  0  0  0
    6.5372   -9.6356    0.0000 C   0  0  0  0  0  0  0  0  0  0  0  0
    8.0044   -9.9475    0.0000 C   0  0  0  0  0  0  0  0  0  0  0  0
    8.4680  -11.3740    0.0000 C   0  0  0  0  0  0  0  0  0  0  0  0
  1  9  1  0  0  0  0
  1 10  1  0  0  0  0
  1 17  1  0  0  0  0
  2 11  2  0  0  0  0
  2 15  1  0  0  0  0
  3 10  2  0  0  0  0
  3  8  1  0  0  0  0
  4 15  2  0  0  0  0
  4 13  1  0  0  0  0
  5  9  1  0  0  0  0
  5 11  1  0  0  0  0
  6 14  2  0  0  0  0
  6 12  1  0  0  0  0
  7 13  1  0  0  0  0
  7 14  1  0  0  0  0
  7 21  1  0  0  0  0
  8  9  2  0  0  0  0
  8 18  1  0  0  0  0
 11 12  1  0  0  0  0
 12 13  2  0  0  0  0
 15 16  1  0  0  0  0
 18 19  1  0  0  0  0
 18 20  2  0  0  0  0
 21 22  1  0  0  0  0
 22 23  1  0  0  0  0
M  CHG  2  18   1  19  -1
M  END
