116397
 OpenBabel03021519512D

 24 28  0  0  1  0  0  0  0  0999 V2000
    0.1994    1.5406    0.0000 O   0  0  0  0  0  0  0  0  0  0  0  0
    0.4513   -0.8633    0.0000 N   0  0  0  0  0  0  0  0  0  0  0  0
    1.3863    1.5406    0.0000 O   0  0  0  0  0  0  0  0  0  0  0  0
    1.1593    2.2376    0.0000 C   0  0  0  0  0  0  0  0  0  0  0  0
    0.4263    2.2376    0.0000 C   0  0  0  0  0  0  0  0  0  0  0  0
    0.7934    1.1096    0.0000 C   0  0  0  0  0  0  0  0  0  0  0  0
    0.2114    0.7406    0.0000 C   0  0  0  0  0  0  0  0  0  0  0  0
    1.4813    0.7406    0.0000 C   0  0  0  0  0  0  0  0  0  0  0  0
    1.4813    0.0077    0.0000 C   0  0  0  0  0  0  0  0  0  0  0  0
    0.2114    0.0077    0.0000 C   0  0  3  0  0  0  0  0  0  0  0  0
    0.8463   -0.3583    0.0000 C   0  0  3  0  0  0  0  0  0  0  0  0
    0.2114   -0.4553    0.0000 C   0  0  0  0  0  0  0  0  0  0  0  0
   -0.4237   -0.3583    0.0000 C   0  0  0  0  0  0  0  0  0  0  0  0
   -1.0575    0.0077    0.0000 C   0  0  0  0  0  0  0  0  0  0  0  0
   -1.6925   -0.3583    0.0000 C   0  0  0  0  0  0  0  0  0  0  0  0
    0.8463   -1.0913    0.0000 C   0  0  3  0  0  0  0  0  0  0  0  0
   -0.4237   -1.0913    0.0000 C   0  0  0  0  0  0  0  0  0  0  0  0
   -1.6925   -1.0913    0.0000 C   0  0  0  0  0  0  0  0  0  0  0  0
    0.5064   -0.5323    0.0000 C   0  0  0  0  0  0  0  0  0  0  0  0
    0.2114   -1.4583    0.0000 C   0  0  0  0  0  0  0  0  0  0  0  0
   -1.0575   -1.4583    0.0000 C   0  0  0  0  0  0  0  0  0  0  0  0
   -2.2995   -0.0073    0.0000 O   0  0  0  0  0  0  0  0  0  0  0  0
   -2.9320   -0.3718    0.0000 C   0  0  0  0  0  0  0  0  0  0  0  0
    1.1563   -0.6743    0.0000 C   0  0  0  0  0  0  0  0  0  0  0  0
  1  5  1  0  0  0  0
  1  6  1  0  0  0  0
  2 19  1  0  0  0  0
  2 16  1  0  0  0  0
  2 24  1  0  0  0  0
  3  4  1  0  0  0  0
  3  6  1  0  0  0  0
  4  5  1  0  0  0  0
  6  7  1  0  0  0  0
  6  8  1  0  0  0  0
  7 10  1  0  0  0  0
  8  9  1  0  0  0  0
  9 11  1  0  0  0  0
 10 12  1  0  0  0  0
 10 11  1  0  0  0  0
 10 13  1  0  0  0  0
 11 16  1  0  0  0  0
 12 19  1  0  0  0  0
 13 17  2  0  0  0  0
 13 14  1  0  0  0  0
 14 15  2  0  0  0  0
 15 18  1  0  0  0  0
 15 22  1  0  0  0  0
 16 20  1  0  0  0  0
 17 20  1  0  0  0  0
 17 21  1  0  0  0  0
 18 21  2  0  0  0  0
 22 23  1  0  0  0  0
M  END
