79486
 OpenBabel03021519512D

 26 28  0  0  0  0  0  0  0  0999 V2000
  -12.7301   -3.4726    0.0000 H   0  0  0  0  0  0  0  0  0  0  0  0
  -12.2666   -4.8992    0.0000 N   0  0  0  0  0  0  0  0  0  0  0  0
   -9.5409   -4.6127    0.0000 C   0  0  0  0  0  0  0  0  0  0  0  0
  -10.8400   -5.3627    0.0000 C   0  0  0  0  0  0  0  0  0  0  0  0
   -8.2419   -5.3627    0.0000 C   0  0  0  0  0  0  0  0  0  0  0  0
   -8.2419   -6.8627    0.0000 C   0  0  0  0  0  0  0  0  0  0  0  0
  -10.8400   -6.8627    0.0000 C   0  0  0  0  0  0  0  0  0  0  0  0
   -9.5409   -7.6127    0.0000 C   0  0  0  0  0  0  0  0  0  0  0  0
  -12.2666   -7.3263    0.0000 C   0  0  0  0  0  0  0  0  0  0  0  0
  -14.6400   -6.2695    0.0000 C   0  0  0  0  0  0  0  0  0  0  0  0
  -13.1482   -6.1127    0.0000 C   0  0  0  0  0  0  0  0  0  0  0  0
  -15.2501   -7.6399    0.0000 C   0  0  0  0  0  0  0  0  0  0  0  0
  -14.3684   -8.8534    0.0000 C   0  0  0  0  0  0  0  0  0  0  0  0
  -12.8767   -8.6966    0.0000 C   0  0  0  0  0  0  0  0  0  0  0  0
   -9.5409   -3.1127    0.0000 C   0  0  0  0  0  0  0  0  0  0  0  0
   -9.5409   -9.1127    0.0000 C   0  0  0  0  0  0  0  0  0  0  0  0
   -6.9429   -7.6127    0.0000 C   0  0  0  0  0  0  0  0  0  0  0  0
   -5.6438   -6.8627    0.0000 N   0  0  0  0  0  0  0  0  0  0  0  0
   -4.3448   -7.6127    0.0000 C   0  0  0  0  0  0  0  0  0  0  0  0
   -3.0457   -6.8627    0.0000 C   0  0  0  0  0  0  0  0  0  0  0  0
   -1.7467   -7.6127    0.0000 O   0  0  0  0  0  0  0  0  0  0  0  0
   -0.4477   -6.8627    0.0000 C   0  0  0  0  0  0  0  0  0  0  0  0
    0.8514   -7.6127    0.0000 C   0  0  0  0  0  0  0  0  0  0  0  0
   -3.0457   -5.3627    0.0000 O   0  0  0  0  0  0  0  0  0  0  0  0
   -4.3448   -4.6127    0.0000 C   0  0  0  0  0  0  0  0  0  0  0  0
   -5.6438   -5.3627    0.0000 C   0  0  0  0  0  0  0  0  0  0  0  0
  1  2  1  0  0  0  0
  2  4  1  0  0  0  0
  2 11  1  0  0  0  0
  3  5  2  0  0  0  0
  3  4  1  0  0  0  0
  3 15  1  0  0  0  0
  4  7  2  0  0  0  0
  5  6  1  0  0  0  0
  6  8  2  0  0  0  0
  6 17  1  0  0  0  0
  7  8  1  0  0  0  0
  7  9  1  0  0  0  0
  8 16  1  0  0  0  0
  9 11  2  0  0  0  0
  9 14  1  0  0  0  0
 10 12  2  0  0  0  0
 10 11  1  0  0  0  0
 12 13  1  0  0  0  0
 13 14  2  0  0  0  0
 17 18  1  0  0  0  0
 18 19  1  0  0  0  0
 19 20  1  0  0  0  0
 20 21  1  0  0  0  0
 20 24  1  0  0  0  0
 21 22  1  0  0  0  0
 22 23  1  0  0  0  0
 24 25  1  0  0  0  0
 25 26  1  0  0  0  0
M  END
