201863
 OpenBabel03021519512D

 25 27  0  0  1  0  0  0  0  0999 V2000
  -16.3385   -2.2500    0.0000 Cl  0  0  0  0  0  0  0  0  0  0  0  0
  -16.3385   -5.2500    0.0000 Cl  0  0  0  0  0  0  0  0  0  0  0  0
   -2.0490   -4.5000    0.0000 C   0  0  0  0  0  0  0  0  0  0  0  0
   -0.7500   -5.2500    0.0000 C   0  0  0  0  0  0  0  0  0  0  0  0
   -3.3481   -5.2500    0.0000 C   0  0  0  0  0  0  0  0  0  0  0  0
   -0.7500   -6.7500    0.0000 C   0  0  0  0  0  0  0  0  0  0  0  0
   -3.3481   -6.7500    0.0000 C   0  0  0  0  0  0  0  0  0  0  0  0
   -4.6471   -4.5000    0.0000 C   0  0  0  0  0  0  0  0  0  0  0  0
   -4.6471   -3.0000    0.0000 C   0  0  0  0  0  0  0  0  0  0  0  0
   -5.9462   -2.2500    0.0000 C   0  0  0  0  0  0  0  0  0  0  0  0
   -5.9461   -5.2500    0.0000 C   0  0  0  0  0  0  0  0  0  0  0  0
   -7.2452   -3.0000    0.0000 C   0  0  0  0  0  0  0  0  0  0  0  0
   -2.0490   -7.5000    0.0000 C   0  0  0  0  0  0  0  0  0  0  0  0
   -7.2452   -4.5000    0.0000 C   0  0  0  0  0  0  0  0  0  0  0  0
  -13.7404   -2.2500    0.0000 C   0  0  0  0  0  0  0  0  0  0  0  0
  -15.0394   -3.0000    0.0000 C   0  0  0  0  0  0  0  0  0  0  0  0
  -12.4413   -3.0000    0.0000 C   0  0  0  0  0  0  0  0  0  0  0  0
  -12.4413   -4.5000    0.0000 C   0  0  0  0  0  0  0  0  0  0  0  0
  -15.0394   -4.5000    0.0000 C   0  0  0  0  0  0  0  0  0  0  0  0
  -13.7404   -5.2500    0.0000 C   0  0  0  0  0  0  0  0  0  0  0  0
  -11.1423   -2.2500    0.0000 C   0  0  0  0  0  0  0  0  0  0  0  0
  -11.1423   -0.7500    0.0000 O   0  0  0  0  0  0  0  0  0  0  0  0
   -8.5442   -2.2500    0.0000 C   0  0  3  0  0  0  0  0  0  0  0  0
   -8.5442   -0.7500    0.0000 C   0  0  0  0  0  0  0  0  0  0  0  0
   -9.8433   -3.0000    0.0000 N   0  0  0  0  0  0  0  0  0  0  0  0
  1 16  1  0  0  0  0
  2 19  1  0  0  0  0
  3  4  2  0  0  0  0
  3  5  1  0  0  0  0
  4  6  1  0  0  0  0
  5  7  2  0  0  0  0
  5  8  1  0  0  0  0
  6 13  2  0  0  0  0
  7 13  1  0  0  0  0
  8 11  2  0  0  0  0
  8  9  1  0  0  0  0
  9 10  2  0  0  0  0
 10 12  1  0  0  0  0
 11 14  1  0  0  0  0
 12 14  2  0  0  0  0
 12 23  1  0  0  0  0
 15 17  2  0  0  0  0
 15 16  1  0  0  0  0
 16 19  2  0  0  0  0
 17 18  1  0  0  0  0
 17 21  1  0  0  0  0
 18 20  2  0  0  0  0
 19 20  1  0  0  0  0
 21 22  2  0  0  0  0
 21 25  1  0  0  0  0
 23 24  1  0  0  0  0
 23 25  1  0  0  0  0
M  END
