163823
 OpenBabel03021519512D

 24 26  0  0  0  0  0  0  0  0999 V2000
  -16.1615    3.9834    0.0000 Cl  0  0  0  0  0  0  0  0  0  0  0  0
   -9.6663    1.7334    0.0000 N   0  0  0  0  0  0  0  0  0  0  0  0
   -9.6663   -1.2666    0.0000 N   0  0  0  0  0  0  0  0  0  0  0  0
   -6.9407    1.4470    0.0000 N   0  0  0  0  0  0  0  0  0  0  0  0
   -6.0590    0.2334    0.0000 N   0  0  0  0  0  0  0  0  0  0  0  0
  -12.2644    3.2334    0.0000 C   0  0  0  0  0  0  0  0  0  0  0  0
  -13.5634    3.9834    0.0000 C   0  0  0  0  0  0  0  0  0  0  0  0
  -12.2644    1.7334    0.0000 C   0  0  0  0  0  0  0  0  0  0  0  0
  -13.5634    0.9834    0.0000 C   0  0  0  0  0  0  0  0  0  0  0  0
  -10.9653    0.9834    0.0000 C   0  0  0  0  0  0  0  0  0  0  0  0
  -10.9653   -0.5166    0.0000 C   0  0  0  0  0  0  0  0  0  0  0  0
  -14.8624    3.2334    0.0000 C   0  0  0  0  0  0  0  0  0  0  0  0
  -14.8624    1.7334    0.0000 C   0  0  0  0  0  0  0  0  0  0  0  0
   -8.3672    0.9834    0.0000 C   0  0  0  0  0  0  0  0  0  0  0  0
   -8.3672   -0.5166    0.0000 C   0  0  0  0  0  0  0  0  0  0  0  0
   -6.9407   -0.9801    0.0000 C   0  0  0  0  0  0  0  0  0  0  0  0
   -6.4771    2.8735    0.0000 C   0  0  0  0  0  0  0  0  0  0  0  0
   -6.4771   -2.4067    0.0000 N   0  0  0  0  0  0  0  0  0  0  0  0
   -5.0099   -2.7185    0.0000 C   0  0  0  0  0  0  0  0  0  0  0  0
   -4.0062   -1.6038    0.0000 O   0  0  0  0  0  0  0  0  0  0  0  0
   -4.5464   -4.1451    0.0000 C   0  0  0  0  0  0  0  0  0  0  0  0
   -5.9730   -4.6087    0.0000 F   0  0  0  0  0  0  0  0  0  0  0  0
   -3.1198   -3.6816    0.0000 F   0  0  0  0  0  0  0  0  0  0  0  0
   -4.0828   -5.5717    0.0000 F   0  0  0  0  0  0  0  0  0  0  0  0
  1 12  1  0  0  0  0
  2 10  2  0  0  0  0
  2 14  1  0  0  0  0
  3 11  2  0  0  0  0
  3 15  1  0  0  0  0
  4  5  1  0  0  0  0
  4 14  1  0  0  0  0
  4 17  1  0  0  0  0
  5 16  2  0  0  0  0
  6  7  2  0  0  0  0
  6  8  1  0  0  0  0
  7 12  1  0  0  0  0
  8  9  2  0  0  0  0
  8 10  1  0  0  0  0
  9 13  1  0  0  0  0
 10 11  1  0  0  0  0
 12 13  2  0  0  0  0
 14 15  2  0  0  0  0
 15 16  1  0  0  0  0
 16 18  1  0  0  0  0
 18 19  1  0  0  0  0
 19 20  2  0  0  0  0
 19 21  1  0  0  0  0
 21 22  1  0  0  0  0
 21 23  1  0  0  0  0
 21 24  1  0  0  0  0
M  END
