22806
 OpenBabel03021519512D

 19 20  0  0  1  0  0  0  0  0999 V2000
   -1.0245    4.7745    0.0000 N   0  0  0  0  0  0  0  0  0  0  0  0
    5.4707    7.0245    0.0000 C   0  0  0  0  0  0  0  0  0  0  0  0
    6.7697    7.7745    0.0000 C   0  0  0  0  0  0  0  0  0  0  0  0
    5.4707    5.5245    0.0000 C   0  0  0  0  0  0  0  0  0  0  0  0
    8.0688    7.0245    0.0000 C   0  0  0  0  0  0  0  0  0  0  0  0
    6.7697    4.7745    0.0000 C   0  0  0  0  0  0  0  0  0  0  0  0
    8.0688    5.5245    0.0000 C   0  0  0  0  0  0  0  0  0  0  0  0
    0.2745    5.5245    0.0000 C   0  0  0  0  0  0  0  0  0  0  0  0
    1.5736    4.7745    0.0000 C   0  0  3  0  0  0  0  0  0  0  0  0
    1.5736    3.2745    0.0000 C   0  0  0  0  0  0  0  0  0  0  0  0
    0.2745    2.5245    0.0000 C   0  0  0  0  0  0  0  0  0  0  0  0
   -1.0245    3.2745    0.0000 C   0  0  0  0  0  0  0  0  0  0  0  0
   -2.3235    5.5245    0.0000 C   0  0  0  0  0  0  0  0  0  0  0  0
    2.8726    5.5245    0.0000 C   0  0  0  0  0  0  0  0  0  0  0  0
    2.8726    7.0245    0.0000 O   0  0  0  0  0  0  0  0  0  0  0  0
    4.1717    4.7745    0.0000 N   0  0  0  0  0  0  0  0  0  0  0  0
    9.3678    7.7745    0.0000 O   0  0  0  0  0  0  0  0  0  0  0  0
    9.3678    9.2745    0.0000 C   0  0  0  0  0  0  0  0  0  0  0  0
   10.6669   10.0245    0.0000 C   0  0  0  0  0  0  0  0  0  0  0  0
  1  8  1  0  0  0  0
  1 12  1  0  0  0  0
  1 13  1  0  0  0  0
  2  3  2  0  0  0  0
  2  4  1  0  0  0  0
  3  5  1  0  0  0  0
  4  6  2  0  0  0  0
  4 16  1  0  0  0  0
  5  7  2  0  0  0  0
  5 17  1  0  0  0  0
  6  7  1  0  0  0  0
  8  9  1  0  0  0  0
  9 10  1  0  0  0  0
  9 14  1  0  0  0  0
 10 11  1  0  0  0  0
 11 12  1  0  0  0  0
 14 15  2  0  0  0  0
 14 16  1  0  0  0  0
 17 18  1  0  0  0  0
 18 19  1  0  0  0  0
M  END
