79582
 OpenBabel03021519512D

 15 17  0  0  0  0  0  0  0  0999 V2000
    0.7500    2.0490    0.0000 C   0  0  0  0  0  0  0  0  0  0  0  0
    1.5000    3.3481    0.0000 C   0  0  0  0  0  0  0  0  0  0  0  0
    1.5000    0.7500    0.0000 C   0  0  0  0  0  0  0  0  0  0  0  0
    3.0000    3.3481    0.0000 C   0  0  0  0  0  0  0  0  0  0  0  0
    3.0000    0.7500    0.0000 C   0  0  0  0  0  0  0  0  0  0  0  0
    3.7500    2.0490    0.0000 C   0  0  0  0  0  0  0  0  0  0  0  0
    3.0000    5.9462    0.0000 O   0  5  0  0  0  0  0  0  0  0  0  0
    3.7500    4.6471    0.0000 N   0  3  0  0  0  0  0  0  0  0  0  0
    5.2500    2.0491    0.0000 C   0  0  0  0  0  0  0  0  0  0  0  0
    5.2500    4.6471    0.0000 N   0  0  0  0  0  0  0  0  0  0  0  0
    6.0000    0.7500    0.0000 C   0  0  0  0  0  0  0  0  0  0  0  0
    6.0000    3.3481    0.0000 C   0  0  0  0  0  0  0  0  0  0  0  0
    7.5000    0.7500    0.0000 C   0  0  0  0  0  0  0  0  0  0  0  0
    7.5000    3.3481    0.0000 C   0  0  0  0  0  0  0  0  0  0  0  0
    8.2500    2.0490    0.0000 C   0  0  0  0  0  0  0  0  0  0  0  0
  1  2  2  0  0  0  0
  1  3  1  0  0  0  0
  2  4  1  0  0  0  0
  3  5  2  0  0  0  0
  4  8  1  0  0  0  0
  4  6  2  0  0  0  0
  5  6  1  0  0  0  0
  6  9  1  0  0  0  0
  7  8  1  0  0  0  0
  8 10  2  0  0  0  0
  9 12  2  0  0  0  0
  9 11  1  0  0  0  0
 10 12  1  0  0  0  0
 11 13  2  0  0  0  0
 12 14  1  0  0  0  0
 13 15  1  0  0  0  0
 14 15  2  0  0  0  0
M  CHG  2   7  -1   8   1
M  END
