285669
 OpenBabel03021519512D

 18 19  0  0  0  0  0  0  0  0999 V2000
    2.9914    1.4080    0.0000 O   0  0  0  0  0  0  0  0  0  0  0  0
    3.9951    2.5227    0.0000 C   0  0  0  0  0  0  0  0  0  0  0  0
    3.5316    3.9493    0.0000 O   0  0  0  0  0  0  0  0  0  0  0  0
    5.0442   -0.4293    0.0000 C   0  0  0  0  0  0  0  0  0  0  0  0
    5.9259    0.7843    0.0000 C   0  0  0  0  0  0  0  0  0  0  0  0
    5.9259   -1.6428    0.0000 S   0  0  0  0  0  0  0  0  0  0  0  0
    7.3524    0.3207    0.0000 C   0  0  0  0  0  0  0  0  0  0  0  0
    7.3524   -1.1793    0.0000 C   0  0  0  0  0  0  0  0  0  0  0  0
    7.8391    2.7672    0.0000 H   0  0  0  0  0  0  0  0  0  0  0  0
    8.4131    1.3814    0.0000 N   0  0  0  0  0  0  0  0  0  0  0  0
    8.4131   -2.2399    0.0000 C   0  0  0  0  0  0  0  0  0  0  0  0
    9.9131    1.3814    0.0000 C   0  0  0  0  0  0  0  0  0  0  0  0
    9.9131   -2.2399    0.0000 C   0  0  0  0  0  0  0  0  0  0  0  0
   10.9738    0.3207    0.0000 C   0  0  0  0  0  0  0  0  0  0  0  0
   10.9738   -1.1793    0.0000 C   0  0  0  0  0  0  0  0  0  0  0  0
   10.4871    2.7672    0.0000 O   0  0  0  0  0  0  0  0  0  0  0  0
    1.5242    1.7199    0.0000 C   0  0  0  0  0  0  0  0  0  0  0  0
    5.4623    2.2108    0.0000 N   0  0  0  0  0  0  0  0  0  0  0  0
  1  2  1  0  0  0  0
  1 17  1  0  0  0  0
  2  3  2  0  0  0  0
  2 18  1  0  0  0  0
  4  5  2  0  0  0  0
  4  6  1  0  0  0  0
  5  7  1  0  0  0  0
  5 18  1  0  0  0  0
  6  8  1  0  0  0  0
  7 10  1  0  0  0  0
  7  8  2  0  0  0  0
  8 11  1  0  0  0  0
  9 10  1  0  0  0  0
 10 12  1  0  0  0  0
 11 13  1  0  0  0  0
 12 16  2  0  0  0  0
 12 14  1  0  0  0  0
 13 15  1  0  0  0  0
 14 15  1  0  0  0  0
M  END
