283849
 OpenBabel03021519512D

 24 25  0  0  0  0  0  0  0  0999 V2000
   -4.4049    6.8609    0.0000 N   0  0  0  0  0  0  0  0  0  0  0  0
   -3.6549    8.1599    0.0000 C   0  0  0  0  0  0  0  0  0  0  0  0
   -3.6549    5.5618    0.0000 C   0  0  0  0  0  0  0  0  0  0  0  0
   -2.1549    8.1599    0.0000 C   0  0  0  0  0  0  0  0  0  0  0  0
   -2.1549    5.5618    0.0000 C   0  0  0  0  0  0  0  0  0  0  0  0
   -2.1549   10.7580    0.0000 O   0  0  0  0  0  0  0  0  0  0  0  0
   -1.4049    4.2628    0.0000 C   0  0  0  0  0  0  0  0  0  0  0  0
    0.0951    4.2628    0.0000 O   0  0  0  0  0  0  0  0  0  0  0  0
   -1.4049    9.4590    0.0000 C   0  0  0  0  0  0  0  0  0  0  0  0
   -1.4049    6.8609    0.0000 C   0  0  0  0  0  0  0  0  0  0  0  0
    0.0951    9.4590    0.0000 O   0  0  0  0  0  0  0  0  0  0  0  0
   -2.1549    2.9638    0.0000 O   0  0  0  0  0  0  0  0  0  0  0  0
    0.0951    6.8609    0.0000 C   0  0  0  0  0  0  0  0  0  0  0  0
    0.8451    8.1599    0.0000 C   0  0  0  0  0  0  0  0  0  0  0  0
    0.8451    5.5618    0.0000 C   0  0  0  0  0  0  0  0  0  0  0  0
    2.3451    5.5618    0.0000 N   0  0  0  0  0  0  0  0  0  0  0  0
    2.3451    8.1599    0.0000 C   0  0  0  0  0  0  0  0  0  0  0  0
    3.0951    6.8609    0.0000 C   0  0  0  0  0  0  0  0  0  0  0  0
   -4.4049    9.4590    0.0000 C   0  0  0  0  0  0  0  0  0  0  0  0
   -4.4049    4.2628    0.0000 C   0  0  0  0  0  0  0  0  0  0  0  0
   -3.6549    2.9638    0.0000 C   0  0  0  0  0  0  0  0  0  0  0  0
   -4.4049    1.6647    0.0000 C   0  0  0  0  0  0  0  0  0  0  0  0
    0.8451   10.7580    0.0000 C   0  0  0  0  0  0  0  0  0  0  0  0
    0.0951   12.0570    0.0000 C   0  0  0  0  0  0  0  0  0  0  0  0
  1  2  2  0  0  0  0
  1  3  1  0  0  0  0
  2  4  1  0  0  0  0
  2 19  1  0  0  0  0
  3  5  2  0  0  0  0
  3 20  1  0  0  0  0
  4  9  1  0  0  0  0
  4 10  2  0  0  0  0
  5 10  1  0  0  0  0
  5  7  1  0  0  0  0
  6  9  2  0  0  0  0
  7 12  1  0  0  0  0
  7  8  2  0  0  0  0
  9 11  1  0  0  0  0
 10 13  1  0  0  0  0
 11 23  1  0  0  0  0
 12 21  1  0  0  0  0
 13 14  2  0  0  0  0
 13 15  1  0  0  0  0
 14 17  1  0  0  0  0
 15 16  2  0  0  0  0
 16 18  1  0  0  0  0
 17 18  2  0  0  0  0
 21 22  1  0  0  0  0
 23 24  1  0  0  0  0
M  END
