131616
 OpenBabel03021519512D

 26 30  0  0  1  0  0  0  0  0999 V2000
    0.9808   -8.9023    0.0000 N   0  0  0  0  0  0  0  0  0  0  0  0
    4.8872   -9.6023    0.0000 N   0  0  3  0  0  0  0  0  0  0  0  0
    0.9616   -7.4024    0.0000 C   0  0  3  0  0  0  0  0  0  0  0  0
    2.2509   -6.6358    0.0000 C   0  0  0  0  0  0  0  0  0  0  0  0
    3.5594   -7.3691    0.0000 C   0  0  3  0  0  0  0  0  0  0  0  0
    4.8488   -6.6026    0.0000 C   0  0  0  0  0  0  0  0  0  0  0  0
    6.1573   -7.3359    0.0000 C   0  0  0  0  0  0  0  0  0  0  0  0
    6.1765   -8.8358    0.0000 C   0  0  0  0  0  0  0  0  0  0  0  0
    3.5786   -8.8690    0.0000 C   0  0  3  0  0  0  0  0  0  0  0  0
    2.2893   -9.6356    0.0000 C   0  0  0  0  0  0  0  0  0  0  0  0
    2.3085  -11.1355    0.0000 C   0  0  0  0  0  0  0  0  0  0  0  0
    3.6170  -11.8688    0.0000 C   0  0  0  0  0  0  0  0  0  0  0  0
    4.9064  -11.1022    0.0000 C   0  0  0  0  0  0  0  0  0  0  0  0
    0.8647  -11.5422    0.0000 C   0  0  0  0  0  0  0  0  0  0  0  0
   -1.4018  -10.2721    0.0000 C   0  0  0  0  0  0  0  0  0  0  0  0
    0.0981  -10.2529    0.0000 C   0  0  0  0  0  0  0  0  0  0  0  0
   -2.1351  -11.5806    0.0000 C   0  0  0  0  0  0  0  0  0  0  0  0
   -1.3685  -12.8699    0.0000 C   0  0  0  0  0  0  0  0  0  0  0  0
    0.1314  -12.8507    0.0000 C   0  0  0  0  0  0  0  0  0  0  0  0
   -0.5122   -7.6817    0.0000 O   0  0  0  0  0  0  0  0  0  0  0  0
   -1.0499   -5.7580    0.0000 O   0  0  0  0  0  0  0  0  0  0  0  0
   -1.5809   -4.3551    0.0000 C   0  0  0  0  0  0  0  0  0  0  0  0
    0.4305   -5.9995    0.0000 C   0  0  0  0  0  0  0  0  0  0  0  0
    1.3799   -4.8382    0.0000 O   0  0  0  0  0  0  0  0  0  0  0  0
    3.5402   -5.8693    0.0000 C   0  0  0  0  0  0  0  0  0  0  0  0
    2.2317   -5.1360    0.0000 C   0  0  0  0  0  0  0  0  0  0  0  0
  1  3  1  0  0  0  0
  1 10  1  0  0  0  0
  1 16  1  0  0  0  0
  2  8  1  0  0  0  0
  2  9  1  0  0  0  0
  2 13  1  0  0  0  0
  3  4  1  0  0  0  0
  3 20  1  0  0  0  0
  3 23  1  0  0  0  0
  4  5  1  0  0  0  0
  5  6  1  0  0  0  0
  5  9  1  0  0  0  0
  5 25  1  0  0  0  0
  6  7  1  0  0  0  0
  7  8  1  0  0  0  0
  9 10  1  0  0  0  0
 10 11  2  0  0  0  0
 11 12  1  0  0  0  0
 11 14  1  0  0  0  0
 12 13  1  0  0  0  0
 14 16  2  0  0  0  0
 14 19  1  0  0  0  0
 15 17  2  0  0  0  0
 15 16  1  0  0  0  0
 17 18  1  0  0  0  0
 18 19  2  0  0  0  0
 21 22  1  0  0  0  0
 21 23  1  0  0  0  0
 23 24  2  0  0  0  0
 25 26  1  0  0  0  0
M  END
