151888
 OpenBabel03021519512D

 28 30  0  0  0  0  0  0  0  0999 V2000
   -7.8623   11.8821    0.0000 N   0  0  0  0  0  0  0  0  0  0  0  0
   -3.9652    8.1321    0.0000 C   0  0  0  0  0  0  0  0  0  0  0  0
   -2.6661    7.3821    0.0000 C   0  0  0  0  0  0  0  0  0  0  0  0
   -5.2642    7.3821    0.0000 C   0  0  0  0  0  0  0  0  0  0  0  0
   -2.6661    5.8821    0.0000 C   0  0  0  0  0  0  0  0  0  0  0  0
   -5.2642    5.8821    0.0000 C   0  0  0  0  0  0  0  0  0  0  0  0
   -3.9652    5.1321    0.0000 C   0  0  0  0  0  0  0  0  0  0  0  0
   -9.1613   14.1321    0.0000 C   0  0  0  0  0  0  0  0  0  0  0  0
  -10.4604   14.8821    0.0000 C   0  0  0  0  0  0  0  0  0  0  0  0
   -9.1613   12.6321    0.0000 C   0  0  0  0  0  0  0  0  0  0  0  0
  -10.4604   11.8821    0.0000 C   0  0  0  0  0  0  0  0  0  0  0  0
  -11.7594   14.1321    0.0000 C   0  0  0  0  0  0  0  0  0  0  0  0
  -10.4604   10.3821    0.0000 C   0  0  0  0  0  0  0  0  0  0  0  0
   -7.8623   10.3821    0.0000 C   0  0  0  0  0  0  0  0  0  0  0  0
   -9.1613    9.6321    0.0000 C   0  0  0  0  0  0  0  0  0  0  0  0
  -11.7594   12.6321    0.0000 C   0  0  0  0  0  0  0  0  0  0  0  0
  -13.0585   14.8821    0.0000 O   0  0  0  0  0  0  0  0  0  0  0  0
  -13.0585   16.3821    0.0000 C   0  0  0  0  0  0  0  0  0  0  0  0
  -14.3575   17.1321    0.0000 C   0  0  0  0  0  0  0  0  0  0  0  0
   -6.5633    9.6321    0.0000 C   0  0  0  0  0  0  0  0  0  0  0  0
   -6.5633    8.1321    0.0000 C   0  0  0  0  0  0  0  0  0  0  0  0
   -1.3671    5.1321    0.0000 N   0  0  0  0  0  0  0  0  0  0  0  0
   -0.0681    5.8821    0.0000 C   0  0  0  0  0  0  0  0  0  0  0  0
    1.2310    5.1321    0.0000 C   0  0  0  0  0  0  0  0  0  0  0  0
    2.5300    5.8821    0.0000 C   0  0  0  0  0  0  0  0  0  0  0  0
   -1.3671    3.6321    0.0000 C   0  0  0  0  0  0  0  0  0  0  0  0
   -2.6661    2.8821    0.0000 C   0  0  0  0  0  0  0  0  0  0  0  0
   -3.9652    3.6321    0.0000 C   0  0  0  0  0  0  0  0  0  0  0  0
  1 14  2  0  0  0  0
  1 10  1  0  0  0  0
  2  3  2  0  0  0  0
  2  4  1  0  0  0  0
  3  5  1  0  0  0  0
  4  6  2  0  0  0  0
  4 21  1  0  0  0  0
  5  7  2  0  0  0  0
  5 22  1  0  0  0  0
  6  7  1  0  0  0  0
  8  9  2  0  0  0  0
  8 10  1  0  0  0  0
  9 12  1  0  0  0  0
 10 11  2  0  0  0  0
 11 13  1  0  0  0  0
 11 16  1  0  0  0  0
 12 16  2  0  0  0  0
 12 17  1  0  0  0  0
 13 15  2  0  0  0  0
 14 15  1  0  0  0  0
 14 20  1  0  0  0  0
 17 18  1  0  0  0  0
 18 19  1  0  0  0  0
 20 21  2  0  0  0  0
 22 23  1  0  0  0  0
 22 26  1  0  0  0  0
 23 24  1  0  0  0  0
 24 25  1  0  0  0  0
 26 27  1  0  0  0  0
 27 28  1  0  0  0  0
M  END
