85326
 OpenBabel03021519512D

 15 15  0  0  0  0  0  0  0  0999 V2000
    2.0490    3.0000    0.0000 N   0  0  0  0  0  0  0  0  0  0  0  0
    3.3481    5.2500    0.0000 N   0  0  0  0  0  0  0  0  0  0  0  0
    4.6471    4.5000    0.0000 C   0  0  0  0  0  0  0  0  0  0  0  0
    4.6471    3.0000    0.0000 C   0  0  0  0  0  0  0  0  0  0  0  0
    3.3481    2.2500    0.0000 C   0  0  0  0  0  0  0  0  0  0  0  0
    2.0490    4.5000    0.0000 C   0  0  0  0  0  0  0  0  0  0  0  0
    0.7500    5.2500    0.0000 N   0  0  0  0  0  0  0  0  0  0  0  0
    5.9462    5.2500    0.0000 N   0  0  0  0  0  0  0  0  0  0  0  0
    7.2452    4.5000    0.0000 C   0  0  0  0  0  0  0  0  0  0  0  0
    8.5442    5.2500    0.0000 C   0  0  0  0  0  0  0  0  0  0  0  0
    9.8433    4.5000    0.0000 C   0  0  0  0  0  0  0  0  0  0  0  0
   11.1423    5.2500    0.0000 C   0  0  0  0  0  0  0  0  0  0  0  0
    5.9462    2.2500    0.0000 N   0  3  0  0  0  0  0  0  0  0  0  0
    7.2452    3.0000    0.0000 O   0  5  0  0  0  0  0  0  0  0  0  0
    5.9462    0.7500    0.0000 O   0  0  0  0  0  0  0  0  0  0  0  0
  1  6  2  0  0  0  0
  1  5  1  0  0  0  0
  2  3  2  0  0  0  0
  2  6  1  0  0  0  0
  3  4  1  0  0  0  0
  3  8  1  0  0  0  0
  4  5  2  0  0  0  0
  4 13  1  0  0  0  0
  6  7  1  0  0  0  0
  8  9  1  0  0  0  0
  9 10  1  0  0  0  0
 10 11  1  0  0  0  0
 11 12  1  0  0  0  0
 13 14  1  0  0  0  0
 13 15  2  0  0  0  0
M  CHG  2  13   1  14  -1
M  END
