89723
 OpenBabel03021519512D

 15 15  0  0  0  0  0  0  0  0999 V2000
   -0.3869    8.3299    0.0000 C   0  0  0  0  0  0  0  0  0  0  0  0
   -1.6859    7.5799    0.0000 C   0  0  0  0  0  0  0  0  0  0  0  0
    0.9122    7.5799    0.0000 C   0  0  0  0  0  0  0  0  0  0  0  0
    0.9122    6.0799    0.0000 C   0  0  0  0  0  0  0  0  0  0  0  0
   -1.6859    6.0799    0.0000 C   0  0  0  0  0  0  0  0  0  0  0  0
   -0.3869    5.3299    0.0000 C   0  0  0  0  0  0  0  0  0  0  0  0
   -2.9850    5.3299    0.0000 O   0  0  0  0  0  0  0  0  0  0  0  0
   -4.2840    6.0799    0.0000 C   0  0  0  0  0  0  0  0  0  0  0  0
   -0.3869    9.8299    0.0000 N   0  0  0  0  0  0  0  0  0  0  0  0
   -0.3869    3.8299    0.0000 S   0  0  0  0  0  0  0  0  0  0  0  0
   -1.8869    3.8299    0.0000 O   0  0  0  0  0  0  0  0  0  0  0  0
   -0.3869    2.3299    0.0000 O   0  0  0  0  0  0  0  0  0  0  0  0
    1.1131    3.8299    0.0000 N   0  0  0  0  0  0  0  0  0  0  0  0
    2.2112    8.3299    0.0000 O   0  0  0  0  0  0  0  0  0  0  0  0
    3.5102    7.5799    0.0000 C   0  0  0  0  0  0  0  0  0  0  0  0
  1  2  2  0  0  0  0
  1  3  1  0  0  0  0
  1  9  1  0  0  0  0
  2  5  1  0  0  0  0
  3  4  2  0  0  0  0
  3 14  1  0  0  0  0
  4  6  1  0  0  0  0
  5  6  2  0  0  0  0
  5  7  1  0  0  0  0
  6 10  1  0  0  0  0
  7  8  1  0  0  0  0
 10 11  2  0  0  0  0
 10 12  2  0  0  0  0
 10 13  1  0  0  0  0
 14 15  1  0  0  0  0
M  END
