203065
 OpenBabel03021519512D

 14 15  0  0  0  0  0  0  0  0999 V2000
    5.1364    2.8231    0.0000 C   0  0  0  0  0  0  0  0  0  0  0  0
    5.4713    0.9240    0.0000 N   0  0  0  0  0  0  0  0  0  0  0  0
    4.1722    1.6740    0.0000 C   0  0  0  0  0  0  0  0  0  0  0  0
    3.2080    2.8230    0.0000 C   0  0  0  0  0  0  0  0  0  0  0  0
    1.7308    2.5626    0.0000 C   0  0  0  0  0  0  0  0  0  0  0  0
    3.6592    0.2644    0.0000 C   0  0  0  0  0  0  0  0  0  0  0  0
    1.2178    1.1530    0.0000 C   0  0  0  0  0  0  0  0  0  0  0  0
    2.1820    0.0040    0.0000 C   0  0  0  0  0  0  0  0  0  0  0  0
    6.7703    1.6740    0.0000 C   0  0  0  0  0  0  0  0  0  0  0  0
    8.0693    0.9240    0.0000 C   0  0  0  0  0  0  0  0  0  0  0  0
    8.0693   -0.5760    0.0000 C   0  0  0  0  0  0  0  0  0  0  0  0
    6.7703   -1.3260    0.0000 C   0  0  0  0  0  0  0  0  0  0  0  0
    5.4713   -0.5760    0.0000 C   0  0  0  0  0  0  0  0  0  0  0  0
    6.1006    3.9721    0.0000 C   0  0  0  0  0  0  0  0  0  0  0  0
  1  3  1  0  0  0  0
  1 14  3  0  0  0  0
  2  9  1  0  0  0  0
  2 13  1  0  0  0  0
  2  3  1  0  0  0  0
  3  4  1  0  0  0  0
  3  6  1  0  0  0  0
  4  5  1  0  0  0  0
  5  7  1  0  0  0  0
  6  8  1  0  0  0  0
  7  8  1  0  0  0  0
  9 10  1  0  0  0  0
 10 11  1  0  0  0  0
 11 12  1  0  0  0  0
 12 13  1  0  0  0  0
M  END
