79559
 OpenBabel03021519512D

 23 24  0  0  0  0  0  0  0  0999 V2000
  -13.6368   -5.3566    0.0000 O   0  0  0  0  0  0  0  0  0  0  0  0
   -7.6213   -7.2121    0.0000 N   0  0  0  0  0  0  0  0  0  0  0  0
   -7.6212   -8.7121    0.0000 N   0  0  0  0  0  0  0  0  0  0  0  0
  -11.3910   -4.1696    0.0000 C   0  0  0  0  0  0  0  0  0  0  0  0
   -9.9078   -3.9461    0.0000 C   0  0  0  0  0  0  0  0  0  0  0  0
   -8.8082   -4.9663    0.0000 C   0  0  0  0  0  0  0  0  0  0  0  0
   -8.9203   -6.4621    0.0000 C   0  0  0  0  0  0  0  0  0  0  0  0
  -12.1410   -5.4687    0.0000 C   0  0  0  0  0  0  0  0  0  0  0  0
  -10.1597   -7.3071    0.0000 C   0  0  0  0  0  0  0  0  0  0  0  0
  -11.5930   -6.8650    0.0000 C   0  0  0  0  0  0  0  0  0  0  0  0
   -5.0232   -8.7121    0.0000 C   0  0  0  0  0  0  0  0  0  0  0  0
   -6.3222   -9.4621    0.0000 C   0  0  0  0  0  0  0  0  0  0  0  0
   -3.7241   -9.4621    0.0000 C   0  0  0  0  0  0  0  0  0  0  0  0
   -3.7241  -10.9621    0.0000 C   0  0  0  0  0  0  0  0  0  0  0  0
   -6.3222  -10.9621    0.0000 C   0  0  0  0  0  0  0  0  0  0  0  0
   -5.0232  -11.7121    0.0000 C   0  0  0  0  0  0  0  0  0  0  0  0
  -13.9260   -0.4516    0.0000 C   0  0  0  0  0  0  0  0  0  0  0  0
  -12.4302   -0.3395    0.0000 C   0  0  0  0  0  0  0  0  0  0  0  0
  -11.7794    1.0120    0.0000 C   0  0  0  0  0  0  0  0  0  0  0  0
  -11.5852   -1.5788    0.0000 C   0  0  0  0  0  0  0  0  0  0  0  0
  -10.0894   -1.4667    0.0000 O   0  0  0  0  0  0  0  0  0  0  0  0
  -12.2360   -2.9303    0.0000 O   0  0  0  0  0  0  0  0  0  0  0  0
   -2.4251  -11.7121    0.0000 C   0  0  0  0  0  0  0  0  0  0  0  0
  1  8  2  0  0  0  0
  2  7  1  0  0  0  0
  2  3  2  0  0  0  0
  3 12  1  0  0  0  0
  4  5  2  0  0  0  0
  4  8  1  0  0  0  0
  4 22  1  0  0  0  0
  5  6  1  0  0  0  0
  6  7  2  0  0  0  0
  7  9  1  0  0  0  0
  8 10  1  0  0  0  0
  9 10  2  0  0  0  0
 11 13  2  0  0  0  0
 11 12  1  0  0  0  0
 12 15  2  0  0  0  0
 13 14  1  0  0  0  0
 14 16  2  0  0  0  0
 14 23  1  0  0  0  0
 15 16  1  0  0  0  0
 17 18  2  0  0  0  0
 18 19  1  0  0  0  0
 18 20  1  0  0  0  0
 20 21  2  0  0  0  0
 20 22  1  0  0  0  0
M  END
