20618
 OpenBabel03021519512D

 18 19  0  0  0  0  0  0  0  0999 V2000
    0.9240   -2.8995    0.0000 C   0  0  0  0  0  0  0  0  0  0  0  0
    2.2231   -5.1495    0.0000 C   0  0  0  0  0  0  0  0  0  0  0  0
   -0.3750   -9.6495    0.0000 C   0  0  0  0  0  0  0  0  0  0  0  0
   -2.9731   -9.6495    0.0000 C   0  0  0  0  0  0  0  0  0  0  0  0
    2.2231   -2.1495    0.0000 C   0  0  0  0  0  0  0  0  0  0  0  0
    3.5221   -4.3995    0.0000 C   0  0  0  0  0  0  0  0  0  0  0  0
   -0.3750  -11.1495    0.0000 C   0  0  0  0  0  0  0  0  0  0  0  0
   -2.9730  -11.1495    0.0000 C   0  0  0  0  0  0  0  0  0  0  0  0
    3.5221   -2.8995    0.0000 C   0  0  0  0  0  0  0  0  0  0  0  0
   -1.6740  -11.8995    0.0000 C   0  0  0  0  0  0  0  0  0  0  0  0
   -1.6740   -8.8995    0.0000 N   0  0  0  0  0  0  0  0  0  0  0  0
    0.9241   -7.3995    0.0000 C   0  0  0  0  0  0  0  0  0  0  0  0
   -0.3750   -6.6495    0.0000 S   0  0  0  0  0  0  0  0  0  0  0  0
    0.9240   -4.3995    0.0000 N   0  0  0  0  0  0  0  0  0  0  0  0
   -4.2721   -8.8995    0.0000 C   0  0  0  0  0  0  0  0  0  0  0  0
    0.9241   -8.8995    0.0000 N   0  0  0  0  0  0  0  0  0  0  0  0
    2.2231   -6.6495    0.0000 N   0  0  0  0  0  0  0  0  0  0  0  0
   -0.3750   -2.1495    0.0000 C   0  0  0  0  0  0  0  0  0  0  0  0
  1 14  1  0  0  0  0
  1  5  2  0  0  0  0
  1 18  1  0  0  0  0
  2 14  2  0  0  0  0
  2 17  1  0  0  0  0
  2  6  1  0  0  0  0
  3 11  2  0  0  0  0
  3  7  1  0  0  0  0
  3 16  1  0  0  0  0
  4 11  1  0  0  0  0
  4  8  2  0  0  0  0
  4 15  1  0  0  0  0
  5  9  1  0  0  0  0
  6  9  2  0  0  0  0
  7 10  2  0  0  0  0
  8 10  1  0  0  0  0
 12 13  2  0  0  0  0
 12 16  1  0  0  0  0
 12 17  1  0  0  0  0
M  END
