53874
 OpenBabel03021519512D

 21 21  0  0  1  0  0  0  0  0999 V2000
    1.0863   10.7252    0.0000 H   0  0  0  0  0  0  0  0  0  0  0  0
    2.3853   11.4752    0.0000 N   0  0  0  0  0  0  0  0  0  0  0  0
    4.9834   12.9752    0.0000 O   0  0  0  0  0  0  0  0  0  0  0  0
    2.4858    5.3012    0.0000 O   0  0  0  0  0  0  0  0  0  0  0  0
    5.0839    6.8012    0.0000 N   0  0  0  0  0  0  0  0  0  0  0  0
    3.6843   13.7252    0.0000 C   0  0  0  0  0  0  0  0  0  0  0  0
    2.3853   12.9752    0.0000 C   0  0  0  0  0  0  0  0  0  0  0  0
    3.7848    7.5512    0.0000 C   0  0  0  0  0  0  0  0  0  0  0  0
    2.4858    6.8012    0.0000 C   0  0  0  0  0  0  0  0  0  0  0  0
    4.9834   11.4752    0.0000 C   0  0  0  0  0  0  0  0  0  0  0  0
    3.6843   10.7252    0.0000 C   0  0  0  0  0  0  0  0  0  0  0  0
    5.0839    5.3012    0.0000 C   0  0  0  0  0  0  0  0  0  0  0  0
    3.7848    4.5512    0.0000 C   0  0  0  0  0  0  0  0  0  0  0  0
    6.3829    7.5512    0.0000 C   0  0  3  0  0  0  0  0  0  0  0  0
    7.6819    6.8012    0.0000 C   0  0  0  0  0  0  0  0  0  0  0  0
    8.9810    7.5512    0.0000 O   0  0  0  0  0  0  0  0  0  0  0  0
    7.6819    5.3012    0.0000 O   0  0  0  0  0  0  0  0  0  0  0  0
    6.3829    9.0512    0.0000 C   0  0  0  0  0  0  0  0  0  0  0  0
    7.6819    9.8012    0.0000 C   0  0  0  0  0  0  0  0  0  0  0  0
    7.6819   11.3012    0.0000 Cl  0  0  0  0  0  0  0  0  0  0  0  0
    8.9810    9.0512    0.0000 Cl  0  0  0  0  0  0  0  0  0  0  0  0
  1  2  1  0  0  0  0
  2  7  1  0  0  0  0
  2 11  1  0  0  0  0
  3  6  1  0  0  0  0
  3 10  1  0  0  0  0
  4  9  1  0  0  0  0
  4 13  1  0  0  0  0
  5  8  1  0  0  0  0
  5 12  1  0  0  0  0
  5 14  1  0  0  0  0
  6  7  1  0  0  0  0
  8  9  1  0  0  0  0
 10 11  1  0  0  0  0
 12 13  1  0  0  0  0
 14 15  1  0  0  0  0
 14 18  1  0  0  0  0
 15 16  2  0  0  0  0
 15 17  1  0  0  0  0
 18 19  2  0  0  0  0
 19 20  1  0  0  0  0
 19 21  1  0  0  0  0
M  END
