32673
 OpenBabel03021519512D

 25 27  0  0  0  0  0  0  0  0999 V2000
   -2.3236    3.4755    0.0000 C   0  0  0  0  0  0  0  0  0  0  0  0
   -2.3236    1.9755    0.0000 C   0  0  0  0  0  0  0  0  0  0  0  0
   -3.6226    4.2255    0.0000 C   0  0  0  0  0  0  0  0  0  0  0  0
   -4.9216    3.4755    0.0000 C   0  0  0  0  0  0  0  0  0  0  0  0
   -3.6226    1.2255    0.0000 C   0  0  0  0  0  0  0  0  0  0  0  0
   -4.9216    1.9755    0.0000 C   0  0  0  0  0  0  0  0  0  0  0  0
   -8.8188   -0.2745    0.0000 C   0  0  0  0  0  0  0  0  0  0  0  0
  -10.1178   -1.0245    0.0000 C   0  0  0  0  0  0  0  0  0  0  0  0
   -7.5197   -1.0245    0.0000 C   0  0  0  0  0  0  0  0  0  0  0  0
  -11.4168   -0.2745    0.0000 C   0  0  0  0  0  0  0  0  0  0  0  0
  -12.7159   -1.0245    0.0000 C   0  0  0  0  0  0  0  0  0  0  0  0
   -7.5197   -2.5245    0.0000 C   0  0  0  0  0  0  0  0  0  0  0  0
  -10.1178   -2.5245    0.0000 C   0  0  0  0  0  0  0  0  0  0  0  0
  -12.7159   -2.5245    0.0000 C   0  0  0  0  0  0  0  0  0  0  0  0
   -8.8187   -3.2745    0.0000 C   0  0  0  0  0  0  0  0  0  0  0  0
  -11.4168   -3.2745    0.0000 C   0  0  0  0  0  0  0  0  0  0  0  0
   -1.0245    1.2255    0.0000 C   0  0  0  0  0  0  0  0  0  0  0  0
   -1.0245   -0.2745    0.0000 C   0  0  0  0  0  0  0  0  0  0  0  0
    0.2745    1.9755    0.0000 C   0  0  0  0  0  0  0  0  0  0  0  0
   -1.0245    4.2255    0.0000 O   0  0  0  0  0  0  0  0  0  0  0  0
   -6.2207    1.2255    0.0000 N   0  0  0  0  0  0  0  0  0  0  0  0
   -7.5197    1.9755    0.0000 C   0  0  0  0  0  0  0  0  0  0  0  0
   -7.5197    3.4755    0.0000 O   0  0  0  0  0  0  0  0  0  0  0  0
   -8.8188    1.2255    0.0000 N   0  0  0  0  0  0  0  0  0  0  0  0
   -6.2207    4.2255    0.0000 C   0  0  0  0  0  0  0  0  0  0  0  0
  1  3  2  0  0  0  0
  1  2  1  0  0  0  0
  1 20  1  0  0  0  0
  2  5  2  0  0  0  0
  2 17  1  0  0  0  0
  3  4  1  0  0  0  0
  4  6  2  0  0  0  0
  4 25  1  0  0  0  0
  5  6  1  0  0  0  0
  6 21  1  0  0  0  0
  7  9  2  0  0  0  0
  7  8  1  0  0  0  0
  7 24  1  0  0  0  0
  8 13  2  0  0  0  0
  8 10  1  0  0  0  0
  9 12  1  0  0  0  0
 10 11  2  0  0  0  0
 11 14  1  0  0  0  0
 12 15  2  0  0  0  0
 13 15  1  0  0  0  0
 13 16  1  0  0  0  0
 14 16  2  0  0  0  0
 17 18  1  0  0  0  0
 17 19  1  0  0  0  0
 21 22  1  0  0  0  0
 22 23  2  0  0  0  0
 22 24  1  0  0  0  0
M  END
