77596
 OpenBabel03021519512D

 16 17  0  0  0  0  0  0  0  0999 V2000
   -6.8202   -6.3036    0.0000 N   0  0  0  0  0  0  0  0  0  0  0  0
   -5.5211   -8.5536    0.0000 N   0  0  0  0  0  0  0  0  0  0  0  0
   -5.5211   -4.0536    0.0000 Cl  0  0  0  0  0  0  0  0  0  0  0  0
   -0.2537   -3.9138    0.0000 O   0  0  0  0  0  0  0  0  0  0  0  0
   -1.4672   -1.8119    0.0000 O   0  0  0  0  0  0  0  0  0  0  0  0
   -5.5211   -5.5536    0.0000 C   0  0  0  0  0  0  0  0  0  0  0  0
   -4.2221   -6.3036    0.0000 C   0  0  0  0  0  0  0  0  0  0  0  0
   -4.2221   -7.8036    0.0000 C   0  0  0  0  0  0  0  0  0  0  0  0
    0.0000   -1.5000    0.0000 C   0  0  0  0  0  0  0  0  0  0  0  0
    0.7500   -2.7990    0.0000 C   0  0  0  0  0  0  0  0  0  0  0  0
   -1.6240   -3.3036    0.0000 C   0  0  0  0  0  0  0  0  0  0  0  0
   -6.8202   -7.8036    0.0000 C   0  0  0  0  0  0  0  0  0  0  0  0
   -8.1192   -8.5536    0.0000 N   0  0  0  0  0  0  0  0  0  0  0  0
   -2.9231   -8.5536    0.0000 C   0  0  0  0  0  0  0  0  0  0  0  0
   -2.9231   -5.5536    0.0000 C   0  0  0  0  0  0  0  0  0  0  0  0
   -2.9231   -4.0536    0.0000 C   0  0  0  0  0  0  0  0  0  0  0  0
  1  6  2  0  0  0  0
  1 12  1  0  0  0  0
  2 12  2  0  0  0  0
  2  8  1  0  0  0  0
  3  6  1  0  0  0  0
  4 10  1  0  0  0  0
  4 11  1  0  0  0  0
  5  9  1  0  0  0  0
  5 11  1  0  0  0  0
  6  7  1  0  0  0  0
  7  8  2  0  0  0  0
  7 15  1  0  0  0  0
  8 14  1  0  0  0  0
  9 10  1  0  0  0  0
 11 16  1  0  0  0  0
 12 13  1  0  0  0  0
 15 16  1  0  0  0  0
M  END
