5856
 OpenBabel03021519512D

 31 33  0  0  0  0  0  0  0  0999 V2000
   -0.9140   -3.0375    0.0000 C   0  0  0  0  0  0  0  0  0  0  0  0
    0.2350   -2.0734    0.0000 C   0  0  0  0  0  0  0  0  0  0  0  0
   -0.6535   -4.5148    0.0000 C   0  0  0  0  0  0  0  0  0  0  0  0
    0.7560   -5.0278    0.0000 C   0  0  0  0  0  0  0  0  0  0  0  0
    1.6446   -2.5864    0.0000 C   0  0  0  0  0  0  0  0  0  0  0  0
    1.9051   -4.0636    0.0000 C   0  0  0  0  0  0  0  0  0  0  0  0
   -4.9216   -2.5245    0.0000 C   0  0  0  0  0  0  0  0  0  0  0  0
   -3.6226   -3.2745    0.0000 C   0  0  0  0  0  0  0  0  0  0  0  0
   -6.2207   -3.2745    0.0000 C   0  0  0  0  0  0  0  0  0  0  0  0
   -3.6226   -4.7745    0.0000 C   0  0  0  0  0  0  0  0  0  0  0  0
   -6.2207   -4.7745    0.0000 C   0  0  0  0  0  0  0  0  0  0  0  0
   -4.9216   -5.5245    0.0000 C   0  0  0  0  0  0  0  0  0  0  0  0
  -12.1555   -5.9301    0.0000 C   0  0  0  0  0  0  0  0  0  0  0  0
  -11.8950   -7.4073    0.0000 C   0  0  0  0  0  0  0  0  0  0  0  0
  -11.0064   -4.9659    0.0000 C   0  0  0  0  0  0  0  0  0  0  0  0
   -9.5969   -5.4790    0.0000 C   0  0  0  0  0  0  0  0  0  0  0  0
  -10.4855   -7.9203    0.0000 C   0  0  0  0  0  0  0  0  0  0  0  0
   -9.3364   -6.9562    0.0000 C   0  0  0  0  0  0  0  0  0  0  0  0
  -11.2669   -3.4887    0.0000 C   0  0  0  0  0  0  0  0  0  0  0  0
  -12.6764   -2.9757    0.0000 O   0  0  0  0  0  0  0  0  0  0  0  0
  -10.1178   -2.5245    0.0000 N   0  0  0  0  0  0  0  0  0  0  0  0
   -8.8188   -3.2745    0.0000 C   0  0  0  0  0  0  0  0  0  0  0  0
   -8.8188   -4.7745    0.0000 S   0  0  0  0  0  0  0  0  0  0  0  0
   -7.5197   -2.5245    0.0000 N   0  0  0  0  0  0  0  0  0  0  0  0
   -7.5197   -5.5245    0.0000 C   0  0  0  0  0  0  0  0  0  0  0  0
   -2.3236   -2.5245    0.0000 N   0  0  0  0  0  0  0  0  0  0  0  0
   -2.5840   -1.0473    0.0000 C   0  0  0  0  0  0  0  0  0  0  0  0
   -3.9936   -0.5343    0.0000 S   0  0  0  0  0  0  0  0  0  0  0  0
   -1.4350   -0.0831    0.0000 N   0  0  0  0  0  0  0  0  0  0  0  0
   -0.0254   -0.5961    0.0000 C   0  0  0  0  0  0  0  0  0  0  0  0
    1.1236    0.3680    0.0000 O   0  0  0  0  0  0  0  0  0  0  0  0
  1  3  2  0  0  0  0
  1  2  1  0  0  0  0
  2  5  2  0  0  0  0
  2 30  1  0  0  0  0
  3  4  1  0  0  0  0
  4  6  2  0  0  0  0
  5  6  1  0  0  0  0
  7  8  2  0  0  0  0
  7  9  1  0  0  0  0
  8 10  1  0  0  0  0
  8 26  1  0  0  0  0
  9 11  2  0  0  0  0
  9 24  1  0  0  0  0
 10 12  2  0  0  0  0
 11 12  1  0  0  0  0
 11 25  1  0  0  0  0
 13 14  2  0  0  0  0
 13 15  1  0  0  0  0
 14 17  1  0  0  0  0
 15 16  2  0  0  0  0
 15 19  1  0  0  0  0
 16 18  1  0  0  0  0
 17 18  2  0  0  0  0
 19 20  2  0  0  0  0
 19 21  1  0  0  0  0
 21 22  1  0  0  0  0
 22 23  2  0  0  0  0
 22 24  1  0  0  0  0
 26 27  1  0  0  0  0
 27 28  2  0  0  0  0
 27 29  1  0  0  0  0
 29 30  1  0  0  0  0
 30 31  2  0  0  0  0
M  END
