645330
 OpenBabel03021519512D

 21 24  0  0  0  0  0  0  0  0999 V2000
    1.1999    4.2415    0.0000 C   0  0  0  0  0  0  0  0  0  0  0  0
    1.1999    2.7415    0.0000 C   0  0  0  0  0  0  0  0  0  0  0  0
    2.4990    1.9915    0.0000 C   0  0  0  0  0  0  0  0  0  0  0  0
    3.7980    2.7415    0.0000 C   0  0  0  0  0  0  0  0  0  0  0  0
    3.7980    4.2415    0.0000 C   0  0  0  0  0  0  0  0  0  0  0  0
    2.4990    4.9915    0.0000 C   0  0  0  0  0  0  0  0  0  0  0  0
    5.2246    2.2780    0.0000 C   0  0  0  0  0  0  0  0  0  0  0  0
    6.1063    3.4915    0.0000 C   0  0  0  0  0  0  0  0  0  0  0  0
    5.2246    4.7050    0.0000 N   0  0  0  0  0  0  0  0  0  0  0  0
    5.8347    0.9076    0.0000 C   0  0  0  0  0  0  0  0  0  0  0  0
    7.3265    0.7508    0.0000 C   0  0  0  0  0  0  0  0  0  0  0  0
    8.2082    1.9644    0.0000 C   0  0  0  0  0  0  0  0  0  0  0  0
    7.5981    3.3347    0.0000 C   0  0  0  0  0  0  0  0  0  0  0  0
    9.6999    1.8076    0.0000 C   0  0  0  0  0  0  0  0  0  0  0  0
    8.4797    4.5482    0.0000 C   0  0  0  0  0  0  0  0  0  0  0  0
    2.4990    0.4915    0.0000 C   0  0  0  0  0  0  0  0  0  0  0  0
    5.6881    6.1316    0.0000 C   0  0  0  0  0  0  0  0  0  0  0  0
    7.8696    5.9185    0.0000 O   0  0  0  0  0  0  0  0  0  0  0  0
    9.9715    4.3914    0.0000 C   0  0  0  0  0  0  0  0  0  0  0  0
   10.5816    3.0211    0.0000 C   0  0  0  0  0  0  0  0  0  0  0  0
   10.3101    0.4373    0.0000 O   0  0  0  0  0  0  0  0  0  0  0  0
  1  2  1  0  0  0  0
  1  6  2  0  0  0  0
  2  3  2  0  0  0  0
  3  4  1  0  0  0  0
  3 16  1  0  0  0  0
  4  5  2  0  0  0  0
  4  7  1  0  0  0  0
  5  6  1  0  0  0  0
  5  9  1  0  0  0  0
  7  8  2  0  0  0  0
  7 10  1  0  0  0  0
  8  9  1  0  0  0  0
  8 13  1  0  0  0  0
  9 17  1  0  0  0  0
 10 11  2  0  0  0  0
 11 12  1  0  0  0  0
 12 13  2  0  0  0  0
 12 14  1  0  0  0  0
 13 15  1  0  0  0  0
 14 20  1  0  0  0  0
 14 21  2  0  0  0  0
 15 18  2  0  0  0  0
 15 19  1  0  0  0  0
 19 20  2  0  0  0  0
M  END
