106231
 OpenBabel03021519512D

 27 30  0  0  1  0  0  0  0  0999 V2000
   -4.7646   -8.5882    0.0000 N   0  0  0  0  0  0  0  0  0  0  0  0
    1.3973   -4.1113    0.0000 N   0  0  0  0  0  0  0  0  0  0  0  0
    3.7708   -5.4816    0.0000 C   0  0  0  0  0  0  0  0  0  0  0  0
    2.2790   -5.3248    0.0000 C   0  0  0  0  0  0  0  0  0  0  0  0
    4.3809   -6.8519    0.0000 C   0  0  0  0  0  0  0  0  0  0  0  0
    3.4992   -8.0654    0.0000 C   0  0  0  0  0  0  0  0  0  0  0  0
    1.3973   -6.5383    0.0000 C   0  0  0  0  0  0  0  0  0  0  0  0
    2.0074   -7.9087    0.0000 C   0  0  0  0  0  0  0  0  0  0  0  0
   -0.0293   -6.0748    0.0000 C   0  0  0  0  0  0  0  0  0  0  0  0
   -0.0293   -4.5748    0.0000 C   0  0  0  0  0  0  0  0  0  0  0  0
   -4.1948  -11.2689    0.0000 C   0  0  0  0  0  0  0  0  0  0  0  0
   -3.0801  -12.2726    0.0000 C   0  0  0  0  0  0  0  0  0  0  0  0
   -3.8829   -9.8017    0.0000 C   0  0  0  0  0  0  0  0  0  0  0  0
   -2.4563   -9.3382    0.0000 C   0  0  0  0  0  0  0  0  0  0  0  0
   -1.6535  -11.8091    0.0000 C   0  0  0  0  0  0  0  0  0  0  0  0
   -2.4563   -7.8382    0.0000 C   0  0  0  0  0  0  0  0  0  0  0  0
   -3.8829   -7.3747    0.0000 C   0  0  0  0  0  0  0  0  0  0  0  0
   -1.3416  -10.3419    0.0000 C   0  0  0  0  0  0  0  0  0  0  0  0
   -6.2646   -8.5882    0.0000 C   0  0  0  0  0  0  0  0  0  0  0  0
   -4.3464   -5.9481    0.0000 C   0  0  0  0  0  0  0  0  0  0  0  0
   -1.2428   -6.9565    0.0000 C   0  0  3  0  0  0  0  0  0  0  0  0
   -2.1245   -5.7430    0.0000 C   0  0  0  0  0  0  0  0  0  0  0  0
   -0.3611   -8.1700    0.0000 C   0  0  0  0  0  0  0  0  0  0  0  0
   -0.9712   -9.5403    0.0000 O   0  0  0  0  0  0  0  0  0  0  0  0
    1.1307   -8.0132    0.0000 O   0  0  0  0  0  0  0  0  0  0  0  0
   -1.2428   -3.6931    0.0000 C   0  0  0  0  0  0  0  0  0  0  0  0
    1.8608   -2.6847    0.0000 C   0  0  0  0  0  0  0  0  0  0  0  0
  1 13  1  0  0  0  0
  1 17  1  0  0  0  0
  1 19  1  0  0  0  0
  2  4  1  0  0  0  0
  2 10  1  0  0  0  0
  2 27  1  0  0  0  0
  3  5  2  0  0  0  0
  3  4  1  0  0  0  0
  4  7  2  0  0  0  0
  5  6  1  0  0  0  0
  6  8  2  0  0  0  0
  7  8  1  0  0  0  0
  7  9  1  0  0  0  0
  9 10  2  0  0  0  0
  9 21  1  0  0  0  0
 10 26  1  0  0  0  0
 11 12  2  0  0  0  0
 11 13  1  0  0  0  0
 12 15  1  0  0  0  0
 13 14  2  0  0  0  0
 14 16  1  0  0  0  0
 14 18  1  0  0  0  0
 15 18  2  0  0  0  0
 16 17  2  0  0  0  0
 16 21  1  0  0  0  0
 17 20  1  0  0  0  0
 21 22  1  0  0  0  0
 21 23  1  0  0  0  0
 23 24  2  0  0  0  0
 23 25  1  0  0  0  0
M  END
