124146
 OpenBabel03021519512D

 20 22  0  0  1  0  0  0  0  0999 V2000
    0.2435   -5.2721    0.0000 H   0  0  0  0  0  0  0  0  0  0  0  0
    1.6701   -4.8085    0.0000 N   0  0  0  0  0  0  0  0  0  0  0  0
    4.0972   -4.8085    0.0000 N   0  0  0  0  0  0  0  0  0  0  0  0
    3.6337   -7.9985    0.0000 N   0  0  0  0  0  0  0  0  0  0  0  0
    5.5238   -5.2720    0.0000 H   0  0  0  0  0  0  0  0  0  0  0  0
    5.5238   -6.1083    0.0000 O   0  0  0  0  0  0  0  0  0  0  0  0
    3.6336   -3.3819    0.0000 C   0  0  3  0  0  0  0  0  0  0  0  0
    2.1336   -3.3819    0.0000 C   0  0  0  0  0  0  0  0  0  0  0  0
    2.8837   -5.6902    0.0000 C   0  0  3  0  0  0  0  0  0  0  0  0
    1.6701   -6.5719    0.0000 C   0  0  0  0  0  0  0  0  0  0  0  0
    4.0972   -6.5719    0.0000 C   0  0  0  0  0  0  0  0  0  0  0  0
    0.2029   -6.2600    0.0000 C   0  0  0  0  0  0  0  0  0  0  0  0
   -0.8008   -7.3747    0.0000 C   0  0  0  0  0  0  0  0  0  0  0  0
    2.1337   -7.9985    0.0000 C   0  0  0  0  0  0  0  0  0  0  0  0
   -0.3373   -8.8013    0.0000 C   0  0  0  0  0  0  0  0  0  0  0  0
    1.1300   -9.1132    0.0000 C   0  0  0  0  0  0  0  0  0  0  0  0
    4.5153   -2.1684    0.0000 C   0  0  0  0  0  0  0  0  0  0  0  0
    4.5153   -9.2120    0.0000 C   0  0  0  0  0  0  0  0  0  0  0  0
    6.0071   -9.0552    0.0000 O   0  0  0  0  0  0  0  0  0  0  0  0
    3.9052  -10.5823    0.0000 C   0  0  0  0  0  0  0  0  0  0  0  0
  1  2  1  0  0  0  0
  2  8  1  0  0  0  0
  2  9  1  0  0  0  0
  3  7  1  0  0  0  0
  3  9  1  0  0  0  0
  3  5  1  0  0  0  0
  4 11  1  0  0  0  0
  4 14  1  0  0  0  0
  4 18  1  0  0  0  0
  6 11  2  0  0  0  0
  7  8  1  0  0  0  0
  7 17  1  0  0  0  0
  9 10  1  0  0  0  0
  9 11  1  0  0  0  0
 10 14  2  0  0  0  0
 10 12  1  0  0  0  0
 12 13  2  0  0  0  0
 13 15  1  0  0  0  0
 14 16  1  0  0  0  0
 15 16  2  0  0  0  0
 18 19  2  0  0  0  0
 18 20  1  0  0  0  0
M  END
