216621
 OpenBabel03021519512D

 24 25  0  0  0  0  0  0  0  0999 V2000
   -9.8684   -3.6228    0.0000 O   0  0  0  0  0  0  0  0  0  0  0  0
   -4.9106   -3.3121    0.0000 C   0  0  0  0  0  0  0  0  0  0  0  0
   -5.9712   -4.3727    0.0000 C   0  0  0  0  0  0  0  0  0  0  0  0
   -3.4106   -3.3121    0.0000 C   0  0  0  0  0  0  0  0  0  0  0  0
   -2.3499   -4.3727    0.0000 C   0  0  0  0  0  0  0  0  0  0  0  0
   -7.2703   -3.6228    0.0000 C   0  0  0  0  0  0  0  0  0  0  0  0
   -8.5693   -4.3728    0.0000 C   0  0  0  0  0  0  0  0  0  0  0  0
   -8.5693   -5.8728    0.0000 C   0  0  0  0  0  0  0  0  0  0  0  0
   -2.3499   -5.8727    0.0000 C   0  0  0  0  0  0  0  0  0  0  0  0
   -7.2702   -6.6228    0.0000 C   0  0  0  0  0  0  0  0  0  0  0  0
   -5.9712   -5.8727    0.0000 C   0  0  0  0  0  0  0  0  0  0  0  0
   -4.9105   -6.9334    0.0000 C   0  0  0  0  0  0  0  0  0  0  0  0
   -3.4105   -6.9334    0.0000 C   0  0  0  0  0  0  0  0  0  0  0  0
  -11.5384   -1.6326    0.0000 C   0  0  0  0  0  0  0  0  0  0  0  0
  -11.7989   -0.1554    0.0000 C   0  0  0  0  0  0  0  0  0  0  0  0
  -12.6875   -2.5968    0.0000 C   0  0  0  0  0  0  0  0  0  0  0  0
  -13.2085    0.3576    0.0000 C   0  0  0  0  0  0  0  0  0  0  0  0
  -14.0970   -2.0838    0.0000 C   0  0  0  0  0  0  0  0  0  0  0  0
  -14.3575   -0.6066    0.0000 C   0  0  0  0  0  0  0  0  0  0  0  0
  -15.7671   -0.0936    0.0000 S   0  0  0  0  0  0  0  0  0  0  0  0
  -16.9161   -1.0578    0.0000 C   0  0  0  0  0  0  0  0  0  0  0  0
  -12.4270   -4.0740    0.0000 N   0  0  0  0  0  0  0  0  0  0  0  0
  -11.0174   -4.5870    0.0000 C   0  0  0  0  0  0  0  0  0  0  0  0
  -10.7569   -6.0642    0.0000 O   0  0  0  0  0  0  0  0  0  0  0  0
  1  7  1  0  0  0  0
  1 23  1  0  0  0  0
  2  3  1  0  0  0  0
  2  4  1  0  0  0  0
  3  6  1  0  0  0  0
  4  5  1  0  0  0  0
  5  9  1  0  0  0  0
  6  7  1  0  0  0  0
  7  8  1  0  0  0  0
  8 10  1  0  0  0  0
  9 13  1  0  0  0  0
 10 11  1  0  0  0  0
 11 12  1  0  0  0  0
 12 13  1  0  0  0  0
 14 15  2  0  0  0  0
 14 16  1  0  0  0  0
 15 17  1  0  0  0  0
 16 18  2  0  0  0  0
 16 22  1  0  0  0  0
 17 19  2  0  0  0  0
 18 19  1  0  0  0  0
 19 20  1  0  0  0  0
 20 21  1  0  0  0  0
 22 23  1  0  0  0  0
 23 24  2  0  0  0  0
M  END
