78846
 OpenBabel03021519512D

 26 27  0  0  0  0  0  0  0  0999 V2000
    8.3713    3.8336    0.0000 C   0  0  0  0  0  0  0  0  0  0  0  0
    7.0468    4.5378    0.0000 C   0  0  0  0  0  0  0  0  0  0  0  0
    7.3073    6.0151    0.0000 C   0  0  0  0  0  0  0  0  0  0  0  0
    9.4503    4.8756    0.0000 C   0  0  0  0  0  0  0  0  0  0  0  0
    8.7927    6.2238    0.0000 C   0  0  0  0  0  0  0  0  0  0  0  0
   13.4175    3.6195    0.0000 C   0  0  0  0  0  0  0  0  0  0  0  0
   12.1184    2.8695    0.0000 C   0  0  0  0  0  0  0  0  0  0  0  0
   14.7165    2.8695    0.0000 C   0  0  0  0  0  0  0  0  0  0  0  0
   14.7165    1.3695    0.0000 C   0  0  0  0  0  0  0  0  0  0  0  0
   12.1184    1.3695    0.0000 C   0  0  0  0  0  0  0  0  0  0  0  0
   13.4175    0.6195    0.0000 C   0  0  0  0  0  0  0  0  0  0  0  0
    9.5204   -1.6305    0.0000 C   0  0  0  0  0  0  0  0  0  0  0  0
    9.5204   -3.1305    0.0000 C   0  0  0  0  0  0  0  0  0  0  0  0
    8.2213   -3.8805    0.0000 C   0  0  0  0  0  0  0  0  0  0  0  0
    9.5203    2.8695    0.0000 N   0  0  0  0  0  0  0  0  0  0  0  0
   10.8194   -0.8805    0.0000 N   0  0  0  0  0  0  0  0  0  0  0  0
   10.8194    3.6195    0.0000 C   0  0  0  0  0  0  0  0  0  0  0  0
   10.8194    5.1195    0.0000 O   0  0  0  0  0  0  0  0  0  0  0  0
    7.5325    2.5901    0.0000 C   0  0  0  0  0  0  0  0  0  0  0  0
    8.1900    1.2419    0.0000 O   0  0  0  0  0  0  0  0  0  0  0  0
   10.8194    0.6195    0.0000 C   0  0  0  0  0  0  0  0  0  0  0  0
    9.5203    1.3695    0.0000 O   0  0  0  0  0  0  0  0  0  0  0  0
    6.0361    2.6947    0.0000 N   0  0  0  0  0  0  0  0  0  0  0  0
    5.3786    4.0429    0.0000 C   0  0  0  0  0  0  0  0  0  0  0  0
    6.2174    5.2865    0.0000 C   0  0  0  0  0  0  0  0  0  0  0  0
    5.5598    6.6347    0.0000 C   0  0  0  0  0  0  0  0  0  0  0  0
  1  2  1  0  0  0  0
  1  4  1  0  0  0  0
  1 15  1  0  0  0  0
  1 19  1  0  0  0  0
  2  3  1  0  0  0  0
  3  5  1  0  0  0  0
  4  5  1  0  0  0  0
  6  8  2  0  0  0  0
  6  7  1  0  0  0  0
  7 10  2  0  0  0  0
  7 17  1  0  0  0  0
  8  9  1  0  0  0  0
  9 11  2  0  0  0  0
 10 11  1  0  0  0  0
 10 21  1  0  0  0  0
 12 13  1  0  0  0  0
 12 16  1  0  0  0  0
 13 14  1  0  0  0  0
 15 17  1  0  0  0  0
 16 21  1  0  0  0  0
 17 18  2  0  0  0  0
 19 20  2  0  0  0  0
 19 23  1  0  0  0  0
 21 22  2  0  0  0  0
 23 24  1  0  0  0  0
 24 25  1  0  0  0  0
 25 26  1  0  0  0  0
M  END
