108783
 OpenBabel03021519512D

 21 23  0  0  0  0  0  0  0  0999 V2000
   -8.2795   -3.2994    0.0000 S   0  0  0  0  0  0  0  0  0  0  0  0
   -5.3565   -2.8531    0.0000 O   0  0  0  0  0  0  0  0  0  0  0  0
   -2.7584   -1.3531    0.0000 H   0  0  0  0  0  0  0  0  0  0  0  0
   -2.7584   -2.8531    0.0000 N   0  0  0  0  0  0  0  0  0  0  0  0
   -2.7584   -7.3531    0.0000 O   0  0  0  0  0  0  0  0  0  0  0  0
   -1.4593   -5.1031    0.0000 N   0  0  0  0  0  0  0  0  0  0  0  0
   -0.1603   -5.8531    0.0000 H   0  0  0  0  0  0  0  0  0  0  0  0
   -0.1603   -2.8531    0.0000 O   0  0  0  0  0  0  0  0  0  0  0  0
  -10.4967   -4.9103    0.0000 C   0  0  0  0  0  0  0  0  0  0  0  0
  -10.9603   -6.3369    0.0000 C   0  0  0  0  0  0  0  0  0  0  0  0
   -9.0295   -4.5985    0.0000 C   0  0  0  0  0  0  0  0  0  0  0  0
   -8.0258   -5.7132    0.0000 C   0  0  0  0  0  0  0  0  0  0  0  0
   -9.9566   -7.4516    0.0000 C   0  0  0  0  0  0  0  0  0  0  0  0
   -8.4893   -7.1398    0.0000 C   0  0  0  0  0  0  0  0  0  0  0  0
   -6.6555   -5.1031    0.0000 C   0  0  0  0  0  0  0  0  0  0  0  0
   -6.8123   -3.6113    0.0000 C   0  0  0  0  0  0  0  0  0  0  0  0
   -1.4593   -3.6031    0.0000 C   0  0  0  0  0  0  0  0  0  0  0  0
   -4.0574   -3.6031    0.0000 C   0  0  0  0  0  0  0  0  0  0  0  0
   -4.0574   -5.1031    0.0000 C   0  0  0  0  0  0  0  0  0  0  0  0
   -2.7584   -5.8531    0.0000 C   0  0  0  0  0  0  0  0  0  0  0  0
   -5.3565   -5.8531    0.0000 C   0  0  0  0  0  0  0  0  0  0  0  0
  1 11  1  0  0  0  0
  1 16  1  0  0  0  0
  2 18  2  0  0  0  0
  3  4  1  0  0  0  0
  4 17  1  0  0  0  0
  4 18  1  0  0  0  0
  5 20  2  0  0  0  0
  6 17  1  0  0  0  0
  6 20  1  0  0  0  0
  6  7  1  0  0  0  0
  8 17  2  0  0  0  0
  9 10  2  0  0  0  0
  9 11  1  0  0  0  0
 10 13  1  0  0  0  0
 11 12  2  0  0  0  0
 12 14  1  0  0  0  0
 12 15  1  0  0  0  0
 13 14  2  0  0  0  0
 15 16  2  0  0  0  0
 15 21  1  0  0  0  0
 18 19  1  0  0  0  0
 19 20  1  0  0  0  0
 19 21  2  0  0  0  0
M  END
