211356
 OpenBabel03021519512D

 26 27  0  0  0  0  0  0  0  0999 V2000
  -11.3163   -8.8995    0.0000 N   0  0  0  0  0  0  0  0  0  0  0  0
  -10.0173  -11.1495    0.0000 N   0  0  0  0  0  0  0  0  0  0  0  0
  -10.0173   -6.6495    0.0000 O   0  0  0  0  0  0  0  0  0  0  0  0
  -10.0173  -12.6495    0.0000 H   0  0  0  0  0  0  0  0  0  0  0  0
   -4.8211   -6.6495    0.0000 O   0  0  0  0  0  0  0  0  0  0  0  0
  -10.0173   -8.1495    0.0000 C   0  0  0  0  0  0  0  0  0  0  0  0
   -8.7183   -8.8995    0.0000 C   0  0  0  0  0  0  0  0  0  0  0  0
   -8.7183  -10.3995    0.0000 C   0  0  0  0  0  0  0  0  0  0  0  0
   -3.5221   -4.3995    0.0000 C   0  0  0  0  0  0  0  0  0  0  0  0
   -3.5221   -5.8995    0.0000 C   0  0  0  0  0  0  0  0  0  0  0  0
   -2.2231   -3.6495    0.0000 C   0  0  0  0  0  0  0  0  0  0  0  0
   -2.2231   -6.6495    0.0000 C   0  0  0  0  0  0  0  0  0  0  0  0
   -0.9240   -4.3995    0.0000 C   0  0  0  0  0  0  0  0  0  0  0  0
   -0.9240   -5.8995    0.0000 C   0  0  0  0  0  0  0  0  0  0  0  0
  -11.3163  -10.3995    0.0000 C   0  0  0  0  0  0  0  0  0  0  0  0
  -13.9144  -10.3995    0.0000 C   0  0  0  0  0  0  0  0  0  0  0  0
  -13.9144   -8.8995    0.0000 O   0  0  0  0  0  0  0  0  0  0  0  0
  -15.2134  -11.1496    0.0000 C   0  0  0  0  0  0  0  0  0  0  0  0
  -12.6154  -11.1495    0.0000 N   0  0  0  0  0  0  0  0  0  0  0  0
   -7.4192  -11.1495    0.0000 C   0  0  0  0  0  0  0  0  0  0  0  0
   -7.4192   -8.1495    0.0000 C   0  0  0  0  0  0  0  0  0  0  0  0
   -7.4192   -6.6495    0.0000 C   0  0  0  0  0  0  0  0  0  0  0  0
   -6.1202   -5.8995    0.0000 C   0  0  0  0  0  0  0  0  0  0  0  0
    0.3750   -3.6495    0.0000 N   0  3  0  0  0  0  0  0  0  0  0  0
    0.3750   -2.1495    0.0000 O   0  5  0  0  0  0  0  0  0  0  0  0
    1.6740   -4.3995    0.0000 O   0  0  0  0  0  0  0  0  0  0  0  0
  1 15  2  0  0  0  0
  1  6  1  0  0  0  0
  2  8  1  0  0  0  0
  2 15  1  0  0  0  0
  2  4  1  0  0  0  0
  3  6  2  0  0  0  0
  5 10  1  0  0  0  0
  5 23  1  0  0  0  0
  6  7  1  0  0  0  0
  7  8  2  0  0  0  0
  7 21  1  0  0  0  0
  8 20  1  0  0  0  0
  9 11  2  0  0  0  0
  9 10  1  0  0  0  0
 10 12  2  0  0  0  0
 11 13  1  0  0  0  0
 12 14  1  0  0  0  0
 13 14  2  0  0  0  0
 13 24  1  0  0  0  0
 15 19  1  0  0  0  0
 16 17  2  0  0  0  0
 16 18  1  0  0  0  0
 16 19  1  0  0  0  0
 21 22  1  0  0  0  0
 22 23  1  0  0  0  0
 24 25  1  0  0  0  0
 24 26  2  0  0  0  0
M  CHG  2  24   1  25  -1
M  END
