55770
 OpenBabel03021519512D

 14 15  0  0  0  0  0  0  0  0999 V2000
    1.4899   -9.4195    0.0000 Cl  0  0  0  0  0  0  0  0  0  0  0  0
    1.4899   -4.9195    0.0000 C   0  0  0  0  0  0  0  0  0  0  0  0
    0.1908   -5.6695    0.0000 C   0  0  0  0  0  0  0  0  0  0  0  0
    2.7889   -5.6695    0.0000 C   0  0  0  0  0  0  0  0  0  0  0  0
   -1.1082   -4.9195    0.0000 C   0  0  0  0  0  0  0  0  0  0  0  0
   -2.4072   -5.6695    0.0000 C   0  0  0  0  0  0  0  0  0  0  0  0
    2.7889   -7.1695    0.0000 C   0  0  0  0  0  0  0  0  0  0  0  0
    0.1908   -7.1695    0.0000 C   0  0  0  0  0  0  0  0  0  0  0  0
   -2.4072   -7.1695    0.0000 C   0  0  0  0  0  0  0  0  0  0  0  0
    1.4899   -7.9195    0.0000 C   0  0  0  0  0  0  0  0  0  0  0  0
   -1.1082   -7.9195    0.0000 C   0  0  0  0  0  0  0  0  0  0  0  0
    1.4899   -3.4195    0.0000 C   0  0  0  0  0  0  0  0  0  0  0  0
    0.1908   -2.6695    0.0000 O   0  0  0  0  0  0  0  0  0  0  0  0
    2.7889   -2.6695    0.0000 N   0  0  0  0  0  0  0  0  0  0  0  0
  1 10  1  0  0  0  0
  2  4  2  0  0  0  0
  2  3  1  0  0  0  0
  2 12  1  0  0  0  0
  3  8  2  0  0  0  0
  3  5  1  0  0  0  0
  4  7  1  0  0  0  0
  5  6  2  0  0  0  0
  6  9  1  0  0  0  0
  7 10  2  0  0  0  0
  8 10  1  0  0  0  0
  8 11  1  0  0  0  0
  9 11  2  0  0  0  0
 12 13  2  0  0  0  0
 12 14  1  0  0  0  0
M  END
