120631
 OpenBabel03021519512D

 19 20  0  0  0  0  0  0  0  0999 V2000
    3.5221   -4.3995    0.0000 O   0  0  0  0  0  0  0  0  0  0  0  0
    5.8202   -2.4711    0.0000 O   0  0  0  0  0  0  0  0  0  0  0  0
    4.9316   -4.9125    0.0000 C   0  0  0  0  0  0  0  0  0  0  0  0
    6.0807   -3.9484    0.0000 C   0  0  0  0  0  0  0  0  0  0  0  0
    5.1921   -6.3898    0.0000 C   0  0  0  0  0  0  0  0  0  0  0  0
    6.6017   -6.9028    0.0000 C   0  0  0  0  0  0  0  0  0  0  0  0
    7.4903   -4.4614    0.0000 C   0  0  0  0  0  0  0  0  0  0  0  0
    7.7507   -5.9386    0.0000 C   0  0  0  0  0  0  0  0  0  0  0  0
    0.9240   -4.3995    0.0000 C   0  0  0  0  0  0  0  0  0  0  0  0
   -0.3750   -5.1495    0.0000 C   0  0  0  0  0  0  0  0  0  0  0  0
    2.2231   -5.1495    0.0000 C   0  0  0  0  0  0  0  0  0  0  0  0
    2.2231   -6.6495    0.0000 C   0  0  0  0  0  0  0  0  0  0  0  0
   -0.3750   -6.6495    0.0000 C   0  0  0  0  0  0  0  0  0  0  0  0
    0.9240   -7.3995    0.0000 C   0  0  0  0  0  0  0  0  0  0  0  0
   -1.6740   -7.3995    0.0000 C   0  0  0  0  0  0  0  0  0  0  0  0
   -2.9731   -6.6495    0.0000 O   0  0  0  0  0  0  0  0  0  0  0  0
   -1.6740   -8.8995    0.0000 O   0  0  0  0  0  0  0  0  0  0  0  0
    3.2616   -2.9223    0.0000 C   0  0  0  0  0  0  0  0  0  0  0  0
    4.4107   -1.9581    0.0000 C   0  0  0  0  0  0  0  0  0  0  0  0
  1 11  1  0  0  0  0
  1 18  1  0  0  0  0
  2  4  1  0  0  0  0
  2 19  1  0  0  0  0
  3  5  2  0  0  0  0
  3  4  1  0  0  0  0
  4  7  2  0  0  0  0
  5  6  1  0  0  0  0
  6  8  2  0  0  0  0
  7  8  1  0  0  0  0
  9 10  2  0  0  0  0
  9 11  1  0  0  0  0
 10 13  1  0  0  0  0
 11 12  2  0  0  0  0
 12 14  1  0  0  0  0
 13 14  2  0  0  0  0
 13 15  1  0  0  0  0
 15 16  2  0  0  0  0
 15 17  1  0  0  0  0
 18 19  1  0  0  0  0
M  END
