215718
 OpenBabel03021519512D

 24 26  0  0  0  0  0  0  0  0999 V2000
   11.7370    8.8910    0.0000 Br  0  0  0  0  0  0  0  0  0  0  0  0
   10.8484    6.4496    0.0000 C   0  0  0  0  0  0  0  0  0  0  0  0
    9.6993    5.4854    0.0000 C   0  0  0  0  0  0  0  0  0  0  0  0
   10.5879    7.9268    0.0000 C   0  0  0  0  0  0  0  0  0  0  0  0
    8.2898    5.9985    0.0000 C   0  0  0  0  0  0  0  0  0  0  0  0
    9.1784    8.4398    0.0000 C   0  0  0  0  0  0  0  0  0  0  0  0
    8.0293    7.4757    0.0000 C   0  0  0  0  0  0  0  0  0  0  0  0
    2.8726    5.5245    0.0000 C   0  0  0  0  0  0  0  0  0  0  0  0
    4.1716    4.7745    0.0000 C   0  0  0  0  0  0  0  0  0  0  0  0
    0.2745    5.5245    0.0000 C   0  0  0  0  0  0  0  0  0  0  0  0
   -1.0245    4.7745    0.0000 C   0  0  0  0  0  0  0  0  0  0  0  0
    1.5736    4.7745    0.0000 C   0  0  0  0  0  0  0  0  0  0  0  0
   -1.0245    3.2745    0.0000 C   0  0  0  0  0  0  0  0  0  0  0  0
    1.5736    3.2745    0.0000 C   0  0  0  0  0  0  0  0  0  0  0  0
    4.1716    3.2745    0.0000 C   0  0  0  0  0  0  0  0  0  0  0  0
    0.2745    2.5245    0.0000 C   0  0  0  0  0  0  0  0  0  0  0  0
    2.8726    2.5245    0.0000 C   0  0  0  0  0  0  0  0  0  0  0  0
    0.2745    1.0245    0.0000 O   0  0  0  0  0  0  0  0  0  0  0  0
    6.6197    7.9887    0.0000 C   0  0  0  0  0  0  0  0  0  0  0  0
    6.3593    9.4659    0.0000 O   0  0  0  0  0  0  0  0  0  0  0  0
    5.4707    7.0245    0.0000 N   0  0  0  0  0  0  0  0  0  0  0  0
    4.1716    7.7745    0.0000 C   0  0  0  0  0  0  0  0  0  0  0  0
    4.1716    9.2745    0.0000 S   0  0  0  0  0  0  0  0  0  0  0  0
    2.8726    7.0245    0.0000 N   0  0  0  0  0  0  0  0  0  0  0  0
  1  4  1  0  0  0  0
  2  4  2  0  0  0  0
  2  3  1  0  0  0  0
  3  5  2  0  0  0  0
  4  6  1  0  0  0  0
  5  7  1  0  0  0  0
  6  7  2  0  0  0  0
  7 19  1  0  0  0  0
  8  9  2  0  0  0  0
  8 12  1  0  0  0  0
  8 24  1  0  0  0  0
  9 15  1  0  0  0  0
 10 11  2  0  0  0  0
 10 12  1  0  0  0  0
 11 13  1  0  0  0  0
 12 14  2  0  0  0  0
 13 16  2  0  0  0  0
 14 16  1  0  0  0  0
 14 17  1  0  0  0  0
 15 17  2  0  0  0  0
 16 18  1  0  0  0  0
 19 20  2  0  0  0  0
 19 21  1  0  0  0  0
 21 22  1  0  0  0  0
 22 23  2  0  0  0  0
 22 24  1  0  0  0  0
M  END
