46075
 OpenBabel03021519512D

 26 28  0  0  0  0  0  0  0  0999 V2000
   -2.6196   -5.1290    0.0000 O   0  5  0  0  0  0  0  0  0  0  0  0
   -1.6843   -6.3018    0.0000 N   0  3  0  0  0  0  0  0  0  0  0  0
   -0.2220   -9.3385    0.0000 N   0  0  0  0  0  0  0  0  0  0  0  0
    4.8479   -6.1532    0.0000 Cl  0  0  0  0  0  0  0  0  0  0  0  0
    0.7794   -1.5808    0.0000 C   0  0  0  0  0  0  0  0  0  0  0  0
   -0.6540   -2.0230    0.0000 C   0  0  0  0  0  0  0  0  0  0  0  0
    1.8790   -2.6011    0.0000 C   0  0  0  0  0  0  0  0  0  0  0  0
    1.5452   -4.0635    0.0000 C   0  0  0  0  0  0  0  0  0  0  0  0
   -0.9878   -3.4854    0.0000 C   0  0  0  0  0  0  0  0  0  0  0  0
    0.1118   -4.5056    0.0000 C   0  0  0  0  0  0  0  0  0  0  0  0
   -0.2220   -5.9680    0.0000 C   0  0  0  0  0  0  0  0  0  0  0  0
    0.9508   -6.9032    0.0000 C   0  0  0  0  0  0  0  0  0  0  0  0
    2.2498   -6.1532    0.0000 C   0  0  0  0  0  0  0  0  0  0  0  0
    3.5489   -6.9032    0.0000 C   0  0  0  0  0  0  0  0  0  0  0  0
    3.5489   -8.4032    0.0000 C   0  0  0  0  0  0  0  0  0  0  0  0
    0.9508   -8.4032    0.0000 C   0  0  0  0  0  0  0  0  0  0  0  0
    2.2498   -9.1532    0.0000 C   0  0  0  0  0  0  0  0  0  0  0  0
   -2.3352   -7.6532    0.0000 C   0  0  0  0  0  0  0  0  0  0  0  0
   -1.6843   -9.0047    0.0000 C   0  0  0  0  0  0  0  0  0  0  0  0
   -5.0381  -11.1266    0.0000 C   0  0  0  0  0  0  0  0  0  0  0  0
   -6.5213  -10.9031    0.0000 C   0  0  0  0  0  0  0  0  0  0  0  0
   -7.4565  -12.0758    0.0000 C   0  0  0  0  0  0  0  0  0  0  0  0
   -4.1028   -9.9539    0.0000 C   0  0  0  0  0  0  0  0  0  0  0  0
   -4.6508   -8.5576    0.0000 O   0  0  0  0  0  0  0  0  0  0  0  0
   -2.6196  -10.1774    0.0000 N   0  0  0  0  0  0  0  0  0  0  0  0
   -2.0716  -11.5737    0.0000 C   0  0  0  0  0  0  0  0  0  0  0  0
  1  2  1  0  0  0  0
  2 11  2  0  0  0  0
  2 18  1  0  0  0  0
  3 19  2  0  0  0  0
  3 16  1  0  0  0  0
  4 14  1  0  0  0  0
  5  7  2  0  0  0  0
  5  6  1  0  0  0  0
  6  9  2  0  0  0  0
  7  8  1  0  0  0  0
  8 10  2  0  0  0  0
  9 10  1  0  0  0  0
 10 11  1  0  0  0  0
 11 12  1  0  0  0  0
 12 16  2  0  0  0  0
 12 13  1  0  0  0  0
 13 14  2  0  0  0  0
 14 15  1  0  0  0  0
 15 17  2  0  0  0  0
 16 17  1  0  0  0  0
 18 19  1  0  0  0  0
 19 25  1  0  0  0  0
 20 21  1  0  0  0  0
 20 23  1  0  0  0  0
 21 22  1  0  0  0  0
 23 24  2  0  0  0  0
 23 25  1  0  0  0  0
 25 26  1  0  0  0  0
M  CHG  2   1  -1   2   1
M  END
