15910
 OpenBabel03021519512D

 22 23  0  0  1  0  0  0  0  0999 V2000
   -2.7721   -4.1986    0.0000 O   0  0  0  0  0  0  0  0  0  0  0  0
   -1.4731   -6.4486    0.0000 O   0  0  0  0  0  0  0  0  0  0  0  0
   -5.3702   -4.1986    0.0000 C   0  0  0  0  0  0  0  0  0  0  0  0
   -6.6692   -4.9486    0.0000 C   0  0  0  0  0  0  0  0  0  0  0  0
   -4.0711   -4.9486    0.0000 C   0  0  0  0  0  0  0  0  0  0  0  0
   -4.0711   -6.4486    0.0000 C   0  0  0  0  0  0  0  0  0  0  0  0
   -6.6692   -6.4486    0.0000 C   0  0  0  0  0  0  0  0  0  0  0  0
   -2.7721   -7.1986    0.0000 C   0  0  3  0  0  0  0  0  0  0  0  0
   -5.3702   -7.1986    0.0000 C   0  0  0  0  0  0  0  0  0  0  0  0
   -1.4731   -4.9486    0.0000 C   0  0  3  0  0  0  0  0  0  0  0  0
   -7.9683   -7.1986    0.0000 S   0  0  0  0  0  0  0  0  0  0  0  0
   -8.7183   -5.8995    0.0000 O   0  0  0  0  0  0  0  0  0  0  0  0
   -9.2673   -7.9486    0.0000 O   0  0  0  0  0  0  0  0  0  0  0  0
   -7.2183   -8.4976    0.0000 O   0  0  0  0  0  0  0  0  0  0  0  0
   -2.7721   -8.6986    0.0000 C   0  0  0  0  0  0  0  0  0  0  0  0
   -4.2721   -8.6986    0.0000 Cl  0  0  0  0  0  0  0  0  0  0  0  0
   -2.7721  -10.1986    0.0000 Cl  0  0  0  0  0  0  0  0  0  0  0  0
   -1.2721   -8.6986    0.0000 Cl  0  0  0  0  0  0  0  0  0  0  0  0
   -0.1740   -4.1986    0.0000 C   0  0  0  0  0  0  0  0  0  0  0  0
   -0.9240   -2.8995    0.0000 Cl  0  0  0  0  0  0  0  0  0  0  0  0
    0.5760   -5.4976    0.0000 Cl  0  0  0  0  0  0  0  0  0  0  0  0
    1.1250   -3.4486    0.0000 Cl  0  0  0  0  0  0  0  0  0  0  0  0
  1  5  1  0  0  0  0
  1 10  1  0  0  0  0
  2  8  1  0  0  0  0
  2 10  1  0  0  0  0
  3  4  2  0  0  0  0
  3  5  1  0  0  0  0
  4  7  1  0  0  0  0
  5  6  2  0  0  0  0
  6  8  1  0  0  0  0
  6  9  1  0  0  0  0
  7  9  2  0  0  0  0
  7 11  1  0  0  0  0
  8 15  1  0  0  0  0
 10 19  1  0  0  0  0
 11 12  2  0  0  0  0
 11 13  2  0  0  0  0
 11 14  1  0  0  0  0
 15 16  1  0  0  0  0
 15 17  1  0  0  0  0
 15 18  1  0  0  0  0
 19 20  1  0  0  0  0
 19 21  1  0  0  0  0
 19 22  1  0  0  0  0
M  END
