10865
 OpenBabel03021519512D

 15 17  0  0  0  0  0  0  0  0999 V2000
   -4.0818   -2.8750    0.0000 As  0  0  3  0  0  0  0  0  0  0  0  0
   -3.4717   -1.5047    0.0000 O   0  0  0  0  0  0  0  0  0  0  0  0
   -1.3562   -2.5885    0.0000 C   0  0  0  0  0  0  0  0  0  0  0  0
   -0.0571   -3.3385    0.0000 C   0  0  0  0  0  0  0  0  0  0  0  0
   -2.6552   -3.3385    0.0000 C   0  0  0  0  0  0  0  0  0  0  0  0
   -0.0571   -4.8385    0.0000 C   0  0  0  0  0  0  0  0  0  0  0  0
   -2.6552   -4.8385    0.0000 C   0  0  0  0  0  0  0  0  0  0  0  0
   -1.3562   -5.5885    0.0000 C   0  0  0  0  0  0  0  0  0  0  0  0
   -4.0818   -5.3020    0.0000 C   0  0  0  0  0  0  0  0  0  0  0  0
   -6.4553   -4.2453    0.0000 C   0  0  0  0  0  0  0  0  0  0  0  0
   -7.0654   -5.6156    0.0000 C   0  0  0  0  0  0  0  0  0  0  0  0
   -4.9635   -4.0885    0.0000 C   0  0  0  0  0  0  0  0  0  0  0  0
   -6.1837   -6.8292    0.0000 C   0  0  0  0  0  0  0  0  0  0  0  0
   -4.6919   -6.6724    0.0000 C   0  0  0  0  0  0  0  0  0  0  0  0
   -5.3808   -2.1250    0.0000 O   0  0  0  0  0  0  0  0  0  0  0  0
  1  2  2  0  0  0  0
  1  5  1  0  0  0  0
  1 12  1  0  0  0  0
  1 15  1  0  0  0  0
  3  4  2  0  0  0  0
  3  5  1  0  0  0  0
  4  6  1  0  0  0  0
  5  7  2  0  0  0  0
  6  8  2  0  0  0  0
  7  8  1  0  0  0  0
  7  9  1  0  0  0  0
  9 12  2  0  0  0  0
  9 14  1  0  0  0  0
 10 11  2  0  0  0  0
 10 12  1  0  0  0  0
 11 13  1  0  0  0  0
 13 14  2  0  0  0  0
M  END
