14540
 OpenBabel03021519512D

 14 14  0  0  1  0  0  0  0  0999 V2000
   -5.9269   -5.7879    0.0000 O   0  0  0  0  0  0  0  0  0  0  0  0
   -4.6278   -6.5379    0.0000 P   0  0  3  0  0  0  0  0  0  0  0  0
   -4.6278   -8.0379    0.0000 O   0  0  0  0  0  0  0  0  0  0  0  0
   -3.1506   -6.7984    0.0000 O   0  0  0  0  0  0  0  0  0  0  0  0
   -7.2259   -6.5379    0.0000 C   0  0  3  0  0  0  0  0  0  0  0  0
   -7.2259   -8.0379    0.0000 C   0  0  0  0  0  0  0  0  0  0  0  0
   -5.9268   -8.7879    0.0000 C   0  0  3  0  0  0  0  0  0  0  0  0
   -8.5249   -5.7879    0.0000 C   0  0  0  0  0  0  0  0  0  0  0  0
   -5.9268  -10.2879    0.0000 C   0  0  0  0  0  0  0  0  0  0  0  0
   -4.1148   -5.1284    0.0000 O   0  0  0  0  0  0  0  0  0  0  0  0
   -2.6376   -4.8679    0.0000 C   0  0  0  0  0  0  0  0  0  0  0  0
   -2.1245   -3.4583    0.0000 C   0  0  0  0  0  0  0  0  0  0  0  0
   -0.6473   -3.1979    0.0000 C   0  0  0  0  0  0  0  0  0  0  0  0
    0.8299   -2.9374    0.0000 N   0  0  0  0  0  0  0  0  0  0  0  0
  1  2  1  0  0  0  0
  1  5  1  0  0  0  0
  2  4  2  0  0  0  0
  2  3  1  0  0  0  0
  2 10  1  0  0  0  0
  3  7  1  0  0  0  0
  5  6  1  0  0  0  0
  5  8  1  0  0  0  0
  6  7  1  0  0  0  0
  7  9  1  0  0  0  0
 10 11  1  0  0  0  0
 11 12  1  0  0  0  0
 12 13  1  0  0  0  0
 13 14  3  0  0  0  0
M  END
