48231
 OpenBabel03021519512D

 11 11  0  0  0  0  0  0  0  0999 V2000
   -4.4457   -2.2331    0.0000 H   0  0  0  0  0  0  0  0  0  0  0  0
   -4.4457   -3.7331    0.0000 N   0  0  0  0  0  0  0  0  0  0  0  0
   -3.6957   -6.0414    0.0000 N   0  0  0  0  0  0  0  0  0  0  0  0
   -5.6592   -4.6148    0.0000 C   0  0  0  0  0  0  0  0  0  0  0  0
   -5.1957   -6.0414    0.0000 C   0  0  0  0  0  0  0  0  0  0  0  0
   -3.2321   -4.6148    0.0000 C   0  0  0  0  0  0  0  0  0  0  0  0
   -1.8056   -4.1512    0.0000 C   0  0  0  0  0  0  0  0  0  0  0  0
   -0.6908   -5.1549    0.0000 C   0  0  0  0  0  0  0  0  0  0  0  0
    0.7357   -4.6914    0.0000 C   0  0  0  0  0  0  0  0  0  0  0  0
   -1.4937   -2.6840    0.0000 C   0  0  0  0  0  0  0  0  0  0  0  0
   -0.0671   -2.2205    0.0000 C   0  0  0  0  0  0  0  0  0  0  0  0
  1  2  1  0  0  0  0
  2  4  1  0  0  0  0
  2  6  1  0  0  0  0
  3  6  2  0  0  0  0
  3  5  1  0  0  0  0
  4  5  2  0  0  0  0
  6  7  1  0  0  0  0
  7  8  1  0  0  0  0
  7 10  1  0  0  0  0
  8  9  1  0  0  0  0
 10 11  1  0  0  0  0
M  END
