55691
 OpenBabel03021519512D

 25 28  0  0  0  0  0  0  0  0999 V2000
  -13.0698  -12.9949    0.0000 Br  0  0  0  0  0  0  0  0  0  0  0  0
  -12.0760   -4.7123    0.0000 S   0  0  0  0  0  0  0  0  0  0  0  0
  -10.4520   -6.5160    0.0000 N   0  0  0  0  0  0  0  0  0  0  0  0
   -9.4941   -4.0205    0.0000 N   0  0  0  0  0  0  0  0  0  0  0  0
   -7.6040   -5.9106    0.0000 S   0  0  0  0  0  0  0  0  0  0  0  0
   -6.8540   -3.6023    0.0000 N   0  0  0  0  0  0  0  0  0  0  0  0
    0.0659   -2.6299    0.0000 Br  0  0  0  0  0  0  0  0  0  0  0  0
   -3.9020   -2.5533    0.0000 C   0  0  0  0  0  0  0  0  0  0  0  0
   -2.4754   -2.0897    0.0000 C   0  0  0  0  0  0  0  0  0  0  0  0
   -4.2138   -4.0205    0.0000 C   0  0  0  0  0  0  0  0  0  0  0  0
   -1.3607   -3.0934    0.0000 C   0  0  0  0  0  0  0  0  0  0  0  0
   -3.0991   -5.0242    0.0000 C   0  0  0  0  0  0  0  0  0  0  0  0
   -5.6404   -4.4840    0.0000 C   0  0  0  0  0  0  0  0  0  0  0  0
   -6.1040   -5.9106    0.0000 C   0  0  0  0  0  0  0  0  0  0  0  0
   -1.6725   -4.5607    0.0000 C   0  0  0  0  0  0  0  0  0  0  0  0
   -8.0675   -4.4840    0.0000 C   0  0  0  0  0  0  0  0  0  0  0  0
  -12.8260   -6.0113    0.0000 C   0  0  0  0  0  0  0  0  0  0  0  0
  -11.8223   -7.1261    0.0000 C   0  0  0  0  0  0  0  0  0  0  0  0
  -12.1342   -8.5933    0.0000 C   0  0  0  0  0  0  0  0  0  0  0  0
  -13.5608   -9.0568    0.0000 C   0  0  0  0  0  0  0  0  0  0  0  0
  -11.0195   -9.5970    0.0000 C   0  0  0  0  0  0  0  0  0  0  0  0
  -11.3313  -11.0642    0.0000 C   0  0  0  0  0  0  0  0  0  0  0  0
  -13.8726  -10.5240    0.0000 C   0  0  0  0  0  0  0  0  0  0  0  0
  -12.7579  -11.5277    0.0000 C   0  0  0  0  0  0  0  0  0  0  0  0
  -10.6088   -5.0242    0.0000 C   0  0  0  0  0  0  0  0  0  0  0  0
  1 24  1  0  0  0  0
  2 17  1  0  0  0  0
  2 25  1  0  0  0  0
  3 18  1  0  0  0  0
  3 25  1  0  0  0  0
  4 16  1  0  0  0  0
  4 25  2  0  0  0  0
  5 14  1  0  0  0  0
  5 16  1  0  0  0  0
  6 13  1  0  0  0  0
  6 16  2  0  0  0  0
  7 11  1  0  0  0  0
  8  9  2  0  0  0  0
  8 10  1  0  0  0  0
  9 11  1  0  0  0  0
 10 12  2  0  0  0  0
 10 13  1  0  0  0  0
 11 15  2  0  0  0  0
 12 15  1  0  0  0  0
 13 14  2  0  0  0  0
 17 18  2  0  0  0  0
 18 19  1  0  0  0  0
 19 21  2  0  0  0  0
 19 20  1  0  0  0  0
 20 23  2  0  0  0  0
 21 22  1  0  0  0  0
 22 24  2  0  0  0  0
 23 24  1  0  0  0  0
M  END
