135381
 OpenBabel03021519512D

 21 25  0  0  1  0  0  0  0  0999 V2000
   -0.4587   -1.6502    0.0000 O   0  0  0  0  0  0  0  0  0  0  0  0
    0.0133   -0.8332    0.0000 S   0  0  0  0  0  0  0  0  0  0  0  0
    0.0133    1.8507    0.0000 O   0  0  0  0  0  0  0  0  0  0  0  0
    0.2441   -1.6982    0.0000 O   0  0  0  0  0  0  0  0  0  0  0  0
    0.0133    0.9857    0.0000 C   0  0  0  0  0  0  0  0  0  0  0  0
   -0.7747    0.5307    0.0000 C   0  0  3  0  0  0  0  0  0  0  0  0
    1.6052    1.0107    0.0000 C   0  0  3  0  0  0  0  0  0  0  0  0
    0.8172    0.5557    0.0000 C   0  0  3  0  0  0  0  0  0  0  0  0
    2.3931    0.5557    0.0000 C   0  0  0  0  0  0  0  0  0  0  0  0
    1.8951    0.2707    0.0000 C   0  0  0  0  0  0  0  0  0  0  0  0
   -1.5627    0.9857    0.0000 C   0  0  3  0  0  0  0  0  0  0  0  0
   -2.3507    0.5307    0.0000 C   0  0  0  0  0  0  0  0  0  0  0  0
   -1.2747    0.2707    0.0000 C   0  0  0  0  0  0  0  0  0  0  0  0
    2.3931   -0.3532    0.0000 C   0  0  0  0  0  0  0  0  0  0  0  0
    0.8172   -0.3532    0.0000 C   0  0  3  0  0  0  0  0  0  0  0  0
   -0.7747   -0.3792    0.0000 C   0  0  3  0  0  0  0  0  0  0  0  0
   -2.3507   -0.3792    0.0000 C   0  0  0  0  0  0  0  0  0  0  0  0
    1.2352   -0.1292    0.0000 C   0  0  0  0  0  0  0  0  0  0  0  0
   -1.9347   -0.1292    0.0000 C   0  0  0  0  0  0  0  0  0  0  0  0
    1.6052   -0.8082    0.0000 C   0  0  3  0  0  0  0  0  0  0  0  0
   -1.5627   -0.8332    0.0000 C   0  0  3  0  0  0  0  0  0  0  0  0
  1  2  2  0  0  0  0
  2  4  2  0  0  0  0
  2 15  1  0  0  0  0
  2 16  1  0  0  0  0
  3  5  2  0  0  0  0
  5  6  1  0  0  0  0
  5  8  1  0  0  0  0
  6 11  1  0  0  0  0
  6 16  1  0  0  0  0
  7  8  1  0  0  0  0
  7  9  1  0  0  0  0
  7 10  1  0  0  0  0
  8 15  1  0  0  0  0
  9 14  1  0  0  0  0
 10 18  2  0  0  0  0
 11 12  1  0  0  0  0
 11 13  1  0  0  0  0
 12 17  2  0  0  0  0
 13 19  1  0  0  0  0
 14 20  1  0  0  0  0
 15 20  1  0  0  0  0
 16 21  1  0  0  0  0
 17 21  1  0  0  0  0
 18 20  1  0  0  0  0
 19 21  1  0  0  0  0
M  END
