138398
 OpenBabel03021519512D

 22 23  0  0  0  0  0  0  0  0999 V2000
   -1.5736    6.2745    0.0000 N   0  0  0  0  0  0  0  0  0  0  0  0
   -1.5736    3.2745    0.0000 N   0  0  0  0  0  0  0  0  0  0  0  0
   -1.5736    1.7745    0.0000 H   0  0  0  0  0  0  0  0  0  0  0  0
    1.0245    3.2745    0.0000 O   0  0  0  0  0  0  0  0  0  0  0  0
   -4.1716    6.2745    0.0000 C   0  0  0  0  0  0  0  0  0  0  0  0
   -2.8726    5.5245    0.0000 C   0  0  0  0  0  0  0  0  0  0  0  0
   -5.4707    5.5245    0.0000 C   0  0  0  0  0  0  0  0  0  0  0  0
   -2.8726    4.0245    0.0000 C   0  0  0  0  0  0  0  0  0  0  0  0
   -5.4707    4.0245    0.0000 C   0  0  0  0  0  0  0  0  0  0  0  0
   -4.1716    3.2745    0.0000 C   0  0  0  0  0  0  0  0  0  0  0  0
   -0.2745    5.5245    0.0000 C   0  0  0  0  0  0  0  0  0  0  0  0
   -0.2745    4.0245    0.0000 C   0  0  0  0  0  0  0  0  0  0  0  0
   -1.5736    7.7745    0.0000 C   0  0  0  0  0  0  0  0  0  0  0  0
   -2.8726    8.5245    0.0000 O   0  0  0  0  0  0  0  0  0  0  0  0
   -0.2745    8.5245    0.0000 C   0  0  0  0  0  0  0  0  0  0  0  0
   -0.2745   10.0245    0.0000 N   0  0  0  0  0  0  0  0  0  0  0  0
   -1.5736   10.7745    0.0000 C   0  0  0  0  0  0  0  0  0  0  0  0
   -1.5736   12.2745    0.0000 C   0  0  0  0  0  0  0  0  0  0  0  0
   -0.2745   13.0245    0.0000 C   0  0  0  0  0  0  0  0  0  0  0  0
    1.0245   10.7745    0.0000 C   0  0  0  0  0  0  0  0  0  0  0  0
    1.0245   12.2745    0.0000 C   0  0  0  0  0  0  0  0  0  0  0  0
    2.3235   13.0245    0.0000 C   0  0  0  0  0  0  0  0  0  0  0  0
  1  6  1  0  0  0  0
  1 11  1  0  0  0  0
  1 13  1  0  0  0  0
  2  8  1  0  0  0  0
  2 12  1  0  0  0  0
  2  3  1  0  0  0  0
  4 12  2  0  0  0  0
  5  7  2  0  0  0  0
  5  6  1  0  0  0  0
  6  8  2  0  0  0  0
  7  9  1  0  0  0  0
  8 10  1  0  0  0  0
  9 10  2  0  0  0  0
 11 12  1  0  0  0  0
 13 14  2  0  0  0  0
 13 15  1  0  0  0  0
 15 16  1  0  0  0  0
 16 17  1  0  0  0  0
 16 20  1  0  0  0  0
 17 18  1  0  0  0  0
 18 19  1  0  0  0  0
 20 21  1  0  0  0  0
 21 22  1  0  0  0  0
M  END
