408860
 OpenBabel03021519512D

 21 22  0  0  0  0  0  0  0  0999 V2000
    5.0053    1.8305    0.0000 C   0  0  0  0  0  0  0  0  0  0  0  0
    3.7063    1.0805    0.0000 C   0  0  0  0  0  0  0  0  0  0  0  0
    6.3044    1.0805    0.0000 C   0  0  0  0  0  0  0  0  0  0  0  0
    5.0053   -2.6695    0.0000 C   0  0  0  0  0  0  0  0  0  0  0  0
    3.7063   -0.4195    0.0000 C   0  0  0  0  0  0  0  0  0  0  0  0
    6.3044   -0.4195    0.0000 C   0  0  0  0  0  0  0  0  0  0  0  0
    6.3044   -3.4195    0.0000 C   0  0  0  0  0  0  0  0  0  0  0  0
    3.7063   -3.4195    0.0000 C   0  0  0  0  0  0  0  0  0  0  0  0
    5.0053   -1.1695    0.0000 C   0  0  0  0  0  0  0  0  0  0  0  0
    6.3044   -4.9195    0.0000 C   0  0  0  0  0  0  0  0  0  0  0  0
    3.7063   -4.9195    0.0000 C   0  0  0  0  0  0  0  0  0  0  0  0
    5.0053   -5.6695    0.0000 C   0  0  0  0  0  0  0  0  0  0  0  0
    2.4073   -1.1695    0.0000 C   0  0  0  0  0  0  0  0  0  0  0  0
    1.1082   -0.4195    0.0000 O   0  0  0  0  0  0  0  0  0  0  0  0
    2.4073    1.8305    0.0000 C   0  0  0  0  0  0  0  0  0  0  0  0
    2.4072    3.3305    0.0000 O   0  0  0  0  0  0  0  0  0  0  0  0
    1.1082    1.0805    0.0000 O   0  0  0  0  0  0  0  0  0  0  0  0
    2.4073   -2.6695    0.0000 N   0  0  0  0  0  0  0  0  0  0  0  0
    7.6034   -2.6695    0.0000 N   0  3  0  0  0  0  0  0  0  0  0  0
    8.9025   -3.4195    0.0000 O   0  5  0  0  0  0  0  0  0  0  0  0
    7.6034   -1.1695    0.0000 O   0  0  0  0  0  0  0  0  0  0  0  0
  1  3  2  0  0  0  0
  1  2  1  0  0  0  0
  2  5  2  0  0  0  0
  2 15  1  0  0  0  0
  3  6  1  0  0  0  0
  4  8  2  0  0  0  0
  4  7  1  0  0  0  0
  5 13  1  0  0  0  0
  5  9  1  0  0  0  0
  6  9  2  0  0  0  0
  7 10  2  0  0  0  0
  7 19  1  0  0  0  0
  8 18  1  0  0  0  0
  8 11  1  0  0  0  0
 10 12  1  0  0  0  0
 11 12  2  0  0  0  0
 13 14  2  0  0  0  0
 13 18  1  0  0  0  0
 15 16  2  0  0  0  0
 15 17  1  0  0  0  0
 19 20  1  0  0  0  0
 19 21  2  0  0  0  0
M  CHG  2  19   1  20  -1
M  END
