379651
 OpenBabel03021519512D

 22 25  0  0  0  0  0  0  0  0999 V2000
    4.6471    5.2500    0.0000 C   0  0  0  0  0  0  0  0  0  0  0  0
    4.6471    3.7500    0.0000 C   0  0  0  0  0  0  0  0  0  0  0  0
    5.9462    6.0000    0.0000 C   0  0  0  0  0  0  0  0  0  0  0  0
    5.9462    3.0000    0.0000 N   0  0  0  0  0  0  0  0  0  0  0  0
    5.9462    7.5000    0.0000 O   0  0  0  0  0  0  0  0  0  0  0  0
    5.9462    1.5000    0.0000 H   0  0  0  0  0  0  0  0  0  0  0  0
    7.2452    3.7500    0.0000 C   0  0  0  0  0  0  0  0  0  0  0  0
    7.2452    5.2500    0.0000 N   0  0  0  0  0  0  0  0  0  0  0  0
    8.6718    3.2865    0.0000 C   0  0  0  0  0  0  0  0  0  0  0  0
    8.6718    5.7135    0.0000 N   0  0  0  0  0  0  0  0  0  0  0  0
    9.5535    4.5000    0.0000 C   0  0  0  0  0  0  0  0  0  0  0  0
   11.0535    4.5000    0.0000 C   0  0  0  0  0  0  0  0  0  0  0  0
   11.9351    3.2865    0.0000 C   0  0  0  0  0  0  0  0  0  0  0  0
   11.9351    5.7135    0.0000 O   0  0  0  0  0  0  0  0  0  0  0  0
   13.3617    3.7500    0.0000 C   0  0  0  0  0  0  0  0  0  0  0  0
   13.3617    5.2500    0.0000 C   0  0  0  0  0  0  0  0  0  0  0  0
    3.3481    3.0000    0.0000 C   0  0  0  0  0  0  0  0  0  0  0  0
    3.3481    1.5000    0.0000 C   0  0  0  0  0  0  0  0  0  0  0  0
    2.0490    0.7500    0.0000 C   0  0  0  0  0  0  0  0  0  0  0  0
    0.7500    1.5000    0.0000 C   0  0  0  0  0  0  0  0  0  0  0  0
    0.7500    3.0000    0.0000 C   0  0  0  0  0  0  0  0  0  0  0  0
    2.0490    3.7500    0.0000 C   0  0  0  0  0  0  0  0  0  0  0  0
  1  3  1  0  0  0  0
  1  2  2  0  0  0  0
  2  4  1  0  0  0  0
  2 17  1  0  0  0  0
  3  5  2  0  0  0  0
  3  8  1  0  0  0  0
  4  7  1  0  0  0  0
  4  6  1  0  0  0  0
  7  8  1  0  0  0  0
  7  9  2  0  0  0  0
  8 10  1  0  0  0  0
  9 11  1  0  0  0  0
 10 11  2  0  0  0  0
 11 12  1  0  0  0  0
 12 14  1  0  0  0  0
 12 13  2  0  0  0  0
 13 15  1  0  0  0  0
 14 16  1  0  0  0  0
 15 16  2  0  0  0  0
 17 18  2  0  0  0  0
 17 22  1  0  0  0  0
 18 19  1  0  0  0  0
 19 20  2  0  0  0  0
 20 21  1  0  0  0  0
 21 22  2  0  0  0  0
M  END
