329284
 OpenBabel03021519512D

 14 15  0  0  0  0  0  0  0  0999 V2000
    1.3296    0.8029    0.0000 C   0  0  0  0  0  0  0  0  0  0  0  0
    2.2113    2.0164    0.0000 C   0  0  0  0  0  0  0  0  0  0  0  0
    2.2113   -0.4106    0.0000 N   0  0  0  0  0  0  0  0  0  0  0  0
    3.6378    1.5529    0.0000 N   0  0  0  0  0  0  0  0  0  0  0  0
    3.6378    0.0529    0.0000 C   0  0  0  0  0  0  0  0  0  0  0  0
    4.9369    3.8029    0.0000 O   0  0  0  0  0  0  0  0  0  0  0  0
    4.9369    2.3029    0.0000 C   0  0  0  0  0  0  0  0  0  0  0  0
    4.9369   -0.6971    0.0000 S   0  0  0  0  0  0  0  0  0  0  0  0
    6.2359    1.5529    0.0000 C   0  0  0  0  0  0  0  0  0  0  0  0
    6.2359    0.0529    0.0000 C   0  0  0  0  0  0  0  0  0  0  0  0
    7.5350   -0.6971    0.0000 C   0  0  0  0  0  0  0  0  0  0  0  0
    8.8340    0.0529    0.0000 O   0  0  0  0  0  0  0  0  0  0  0  0
    7.5350   -2.1971    0.0000 O   0  0  0  0  0  0  0  0  0  0  0  0
    8.8340   -2.9471    0.0000 C   0  0  0  0  0  0  0  0  0  0  0  0
  1  2  1  0  0  0  0
  1  3  1  0  0  0  0
  2  4  1  0  0  0  0
  3  5  2  0  0  0  0
  4  7  1  0  0  0  0
  4  5  1  0  0  0  0
  5  8  1  0  0  0  0
  6  7  2  0  0  0  0
  7  9  1  0  0  0  0
  8 10  1  0  0  0  0
  9 10  2  0  0  0  0
 10 11  1  0  0  0  0
 11 12  2  0  0  0  0
 11 13  1  0  0  0  0
 13 14  1  0  0  0  0
M  END
