319436
 OpenBabel03021519512D

 22 24  0  0  0  0  0  0  0  0999 V2000
   -2.3236  -11.5245    0.0000 O   0  0  0  0  0  0  0  0  0  0  0  0
   -1.0245   -9.2745    0.0000 C   0  0  0  0  0  0  0  0  0  0  0  0
   -1.0245  -10.7745    0.0000 C   0  0  0  0  0  0  0  0  0  0  0  0
    0.2745   -8.5245    0.0000 C   0  0  0  0  0  0  0  0  0  0  0  0
    0.2745  -11.5245    0.0000 N   0  0  0  0  0  0  0  0  0  0  0  0
    0.2745  -13.0245    0.0000 H   0  0  0  0  0  0  0  0  0  0  0  0
    1.5736   -9.2745    0.0000 S   0  0  0  0  0  0  0  0  0  0  0  0
    1.5736  -10.7745    0.0000 C   0  0  0  0  0  0  0  0  0  0  0  0
    1.7303  -12.2663    0.0000 C   0  0  0  0  0  0  0  0  0  0  0  0
    2.9439  -10.1644    0.0000 C   0  0  0  0  0  0  0  0  0  0  0  0
    3.1976  -12.5782    0.0000 C   0  0  0  0  0  0  0  0  0  0  0  0
    1.5736   -6.2745    0.0000 C   0  0  0  0  0  0  0  0  0  0  0  0
    3.9476  -11.2791    0.0000 C   0  0  0  0  0  0  0  0  0  0  0  0
    1.5736   -4.7745    0.0000 C   0  0  0  0  0  0  0  0  0  0  0  0
    2.8726   -7.0245    0.0000 C   0  0  0  0  0  0  0  0  0  0  0  0
    2.8726   -4.0245    0.0000 C   0  0  0  0  0  0  0  0  0  0  0  0
    4.1716   -6.2745    0.0000 C   0  0  0  0  0  0  0  0  0  0  0  0
    4.1716   -4.7745    0.0000 C   0  0  0  0  0  0  0  0  0  0  0  0
   -2.3236   -8.5245    0.0000 C   0  0  0  0  0  0  0  0  0  0  0  0
   -3.6226   -7.7745    0.0000 N   0  0  0  0  0  0  0  0  0  0  0  0
    0.2745   -7.0245    0.0000 N   0  0  0  0  0  0  0  0  0  0  0  0
    2.8726   -2.5245    0.0000 C   0  0  0  0  0  0  0  0  0  0  0  0
  1  3  2  0  0  0  0
  2  4  2  0  0  0  0
  2  3  1  0  0  0  0
  2 19  1  0  0  0  0
  3  5  1  0  0  0  0
  4  7  1  0  0  0  0
  4 21  1  0  0  0  0
  5  8  1  0  0  0  0
  5  6  1  0  0  0  0
  7  8  1  0  0  0  0
  8 10  1  0  0  0  0
  8  9  1  0  0  0  0
  9 11  1  0  0  0  0
 10 13  1  0  0  0  0
 11 13  1  0  0  0  0
 12 14  2  0  0  0  0
 12 15  1  0  0  0  0
 12 21  1  0  0  0  0
 14 16  1  0  0  0  0
 15 17  2  0  0  0  0
 16 18  2  0  0  0  0
 16 22  1  0  0  0  0
 17 18  1  0  0  0  0
 19 20  3  0  0  0  0
M  END
