622175
 OpenBabel03021519512D

 15 16  0  0  0  0  0  0  0  0999 V2000
   -9.8351    4.8122    0.0000 N   0  0  0  0  0  0  0  0  0  0  0  0
   -9.8351    3.3122    0.0000 C   0  0  0  0  0  0  0  0  0  0  0  0
  -11.1341    2.5622    0.0000 N   0  0  0  0  0  0  0  0  0  0  0  0
  -11.1341    1.0622    0.0000 C   0  0  0  0  0  0  0  0  0  0  0  0
   -9.8351    0.3122    0.0000 N   0  0  0  0  0  0  0  0  0  0  0  0
   -8.5361    1.0622    0.0000 C   0  0  0  0  0  0  0  0  0  0  0  0
   -8.5361    2.5622    0.0000 C   0  0  0  0  0  0  0  0  0  0  0  0
   -7.1095    3.0258    0.0000 N   0  0  0  0  0  0  0  0  0  0  0  0
   -6.2278    1.8122    0.0000 C   0  0  0  0  0  0  0  0  0  0  0  0
   -7.1095    0.5987    0.0000 N   0  0  0  0  0  0  0  0  0  0  0  0
   -6.6459   -0.8279    0.0000 C   0  0  0  0  0  0  0  0  0  0  0  0
   -3.7115   -1.4516    0.0000 C   0  0  0  0  0  0  0  0  0  0  0  0
   -2.7078   -0.3369    0.0000 C   0  0  0  0  0  0  0  0  0  0  0  0
   -1.2406   -0.6488    0.0000 O   0  0  0  0  0  0  0  0  0  0  0  0
   -5.1787   -1.1397    0.0000 C   0  0  0  0  0  0  0  0  0  0  0  0
  1  2  1  0  0  0  0
  2  3  2  0  0  0  0
  2  7  1  0  0  0  0
  3  4  1  0  0  0  0
  4  5  2  0  0  0  0
  5  6  1  0  0  0  0
  6  7  2  0  0  0  0
  6 10  1  0  0  0  0
  7  8  1  0  0  0  0
  8  9  2  0  0  0  0
  9 10  1  0  0  0  0
 10 11  1  0  0  0  0
 11 15  2  0  0  0  0
 12 13  1  0  0  0  0
 12 15  2  0  0  0  0
 13 14  1  0  0  0  0
M  END
