154718
 OpenBabel03021519512D

 14 16  0  0  0  0  0  0  0  0999 V2000
   -3.5208   -6.6545    0.0000 N   0  0  0  0  0  0  0  0  0  0  0  0
   -1.9937   -4.5526    0.0000 N   0  0  0  0  0  0  0  0  0  0  0  0
   -0.7802   -3.6709    0.0000 N   0  0  0  0  0  0  0  0  0  0  0  0
   -1.2437   -2.2443    0.0000 C   0  0  0  0  0  0  0  0  0  0  0  0
   -2.7437   -2.2443    0.0000 C   0  0  0  0  0  0  0  0  0  0  0  0
   -3.2072   -3.6709    0.0000 C   0  0  0  0  0  0  0  0  0  0  0  0
   -4.5775   -4.2810    0.0000 C   0  0  0  0  0  0  0  0  0  0  0  0
   -5.7911   -3.3994    0.0000 C   0  0  0  0  0  0  0  0  0  0  0  0
   -7.1614   -4.0095    0.0000 C   0  0  0  0  0  0  0  0  0  0  0  0
   -4.7343   -5.7728    0.0000 C   0  0  0  0  0  0  0  0  0  0  0  0
   -7.3182   -5.5013    0.0000 C   0  0  0  0  0  0  0  0  0  0  0  0
   -6.1046   -6.3829    0.0000 C   0  0  0  0  0  0  0  0  0  0  0  0
   -2.1505   -6.0444    0.0000 C   0  0  0  0  0  0  0  0  0  0  0  0
   -0.3620   -1.0308    0.0000 C   0  0  0  0  0  0  0  0  0  0  0  0
  1 13  2  0  0  0  0
  1 10  1  0  0  0  0
  2  3  1  0  0  0  0
  2  6  1  0  0  0  0
  2 13  1  0  0  0  0
  3  4  2  0  0  0  0
  4  5  1  0  0  0  0
  4 14  1  0  0  0  0
  5  6  2  0  0  0  0
  6  7  1  0  0  0  0
  7 10  2  0  0  0  0
  7  8  1  0  0  0  0
  8  9  2  0  0  0  0
  9 11  1  0  0  0  0
 10 12  1  0  0  0  0
 11 12  2  0  0  0  0
M  END
