117922
 OpenBabel03021519512D

 15 15  0  0  0  0  0  0  0  0999 V2000
    2.0490   -4.5000    0.0000 N   0  0  0  0  0  0  0  0  0  0  0  0
    2.0490   -7.5000    0.0000 N   0  0  0  0  0  0  0  0  0  0  0  0
    3.3481   -5.2500    0.0000 C   0  0  0  0  0  0  0  0  0  0  0  0
    3.3481   -6.7500    0.0000 C   0  0  0  0  0  0  0  0  0  0  0  0
    0.7500   -5.2500    0.0000 C   0  0  0  0  0  0  0  0  0  0  0  0
    0.7500   -6.7500    0.0000 C   0  0  0  0  0  0  0  0  0  0  0  0
    4.6471   -4.5000    0.0000 C   0  0  0  0  0  0  0  0  0  0  0  0
    5.9462   -5.2500    0.0000 O   0  0  0  0  0  0  0  0  0  0  0  0
    4.6471   -7.5000    0.0000 C   0  0  0  0  0  0  0  0  0  0  0  0
    5.9462   -6.7500    0.0000 O   0  0  0  0  0  0  0  0  0  0  0  0
    4.6471   -9.0000    0.0000 O   0  0  0  0  0  0  0  0  0  0  0  0
    4.6471   -3.0000    0.0000 N   0  0  0  0  0  0  0  0  0  0  0  0
    3.3481   -2.2500    0.0000 C   0  0  0  0  0  0  0  0  0  0  0  0
    2.0490   -3.0000    0.0000 O   0  0  0  0  0  0  0  0  0  0  0  0
    3.3481   -0.7500    0.0000 N   0  0  0  0  0  0  0  0  0  0  0  0
  1  3  2  0  0  0  0
  1  5  1  0  0  0  0
  2  4  2  0  0  0  0
  2  6  1  0  0  0  0
  3  4  1  0  0  0  0
  3  7  1  0  0  0  0
  4  9  1  0  0  0  0
  5  6  2  0  0  0  0
  7  8  2  0  0  0  0
  7 12  1  0  0  0  0
  9 10  2  0  0  0  0
  9 11  1  0  0  0  0
 12 13  1  0  0  0  0
 13 14  2  0  0  0  0
 13 15  1  0  0  0  0
M  END
