139257
 OpenBabel03021519512D

 15 16  0  0  0  0  0  0  0  0999 V2000
    3.4555   -0.2630    0.0000 C   0  0  0  0  0  0  0  0  0  0  0  0
    2.9508    2.1110    0.0000 C   0  0  0  0  0  0  0  0  0  0  0  0
    1.6518    1.3610    0.0000 C   0  0  0  0  0  0  0  0  0  0  0  0
    4.0656    1.1074    0.0000 N   0  0  0  0  0  0  0  0  0  0  0  0
    1.9637   -0.1062    0.0000 S   0  0  0  0  0  0  0  0  0  0  0  0
    5.7055   -1.5620    0.0000 C   0  0  0  0  0  0  0  0  0  0  0  0
    6.4555   -0.2630    0.0000 S   0  0  0  0  0  0  0  0  0  0  0  0
    4.2055   -1.5620    0.0000 N   0  0  0  0  0  0  0  0  0  0  0  0
    6.4555   -2.8610    0.0000 N   0  0  0  0  0  0  0  0  0  0  0  0
    7.9555   -2.8610    0.0000 C   0  0  0  0  0  0  0  0  0  0  0  0
    8.7055   -1.5620    0.0000 C   0  0  0  0  0  0  0  0  0  0  0  0
   10.2055   -1.5620    0.0000 C   0  0  0  0  0  0  0  0  0  0  0  0
   10.9555   -2.8610    0.0000 C   0  0  0  0  0  0  0  0  0  0  0  0
   10.2055   -4.1601    0.0000 C   0  0  0  0  0  0  0  0  0  0  0  0
    8.7055   -4.1601    0.0000 C   0  0  0  0  0  0  0  0  0  0  0  0
  1  4  2  0  0  0  0
  1  5  1  0  0  0  0
  1  8  1  0  0  0  0
  2  4  1  0  0  0  0
  2  3  2  0  0  0  0
  3  5  1  0  0  0  0
  6  7  2  0  0  0  0
  6  8  1  0  0  0  0
  6  9  1  0  0  0  0
  9 10  1  0  0  0  0
 10 11  2  0  0  0  0
 10 15  1  0  0  0  0
 11 12  1  0  0  0  0
 12 13  2  0  0  0  0
 13 14  1  0  0  0  0
 14 15  2  0  0  0  0
M  END
