214009
 OpenBabel03021519512D

 27 29  0  0  0  0  0  0  0  0999 V2000
   -4.8212    9.6495    0.0000 N   0  0  0  0  0  0  0  0  0  0  0  0
   -3.5221    8.8995    0.0000 N   0  0  0  0  0  0  0  0  0  0  0  0
    2.9731   11.1495    0.0000 F   0  0  0  0  0  0  0  0  0  0  0  0
   -4.8212   14.1495    0.0000 C   0  0  0  0  0  0  0  0  0  0  0  0
   -6.1202   13.3995    0.0000 C   0  0  0  0  0  0  0  0  0  0  0  0
   -3.5221   13.3995    0.0000 C   0  0  0  0  0  0  0  0  0  0  0  0
   -3.5221   11.8995    0.0000 C   0  0  0  0  0  0  0  0  0  0  0  0
   -6.1202   11.8995    0.0000 C   0  0  0  0  0  0  0  0  0  0  0  0
   -4.8212   11.1495    0.0000 C   0  0  0  0  0  0  0  0  0  0  0  0
   -3.5221    7.3995    0.0000 C   0  0  0  0  0  0  0  0  0  0  0  0
   -4.8212    6.6495    0.0000 C   0  0  0  0  0  0  0  0  0  0  0  0
   -2.2231    6.6495    0.0000 C   0  0  0  0  0  0  0  0  0  0  0  0
   -4.8212    5.1495    0.0000 C   0  0  0  0  0  0  0  0  0  0  0  0
   -2.2231    5.1495    0.0000 C   0  0  0  0  0  0  0  0  0  0  0  0
   -3.5221    4.3995    0.0000 C   0  0  0  0  0  0  0  0  0  0  0  0
   -0.9241   11.8995    0.0000 C   0  0  0  0  0  0  0  0  0  0  0  0
    0.3750   11.1495    0.0000 C   0  0  0  0  0  0  0  0  0  0  0  0
   -0.9241   13.3995    0.0000 C   0  0  0  0  0  0  0  0  0  0  0  0
    1.6740   11.8995    0.0000 C   0  0  0  0  0  0  0  0  0  0  0  0
    0.3750   14.1495    0.0000 C   0  0  0  0  0  0  0  0  0  0  0  0
    1.6740   13.3995    0.0000 C   0  0  0  0  0  0  0  0  0  0  0  0
   -4.8212   15.6495    0.0000 C   0  0  0  0  0  0  0  0  0  0  0  0
   -3.5221    2.8995    0.0000 C   0  0  0  0  0  0  0  0  0  0  0  0
   -0.9241    7.3995    0.0000 N   0  0  0  0  0  0  0  0  0  0  0  0
   -0.9241    8.8995    0.0000 C   0  0  0  0  0  0  0  0  0  0  0  0
   -2.2231    9.6495    0.0000 O   0  0  0  0  0  0  0  0  0  0  0  0
    0.3750    9.6495    0.0000 N   0  0  0  0  0  0  0  0  0  0  0  0
  1  2  2  0  0  0  0
  1  9  1  0  0  0  0
  2 10  1  0  0  0  0
  3 19  1  0  0  0  0
  4  5  2  0  0  0  0
  4  6  1  0  0  0  0
  4 22  1  0  0  0  0
  5  8  1  0  0  0  0
  6  7  2  0  0  0  0
  7  9  1  0  0  0  0
  8  9  2  0  0  0  0
 10 12  2  0  0  0  0
 10 11  1  0  0  0  0
 11 13  2  0  0  0  0
 12 14  1  0  0  0  0
 12 24  1  0  0  0  0
 13 15  1  0  0  0  0
 14 15  2  0  0  0  0
 15 23  1  0  0  0  0
 16 18  2  0  0  0  0
 16 17  1  0  0  0  0
 17 19  2  0  0  0  0
 17 27  1  0  0  0  0
 18 20  1  0  0  0  0
 19 21  1  0  0  0  0
 20 21  2  0  0  0  0
 24 25  1  0  0  0  0
 25 26  2  0  0  0  0
 25 27  1  0  0  0  0
M  END
