636717
 OpenBabel03021519512D

 19 21  0  0  0  0  0  0  0  0999 V2000
    7.3165    5.1101    0.0000 C   0  0  0  0  0  0  0  0  0  0  0  0
    5.9462    4.5000    0.0000 C   0  0  0  0  0  0  0  0  0  0  0  0
    6.1029    3.0082    0.0000 C   0  0  0  0  0  0  0  0  0  0  0  0
    7.5702    2.6964    0.0000 C   0  0  0  0  0  0  0  0  0  0  0  0
    8.3202    3.9954    0.0000 C   0  0  0  0  0  0  0  0  0  0  0  0
    7.6283    6.5773    0.0000 O   0  0  0  0  0  0  0  0  0  0  0  0
    9.8202    3.9954    0.0000 C   0  0  0  0  0  0  0  0  0  0  0  0
   10.5702    2.6964    0.0000 C   0  0  0  0  0  0  0  0  0  0  0  0
    9.8202    1.3973    0.0000 C   0  0  0  0  0  0  0  0  0  0  0  0
    8.3202    1.3973    0.0000 C   0  0  0  0  0  0  0  0  0  0  0  0
    0.7500    4.5000    0.0000 C   0  0  0  0  0  0  0  0  0  0  0  0
    2.0490    5.2500    0.0000 C   0  0  0  0  0  0  0  0  0  0  0  0
    3.3481    4.5000    0.0000 C   0  0  0  0  0  0  0  0  0  0  0  0
    3.3481    3.0000    0.0000 C   0  0  0  0  0  0  0  0  0  0  0  0
    2.0490    2.2500    0.0000 C   0  0  0  0  0  0  0  0  0  0  0  0
    0.7500    3.0000    0.0000 C   0  0  0  0  0  0  0  0  0  0  0  0
    4.6471    5.2500    0.0000 C   0  0  0  0  0  0  0  0  0  0  0  0
    4.6471    2.2500    0.0000 O   0  0  0  0  0  0  0  0  0  0  0  0
    4.6471    0.7500    0.0000 C   0  0  0  0  0  0  0  0  0  0  0  0
  1  2  1  0  0  0  0
  1  5  1  0  0  0  0
  1  6  2  0  0  0  0
  2  3  1  0  0  0  0
  2 17  2  0  0  0  0
  3  4  1  0  0  0  0
  4  5  2  0  0  0  0
  4 10  1  0  0  0  0
  5  7  1  0  0  0  0
  7  8  2  0  0  0  0
  8  9  1  0  0  0  0
  9 10  2  0  0  0  0
 11 12  2  0  0  0  0
 11 16  1  0  0  0  0
 12 13  1  0  0  0  0
 13 14  2  0  0  0  0
 13 17  1  0  0  0  0
 14 15  1  0  0  0  0
 14 18  1  0  0  0  0
 15 16  2  0  0  0  0
 18 19  1  0  0  0  0
M  END
