29193
 OpenBabel03021519512D

 14 15  0  0  0  0  0  0  0  0999 V2000
   -1.6660    4.3855    0.0000 S   0  0  0  0  0  0  0  0  0  0  0  0
   -0.3669    6.6355    0.0000 N   0  0  0  0  0  0  0  0  0  0  0  0
    0.9321    4.3855    0.0000 N   0  0  0  0  0  0  0  0  0  0  0  0
    0.9321    2.8855    0.0000 H   0  0  0  0  0  0  0  0  0  0  0  0
    3.6577    7.0991    0.0000 N   0  0  0  0  0  0  0  0  0  0  0  0
    4.1213    8.5256    0.0000 H   0  0  0  0  0  0  0  0  0  0  0  0
    3.6577    4.6720    0.0000 N   0  0  0  0  0  0  0  0  0  0  0  0
    4.1213    3.2454    0.0000 H   0  0  0  0  0  0  0  0  0  0  0  0
    6.0394    5.8855    0.0000 S   0  0  0  0  0  0  0  0  0  0  0  0
    0.9321    7.3855    0.0000 C   0  0  0  0  0  0  0  0  0  0  0  0
    2.2312    6.6355    0.0000 C   0  0  0  0  0  0  0  0  0  0  0  0
    2.2312    5.1355    0.0000 C   0  0  0  0  0  0  0  0  0  0  0  0
    4.5394    5.8855    0.0000 C   0  0  0  0  0  0  0  0  0  0  0  0
   -0.3669    5.1355    0.0000 C   0  0  0  0  0  0  0  0  0  0  0  0
  1 14  2  0  0  0  0
  2 10  2  0  0  0  0
  2 14  1  0  0  0  0
  3 12  1  0  0  0  0
  3 14  1  0  0  0  0
  3  4  1  0  0  0  0
  5 11  1  0  0  0  0
  5 13  1  0  0  0  0
  5  6  1  0  0  0  0
  7 12  1  0  0  0  0
  7 13  1  0  0  0  0
  7  8  1  0  0  0  0
  9 13  2  0  0  0  0
 10 11  1  0  0  0  0
 11 12  2  0  0  0  0
M  END
