311074
 OpenBabel03021519512D

 16 17  0  0  0  0  0  0  0  0999 V2000
   -3.1524    1.0280    0.0000 N   0  0  0  0  0  0  0  0  0  0  0  0
   -3.1164   -0.4716    0.0000 C   0  0  0  0  0  0  0  0  0  0  0  0
   -1.6791   -0.9007    0.0000 N   0  0  0  0  0  0  0  0  0  0  0  0
   -0.8268    0.3337    0.0000 C   0  0  0  0  0  0  0  0  0  0  0  0
   -1.7374    1.5257    0.0000 C   0  0  0  0  0  0  0  0  0  0  0  0
    0.6728    0.3697    0.0000 S   0  0  0  0  0  0  0  0  0  0  0  0
    1.4538   -0.9110    0.0000 C   0  0  0  0  0  0  0  0  0  0  0  0
    0.8768   -2.2955    0.0000 N   0  0  0  0  0  0  0  0  0  0  0  0
    2.9489   -1.0319    0.0000 N   0  0  0  0  0  0  0  0  0  0  0  0
    3.9255    0.1066    0.0000 H   0  0  0  0  0  0  0  0  0  0  0  0
    3.2959   -2.4912    0.0000 C   0  0  0  0  0  0  0  0  0  0  0  0
    2.0153   -3.2722    0.0000 N   0  0  0  0  0  0  0  0  0  0  0  0
   -1.1814   -2.3157    0.0000 C   0  0  0  0  0  0  0  0  0  0  0  0
   -1.3082    2.9630    0.0000 N   0  3  0  0  0  0  0  0  0  0  0  0
    0.1511    3.3100    0.0000 O   0  5  0  0  0  0  0  0  0  0  0  0
   -2.3384    4.0532    0.0000 O   0  0  0  0  0  0  0  0  0  0  0  0
  1  5  1  0  0  0  0
  1  2  2  0  0  0  0
  2  3  1  0  0  0  0
  3  4  1  0  0  0  0
  3 13  1  0  0  0  0
  4  5  2  0  0  0  0
  4  6  1  0  0  0  0
  5 14  1  0  0  0  0
  6  7  1  0  0  0  0
  7  8  2  0  0  0  0
  7  9  1  0  0  0  0
  8 12  1  0  0  0  0
  9 11  1  0  0  0  0
  9 10  1  0  0  0  0
 11 12  2  0  0  0  0
 14 15  1  0  0  0  0
 14 16  2  0  0  0  0
M  CHG  2  14   1  15  -1
M  END
