317003
 OpenBabel03021519512D

 24 25  0  0  0  0  0  0  0  0999 V2000
   -9.3678   -7.7746    0.0000 C   0  0  0  0  0  0  0  0  0  0  0  0
   -9.3678   -9.2746    0.0000 C   0  0  0  0  0  0  0  0  0  0  0  0
   -8.0687   -7.0245    0.0000 C   0  0  0  0  0  0  0  0  0  0  0  0
   -8.0687  -10.0246    0.0000 C   0  0  0  0  0  0  0  0  0  0  0  0
   -6.7697   -7.7745    0.0000 C   0  0  0  0  0  0  0  0  0  0  0  0
   -6.7697   -9.2745    0.0000 C   0  0  0  0  0  0  0  0  0  0  0  0
   -5.4707   -5.5245    0.0000 O   0  0  0  0  0  0  0  0  0  0  0  0
   -5.4706   -7.0245    0.0000 C   0  0  0  0  0  0  0  0  0  0  0  0
   -5.4706  -10.0245    0.0000 S   0  0  0  0  0  0  0  0  0  0  0  0
   -4.1716   -7.7745    0.0000 C   0  0  0  0  0  0  0  0  0  0  0  0
   -4.1716   -9.2745    0.0000 C   0  0  0  0  0  0  0  0  0  0  0  0
   -2.8726   -7.0245    0.0000 C   0  0  0  0  0  0  0  0  0  0  0  0
   -2.8726  -10.0245    0.0000 C   0  0  0  0  0  0  0  0  0  0  0  0
   -1.5735   -9.2745    0.0000 C   0  0  0  0  0  0  0  0  0  0  0  0
   -1.5735   -7.7745    0.0000 C   0  0  0  0  0  0  0  0  0  0  0  0
   -0.2745   -2.5245    0.0000 N   0  0  0  0  0  0  0  0  0  0  0  0
  -10.6668   -7.0246    0.0000 O   0  0  0  0  0  0  0  0  0  0  0  0
   -2.8726   -5.5245    0.0000 N   0  0  0  0  0  0  0  0  0  0  0  0
   -2.8726  -11.5245    0.0000 C   0  0  0  0  0  0  0  0  0  0  0  0
   -1.5735   -4.7745    0.0000 C   0  0  0  0  0  0  0  0  0  0  0  0
   -1.5735   -3.2745    0.0000 C   0  0  0  0  0  0  0  0  0  0  0  0
    1.0245   -3.2745    0.0000 C   0  0  0  0  0  0  0  0  0  0  0  0
   -0.2745   -1.0245    0.0000 C   0  0  0  0  0  0  0  0  0  0  0  0
   -0.8235  -12.0736    0.0000 I   0  0  0  0  0  0  0  0  0  0  0  0
  1  3  2  0  0  0  0
  1  2  1  0  0  0  0
  1 17  1  0  0  0  0
  2  4  2  0  0  0  0
  3  5  1  0  0  0  0
  4  6  1  0  0  0  0
  5  8  1  0  0  0  0
  5  6  2  0  0  0  0
  6  9  1  0  0  0  0
  7  8  2  0  0  0  0
  8 10  1  0  0  0  0
  9 11  1  0  0  0  0
 10 12  1  0  0  0  0
 10 11  2  0  0  0  0
 11 13  1  0  0  0  0
 12 15  2  0  0  0  0
 12 18  1  0  0  0  0
 13 14  2  0  0  0  0
 13 19  1  0  0  0  0
 14 15  1  0  0  0  0
 16 21  1  0  0  0  0
 16 22  1  0  0  0  0
 16 23  1  0  0  0  0
 18 20  1  0  0  0  0
 20 21  1  0  0  0  0
M  END
