280058
 OpenBabel03021519512D

 31 33  0  0  1  0  0  0  0  0999 V2000
    4.9216    2.5245    0.0000 O   0  0  0  0  0  0  0  0  0  0  0  0
    6.2207    1.7745    0.0000 C   0  0  0  0  0  0  0  0  0  0  0  0
    6.2207    0.2745    0.0000 C   0  0  0  0  0  0  0  0  0  0  0  0
    7.5197    2.5245    0.0000 C   0  0  0  0  0  0  0  0  0  0  0  0
    7.5197   -0.4755    0.0000 C   0  0  0  0  0  0  0  0  0  0  0  0
    7.5197   -1.9755    0.0000 O   0  0  0  0  0  0  0  0  0  0  0  0
    8.8187    0.2745    0.0000 C   0  0  0  0  0  0  0  0  0  0  0  0
    8.8187    1.7745    0.0000 C   0  0  0  0  0  0  0  0  0  0  0  0
   10.2453    2.2380    0.0000 O   0  0  0  0  0  0  0  0  0  0  0  0
   11.1270    1.0245    0.0000 C   0  0  3  0  0  0  0  0  0  0  0  0
   10.2453   -0.1890    0.0000 C   0  0  3  0  0  0  0  0  0  0  0  0
   12.6188    0.8677    0.0000 C   0  0  0  0  0  0  0  0  0  0  0  0
   10.8555   -1.5593    0.0000 C   0  0  0  0  0  0  0  0  0  0  0  0
   13.2289   -0.5026    0.0000 C   0  0  0  0  0  0  0  0  0  0  0  0
   12.3472   -1.7161    0.0000 C   0  0  0  0  0  0  0  0  0  0  0  0
   14.7207   -0.6594    0.0000 O   0  0  0  0  0  0  0  0  0  0  0  0
    3.6226    1.7745    0.0000 C   0  0  0  0  0  0  0  0  0  0  0  0
    2.3236    2.5245    0.0000 O   0  0  0  0  0  0  0  0  0  0  0  0
    3.6226    0.2745    0.0000 C   0  0  0  0  0  0  0  0  0  0  0  0
    4.9216   -0.4755    0.0000 C   0  0  0  0  0  0  0  0  0  0  0  0
    7.5197    4.0245    0.0000 C   0  0  0  0  0  0  0  0  0  0  0  0
    6.2207    4.7745    0.0000 O   0  0  0  0  0  0  0  0  0  0  0  0
    8.8187    4.7745    0.0000 C   0  0  0  0  0  0  0  0  0  0  0  0
    6.2207   -2.7255    0.0000 C   0  0  0  0  0  0  0  0  0  0  0  0
    4.9216   -1.9755    0.0000 O   0  0  0  0  0  0  0  0  0  0  0  0
    6.2207   -4.2255    0.0000 C   0  0  0  0  0  0  0  0  0  0  0  0
    9.2416   -1.3037    0.0000 C   0  0  0  0  0  0  0  0  0  0  0  0
    9.9738   -2.7729    0.0000 O   0  0  0  0  0  0  0  0  0  0  0  0
   12.9573   -3.0864    0.0000 C   0  0  0  0  0  0  0  0  0  0  0  0
   14.4491   -3.2432    0.0000 O   0  0  0  0  0  0  0  0  0  0  0  0
   12.0757   -4.3000    0.0000 C   0  0  0  0  0  0  0  0  0  0  0  0
  1  2  1  0  0  0  0
  1 17  1  0  0  0  0
  2  4  2  0  0  0  0
  2  3  1  0  0  0  0
  3  5  2  0  0  0  0
  3 20  1  0  0  0  0
  4  8  1  0  0  0  0
  4 21  1  0  0  0  0
  5  7  1  0  0  0  0
  5  6  1  0  0  0  0
  6 24  1  0  0  0  0
  7  8  2  0  0  0  0
  7 11  1  0  0  0  0
  8  9  1  0  0  0  0
  9 10  1  0  0  0  0
 10 12  1  0  0  0  0
 10 11  1  0  0  0  0
 11 13  1  0  0  0  0
 11 27  1  0  0  0  0
 12 14  1  0  0  0  0
 13 15  2  0  0  0  0
 13 28  1  0  0  0  0
 14 16  2  0  0  0  0
 14 15  1  0  0  0  0
 15 29  1  0  0  0  0
 17 18  2  0  0  0  0
 17 19  1  0  0  0  0
 21 22  2  0  0  0  0
 21 23  1  0  0  0  0
 24 25  2  0  0  0  0
 24 26  1  0  0  0  0
 29 30  2  0  0  0  0
 29 31  1  0  0  0  0
M  END
