343230
 OpenBabel03021519512D

 16 17  0  0  0  0  0  0  0  0999 V2000
   -0.5490   -3.0000    0.0000 C   0  0  0  0  0  0  0  0  0  0  0  0
   -1.8481   -2.2500    0.0000 C   0  0  0  0  0  0  0  0  0  0  0  0
    0.7500   -2.2500    0.0000 N   0  0  0  0  0  0  0  0  0  0  0  0
   -1.8481   -0.7500    0.0000 C   0  0  0  0  0  0  0  0  0  0  0  0
    3.3481   -2.2500    0.0000 C   0  0  0  0  0  0  0  0  0  0  0  0
    0.7500   -0.7500    0.0000 C   0  0  0  0  0  0  0  0  0  0  0  0
    3.3481   -0.7500    0.0000 O   0  0  0  0  0  0  0  0  0  0  0  0
   -0.5490    0.0000    0.0000 C   0  0  0  0  0  0  0  0  0  0  0  0
    3.3481   -6.7500    0.0000 C   0  0  0  0  0  0  0  0  0  0  0  0
    3.3481   -5.2500    0.0000 C   0  0  0  0  0  0  0  0  0  0  0  0
    4.6471   -4.5000    0.0000 N   0  0  0  0  0  0  0  0  0  0  0  0
    4.6471   -7.5000    0.0000 C   0  0  0  0  0  0  0  0  0  0  0  0
    5.9462   -6.7500    0.0000 C   0  0  0  0  0  0  0  0  0  0  0  0
    5.9462   -5.2500    0.0000 C   0  0  0  0  0  0  0  0  0  0  0  0
    2.0490   -3.0000    0.0000 N   0  0  0  0  0  0  0  0  0  0  0  0
    4.6471   -3.0000    0.0000 N   0  0  0  0  0  0  0  0  0  0  0  0
  1  3  1  0  0  0  0
  1  2  1  0  0  0  0
  2  4  1  0  0  0  0
  3  6  1  0  0  0  0
  3 15  1  0  0  0  0
  4  8  1  0  0  0  0
  5  7  2  0  0  0  0
  5 15  1  0  0  0  0
  5 16  1  0  0  0  0
  6  8  1  0  0  0  0
  9 10  1  0  0  0  0
  9 12  1  0  0  0  0
 10 11  1  0  0  0  0
 11 14  1  0  0  0  0
 11 16  1  0  0  0  0
 12 13  1  0  0  0  0
 13 14  1  0  0  0  0
M  END
