11470
 OpenBabel03021519512D

 14 15  0  0  0  0  0  0  0  0999 V2000
   -2.1495    2.2231    0.0000 C   0  0  0  0  0  0  0  0  0  0  0  0
   -3.6495    2.2231    0.0000 C   0  0  0  0  0  0  0  0  0  0  0  0
   -8.8995    3.5221    0.0000 C   0  0  0  0  0  0  0  0  0  0  0  0
  -10.3995    3.5221    0.0000 C   0  0  0  0  0  0  0  0  0  0  0  0
   -4.3995    0.9240    0.0000 C   0  0  0  0  0  0  0  0  0  0  0  0
   -8.1495    2.2231    0.0000 C   0  0  0  0  0  0  0  0  0  0  0  0
   -2.1495   -0.3750    0.0000 C   0  0  0  0  0  0  0  0  0  0  0  0
   -3.6495   -0.3750    0.0000 C   0  0  0  0  0  0  0  0  0  0  0  0
   -8.8995    0.9240    0.0000 C   0  0  0  0  0  0  0  0  0  0  0  0
  -10.3995    0.9240    0.0000 C   0  0  0  0  0  0  0  0  0  0  0  0
  -11.1495    2.2231    0.0000 N   0  0  0  0  0  0  0  0  0  0  0  0
   -1.3995    0.9240    0.0000 N   0  0  0  0  0  0  0  0  0  0  0  0
   -6.6495    2.2231    0.0000 C   0  0  0  0  0  0  0  0  0  0  0  0
   -5.8995    0.9240    0.0000 C   0  0  0  0  0  0  0  0  0  0  0  0
  1  2  1  0  0  0  0
  1 12  2  0  0  0  0
  2  5  2  0  0  0  0
  3  4  1  0  0  0  0
  3  6  2  0  0  0  0
  4 11  2  0  0  0  0
  5 14  1  0  0  0  0
  5  8  1  0  0  0  0
  6  9  1  0  0  0  0
  6 13  1  0  0  0  0
  7 12  1  0  0  0  0
  7  8  2  0  0  0  0
  9 10  2  0  0  0  0
 10 11  1  0  0  0  0
 13 14  2  0  0  0  0
M  END
