13785
 OpenBabel03021519512D

 15 16  0  0  0  0  0  0  0  0999 V2000
    3.0736   -3.2745    0.0000 O   0  0  0  0  0  0  0  0  0  0  0  0
    1.5736   -4.7745    0.0000 C   0  0  0  0  0  0  0  0  0  0  0  0
    0.2745   -5.5245    0.0000 C   0  0  0  0  0  0  0  0  0  0  0  0
    2.8726   -5.5245    0.0000 C   0  0  0  0  0  0  0  0  0  0  0  0
   -1.0245   -4.7745    0.0000 C   0  0  0  0  0  0  0  0  0  0  0  0
   -2.3236   -5.5245    0.0000 C   0  0  0  0  0  0  0  0  0  0  0  0
    2.8726   -7.0245    0.0000 C   0  0  0  0  0  0  0  0  0  0  0  0
    0.2745   -7.0245    0.0000 C   0  0  0  0  0  0  0  0  0  0  0  0
   -2.3235   -7.0245    0.0000 C   0  0  0  0  0  0  0  0  0  0  0  0
    1.5736   -7.7745    0.0000 C   0  0  0  0  0  0  0  0  0  0  0  0
   -1.0245   -7.7745    0.0000 C   0  0  0  0  0  0  0  0  0  0  0  0
   -1.0245   -9.2745    0.0000 N   0  0  0  0  0  0  0  0  0  0  0  0
    1.5736   -3.2745    0.0000 As  0  0  0  0  0  0  0  0  0  0  0  0
    1.5736   -1.7745    0.0000 O   0  0  0  0  0  0  0  0  0  0  0  0
    0.0736   -3.2745    0.0000 O   0  0  0  0  0  0  0  0  0  0  0  0
  1 13  2  0  0  0  0
  2  4  2  0  0  0  0
  2  3  1  0  0  0  0
  2 13  1  0  0  0  0
  3  8  2  0  0  0  0
  3  5  1  0  0  0  0
  4  7  1  0  0  0  0
  5  6  2  0  0  0  0
  6  9  1  0  0  0  0
  7 10  2  0  0  0  0
  8 10  1  0  0  0  0
  8 11  1  0  0  0  0
  9 11  2  0  0  0  0
 11 12  1  0  0  0  0
 13 14  1  0  0  0  0
 13 15  1  0  0  0  0
M  END
