331968
 OpenBabel03021519512D

 21 24  0  0  0  0  0  0  0  0999 V2000
   -0.8549    6.5580    0.0000 C   0  0  0  0  0  0  0  0  0  0  0  0
   -0.8549    5.0580    0.0000 C   0  0  0  0  0  0  0  0  0  0  0  0
    0.4442    7.3080    0.0000 C   0  0  0  0  0  0  0  0  0  0  0  0
    0.4442    4.3080    0.0000 C   0  0  0  0  0  0  0  0  0  0  0  0
    1.7432    6.5580    0.0000 C   0  0  0  0  0  0  0  0  0  0  0  0
    1.7432    5.0580    0.0000 C   0  0  0  0  0  0  0  0  0  0  0  0
    3.1698    7.0216    0.0000 C   0  0  0  0  0  0  0  0  0  0  0  0
    3.1698    4.5945    0.0000 C   0  0  0  0  0  0  0  0  0  0  0  0
    4.0515    3.3810    0.0000 N   0  0  0  0  0  0  0  0  0  0  0  0
    4.0515    5.8080    0.0000 C   0  0  0  0  0  0  0  0  0  0  0  0
    5.4781    5.3445    0.0000 C   0  0  0  0  0  0  0  0  0  0  0  0
    5.4781    3.8445    0.0000 N   0  0  0  0  0  0  0  0  0  0  0  0
    6.6916    2.9628    0.0000 H   0  0  0  0  0  0  0  0  0  0  0  0
    6.6916    6.2262    0.0000 C   0  0  0  0  0  0  0  0  0  0  0  0
    8.0619    5.6161    0.0000 C   0  0  0  0  0  0  0  0  0  0  0  0
    6.5348    7.7180    0.0000 C   0  0  0  0  0  0  0  0  0  0  0  0
    7.7483    8.5997    0.0000 C   0  0  0  0  0  0  0  0  0  0  0  0
    9.2754    6.4978    0.0000 C   0  0  0  0  0  0  0  0  0  0  0  0
    9.1187    7.9895    0.0000 C   0  0  0  0  0  0  0  0  0  0  0  0
    7.5915   10.0914    0.0000 Cl  0  0  0  0  0  0  0  0  0  0  0  0
   10.3322    8.8712    0.0000 Cl  0  0  0  0  0  0  0  0  0  0  0  0
  1  3  2  0  0  0  0
  1  2  1  0  0  0  0
  2  4  2  0  0  0  0
  3  5  1  0  0  0  0
  4  6  1  0  0  0  0
  5  7  1  0  0  0  0
  5  6  2  0  0  0  0
  6  8  1  0  0  0  0
  7 10  1  0  0  0  0
  8 10  1  0  0  0  0
  8  9  2  0  0  0  0
  9 12  1  0  0  0  0
 10 11  2  0  0  0  0
 11 14  1  0  0  0  0
 11 12  1  0  0  0  0
 12 13  1  0  0  0  0
 14 16  2  0  0  0  0
 14 15  1  0  0  0  0
 15 18  2  0  0  0  0
 16 17  1  0  0  0  0
 17 20  1  0  0  0  0
 17 19  2  0  0  0  0
 18 19  1  0  0  0  0
 19 21  1  0  0  0  0
M  END
