60339
 OpenBabel03021519512D

 37 41  0  0  0  0  0  0  0  0999 V2000
  -20.9017    9.7500    0.0000 H   0  0  0  0  0  0  0  0  0  0  0  0
  -22.0164    8.7463    0.0000 N   0  0  0  0  0  0  0  0  0  0  0  0
  -23.2299    6.6444    0.0000 N   0  0  0  0  0  0  0  0  0  0  0  0
  -12.7663    6.5046    0.0000 Cl  0  0  0  0  0  0  0  0  0  0  0  0
   -4.8153   -3.9872    0.0000 N   0  0  0  0  0  0  0  0  0  0  0  0
   -3.6018   -1.8853    0.0000 N   0  0  0  0  0  0  0  0  0  0  0  0
   -3.2899   -0.4181    0.0000 H   0  0  0  0  0  0  0  0  0  0  0  0
   -7.5702    0.5046    0.0000 C   0  0  0  0  0  0  0  0  0  0  0  0
   -6.2711   -0.2454    0.0000 C   0  0  0  0  0  0  0  0  0  0  0  0
   -8.8692   -0.2454    0.0000 C   0  0  0  0  0  0  0  0  0  0  0  0
   -6.2711   -1.7454    0.0000 C   0  0  0  0  0  0  0  0  0  0  0  0
   -8.8692   -1.7454    0.0000 C   0  0  0  0  0  0  0  0  0  0  0  0
   -4.9721   -2.4954    0.0000 C   0  0  0  0  0  0  0  0  0  0  0  0
   -7.5702   -2.4954    0.0000 C   0  0  0  0  0  0  0  0  0  0  0  0
  -11.4673    4.2546    0.0000 C   0  0  0  0  0  0  0  0  0  0  0  0
  -11.4673    2.7546    0.0000 C   0  0  0  0  0  0  0  0  0  0  0  0
  -12.7663    5.0046    0.0000 C   0  0  0  0  0  0  0  0  0  0  0  0
  -12.7663    2.0046    0.0000 C   0  0  0  0  0  0  0  0  0  0  0  0
  -14.0654    4.2546    0.0000 C   0  0  0  0  0  0  0  0  0  0  0  0
  -14.0654    2.7546    0.0000 C   0  0  0  0  0  0  0  0  0  0  0  0
  -17.9625    6.5046    0.0000 C   0  0  0  0  0  0  0  0  0  0  0  0
  -17.9625    5.0046    0.0000 C   0  0  0  0  0  0  0  0  0  0  0  0
  -19.2615    7.2546    0.0000 C   0  0  0  0  0  0  0  0  0  0  0  0
  -19.2615    4.2546    0.0000 C   0  0  0  0  0  0  0  0  0  0  0  0
  -20.5606    6.5046    0.0000 C   0  0  0  0  0  0  0  0  0  0  0  0
  -20.5606    5.0046    0.0000 C   0  0  0  0  0  0  0  0  0  0  0  0
  -21.8596    7.2546    0.0000 C   0  0  0  0  0  0  0  0  0  0  0  0
   -2.5981   -3.0000    0.0000 C   0  0  0  0  0  0  0  0  0  0  0  0
   -3.3481   -4.2990    0.0000 C   0  0  0  0  0  0  0  0  0  0  0  0
  -23.4836    9.0582    0.0000 C   0  0  0  0  0  0  0  0  0  0  0  0
  -24.2336    7.7592    0.0000 C   0  0  0  0  0  0  0  0  0  0  0  0
  -16.6635    4.2546    0.0000 N   0  0  0  0  0  0  0  0  0  0  0  0
  -15.3644    5.0046    0.0000 C   0  0  0  0  0  0  0  0  0  0  0  0
  -15.3644    6.5046    0.0000 O   0  0  0  0  0  0  0  0  0  0  0  0
  -10.1682    2.0046    0.0000 C   0  0  0  0  0  0  0  0  0  0  0  0
   -8.8692    2.7546    0.0000 O   0  0  0  0  0  0  0  0  0  0  0  0
  -10.1682    0.5046    0.0000 N   0  0  0  0  0  0  0  0  0  0  0  0
  1  2  1  0  0  0  0
  2 27  1  0  0  0  0
  2 30  1  0  0  0  0
  3 27  2  0  0  0  0
  3 31  1  0  0  0  0
  4 17  1  0  0  0  0
  5 13  2  0  0  0  0
  5 29  1  0  0  0  0
  6 13  1  0  0  0  0
  6 28  1  0  0  0  0
  6  7  1  0  0  0  0
  8  9  2  0  0  0  0
  8 10  1  0  0  0  0
  9 11  1  0  0  0  0
 10 12  2  0  0  0  0
 10 37  1  0  0  0  0
 11 14  2  0  0  0  0
 11 13  1  0  0  0  0
 12 14  1  0  0  0  0
 15 16  2  0  0  0  0
 15 17  1  0  0  0  0
 16 18  1  0  0  0  0
 16 35  1  0  0  0  0
 17 19  2  0  0  0  0
 18 20  2  0  0  0  0
 19 20  1  0  0  0  0
 19 33  1  0  0  0  0
 21 22  2  0  0  0  0
 21 23  1  0  0  0  0
 22 24  1  0  0  0  0
 22 32  1  0  0  0  0
 23 25  2  0  0  0  0
 24 26  2  0  0  0  0
 25 26  1  0  0  0  0
 25 27  1  0  0  0  0
 28 29  1  0  0  0  0
 30 31  1  0  0  0  0
 32 33  1  0  0  0  0
 33 34  2  0  0  0  0
 35 36  2  0  0  0  0
 35 37  1  0  0  0  0
M  END
