643029
 OpenBabel03021519512D

 21 22  0  0  0  0  0  0  0  0999 V2000
   11.3163    4.3995    0.0000 C   0  0  0  0  0  0  0  0  0  0  0  0
   10.0173    3.6495    0.0000 C   0  0  0  0  0  0  0  0  0  0  0  0
    8.7183    4.3995    0.0000 C   0  0  0  0  0  0  0  0  0  0  0  0
    8.7183    5.8995    0.0000 C   0  0  0  0  0  0  0  0  0  0  0  0
   10.0173    6.6495    0.0000 C   0  0  0  0  0  0  0  0  0  0  0  0
   11.3163    5.8995    0.0000 C   0  0  0  0  0  0  0  0  0  0  0  0
   12.6154    3.6495    0.0000 O   0  0  0  0  0  0  0  0  0  0  0  0
   12.6154    2.1495    0.0000 C   0  0  0  0  0  0  0  0  0  0  0  0
   11.3163    1.3995    0.0000 C   0  0  0  0  0  0  0  0  0  0  0  0
   11.3163   -0.1005    0.0000 C   0  0  0  0  0  0  0  0  0  0  0  0
   12.6154   -0.8505    0.0000 C   0  0  0  0  0  0  0  0  0  0  0  0
   13.9144   -0.1005    0.0000 C   0  0  0  0  0  0  0  0  0  0  0  0
   13.9144    1.3995    0.0000 C   0  0  0  0  0  0  0  0  0  0  0  0
    7.4192    6.6495    0.0000 C   0  0  0  0  0  0  0  0  0  0  0  0
    7.4192    8.1495    0.0000 C   0  0  0  0  0  0  0  0  0  0  0  0
    6.1202    8.8995    0.0000 C   0  0  0  0  0  0  0  0  0  0  0  0
    4.8212    8.1495    0.0000 O   0  0  0  0  0  0  0  0  0  0  0  0
    6.1202   10.3995    0.0000 C   0  0  0  0  0  0  0  0  0  0  0  0
    6.1202   11.8995    0.0000 C   0  0  0  0  0  0  0  0  0  0  0  0
    7.6202   10.3995    0.0000 C   0  0  0  0  0  0  0  0  0  0  0  0
    4.6202   10.3995    0.0000 C   0  0  0  0  0  0  0  0  0  0  0  0
  1  2  1  0  0  0  0
  1  6  2  0  0  0  0
  1  7  1  0  0  0  0
  2  3  2  0  0  0  0
  3  4  1  0  0  0  0
  4  5  2  0  0  0  0
  4 14  1  0  0  0  0
  5  6  1  0  0  0  0
  7  8  1  0  0  0  0
  8  9  2  0  0  0  0
  8 13  1  0  0  0  0
  9 10  1  0  0  0  0
 10 11  2  0  0  0  0
 11 12  1  0  0  0  0
 12 13  2  0  0  0  0
 14 15  2  0  0  0  0
 15 16  1  0  0  0  0
 16 17  2  0  0  0  0
 16 18  1  0  0  0  0
 18 19  1  0  0  0  0
 18 20  1  0  0  0  0
 18 21  1  0  0  0  0
M  END
