122131
 OpenBabel03021519512D

 13 14  0  0  0  0  0  0  0  0999 V2000
    1.1082    7.9195    0.0000 N   0  0  0  0  0  0  0  0  0  0  0  0
   -1.4899    7.9195    0.0000 C   0  0  0  0  0  0  0  0  0  0  0  0
   -2.7889    7.1695    0.0000 C   0  0  0  0  0  0  0  0  0  0  0  0
   -0.1908    7.1695    0.0000 C   0  0  0  0  0  0  0  0  0  0  0  0
   -0.1908    5.6695    0.0000 C   0  0  0  0  0  0  0  0  0  0  0  0
   -2.7889    5.6695    0.0000 C   0  0  0  0  0  0  0  0  0  0  0  0
    1.1082    4.9195    0.0000 C   0  0  0  0  0  0  0  0  0  0  0  0
    2.4072    7.1695    0.0000 C   0  0  0  0  0  0  0  0  0  0  0  0
    2.4072    5.6695    0.0000 C   0  0  0  0  0  0  0  0  0  0  0  0
   -1.4899    4.9195    0.0000 C   0  0  0  0  0  0  0  0  0  0  0  0
   -1.4899    9.4195    0.0000 O   0  0  0  0  0  0  0  0  0  0  0  0
   -1.4899    3.4195    0.0000 C   0  0  0  0  0  0  0  0  0  0  0  0
   -2.7889    2.6695    0.0000 O   0  0  0  0  0  0  0  0  0  0  0  0
  1  8  2  0  0  0  0
  1  4  1  0  0  0  0
  2  3  2  0  0  0  0
  2  4  1  0  0  0  0
  2 11  1  0  0  0  0
  3  6  1  0  0  0  0
  4  5  2  0  0  0  0
  5  7  1  0  0  0  0
  5 10  1  0  0  0  0
  6 10  2  0  0  0  0
  7  9  2  0  0  0  0
  8  9  1  0  0  0  0
 10 12  1  0  0  0  0
 12 13  2  0  0  0  0
M  END
