196148
 OpenBabel03021519512D

 13 13  0  0  0  0  0  0  0  0999 V2000
    2.0490    2.7990    0.0000 N   0  0  0  0  0  0  0  0  0  0  0  0
    5.9462    2.0490    0.0000 C   0  0  0  0  0  0  0  0  0  0  0  0
    5.9462    3.5490    0.0000 C   0  0  0  0  0  0  0  0  0  0  0  0
    7.2452    4.2990    0.0000 C   0  0  0  0  0  0  0  0  0  0  0  0
    7.2452    1.2990    0.0000 N   0  0  0  0  0  0  0  0  0  0  0  0
    8.5442    2.0490    0.0000 C   0  0  0  0  0  0  0  0  0  0  0  0
    8.5442    3.5490    0.0000 C   0  0  0  0  0  0  0  0  0  0  0  0
    2.0490    4.2990    0.0000 C   0  0  0  0  0  0  0  0  0  0  0  0
    0.7500    2.0490    0.0000 C   0  0  0  0  0  0  0  0  0  0  0  0
    3.3481    2.0490    0.0000 S   0  0  0  0  0  0  0  0  0  0  0  0
    2.5981    0.7500    0.0000 O   0  0  0  0  0  0  0  0  0  0  0  0
    4.0981    3.3481    0.0000 O   0  0  0  0  0  0  0  0  0  0  0  0
    4.6471    1.2990    0.0000 N   0  0  0  0  0  0  0  0  0  0  0  0
  1  8  1  0  0  0  0
  1  9  1  0  0  0  0
  1 10  1  0  0  0  0
  2  3  1  0  0  0  0
  2  5  2  0  0  0  0
  2 13  1  0  0  0  0
  3  4  2  0  0  0  0
  4  7  1  0  0  0  0
  5  6  1  0  0  0  0
  6  7  2  0  0  0  0
 10 11  2  0  0  0  0
 10 12  2  0  0  0  0
 10 13  1  0  0  0  0
M  END
