631160
 OpenBabel03021519512D

 22 24  0  0  0  0  0  0  0  0999 V2000
    4.1639    7.9043    0.0000 N   0  0  0  0  0  0  0  0  0  0  0  0
    2.6967    7.5925    0.0000 N   0  0  0  0  0  0  0  0  0  0  0  0
    2.5399    6.1007    0.0000 C   0  0  0  0  0  0  0  0  0  0  0  0
    3.9102    5.4906    0.0000 N   0  0  0  0  0  0  0  0  0  0  0  0
    4.9139    6.6053    0.0000 C   0  0  0  0  0  0  0  0  0  0  0  0
    6.4057    6.4485    0.0000 S   0  0  0  0  0  0  0  0  0  0  0  0
    7.0633    7.7967    0.0000 C   0  0  0  0  0  0  0  0  0  0  0  0
    6.3591    9.1211    0.0000 N   0  0  0  0  0  0  0  0  0  0  0  0
    7.4011   10.2001    0.0000 C   0  0  0  0  0  0  0  0  0  0  0  0
    8.7493    9.5426    0.0000 N   0  0  0  0  0  0  0  0  0  0  0  0
    8.5405    8.0572    0.0000 C   0  0  0  0  0  0  0  0  0  0  0  0
    9.6195    7.0152    0.0000 N   0  3  0  0  0  0  0  0  0  0  0  0
    9.2566    5.5598    0.0000 O   0  5  0  0  0  0  0  0  0  0  0  0
   11.0614    7.4287    0.0000 O   0  0  0  0  0  0  0  0  0  0  0  0
    4.8737    9.3299    0.0000 C   0  0  0  0  0  0  0  0  0  0  0  0
    1.2409    5.3507    0.0000 C   0  0  0  0  0  0  0  0  0  0  0  0
   -0.0581    6.1007    0.0000 C   0  0  0  0  0  0  0  0  0  0  0  0
   -1.3572    5.3507    0.0000 C   0  0  0  0  0  0  0  0  0  0  0  0
   -1.3572    3.8507    0.0000 C   0  0  0  0  0  0  0  0  0  0  0  0
   -0.0581    3.1007    0.0000 N   0  0  0  0  0  0  0  0  0  0  0  0
    1.2409    3.8507    0.0000 C   0  0  0  0  0  0  0  0  0  0  0  0
    4.2221    4.0234    0.0000 C   0  0  0  0  0  0  0  0  0  0  0  0
  1  2  1  0  0  0  0
  1  5  2  0  0  0  0
  2  3  2  0  0  0  0
  3  4  1  0  0  0  0
  3 16  1  0  0  0  0
  4  5  1  0  0  0  0
  4 22  1  0  0  0  0
  5  6  1  0  0  0  0
  6  7  1  0  0  0  0
  7  8  1  0  0  0  0
  7 11  2  0  0  0  0
  8  9  1  0  0  0  0
  8 15  1  0  0  0  0
  9 10  2  0  0  0  0
 10 11  1  0  0  0  0
 11 12  1  0  0  0  0
 12 13  1  0  0  0  0
 12 14  2  0  0  0  0
 16 17  1  0  0  0  0
 16 21  2  0  0  0  0
 17 18  2  0  0  0  0
 18 19  1  0  0  0  0
 19 20  2  0  0  0  0
 20 21  1  0  0  0  0
M  CHG  2  12   1  13  -1
M  END
