335979
 OpenBabel03021519512D

 34 36  0  0  1  0  0  0  0  0999 V2000
    5.4857    6.2324    0.0000 O   0  0  0  0  0  0  0  0  0  0  0  0
    3.9857    6.2324    0.0000 C   0  0  0  0  0  0  0  0  0  0  0  0
    3.2357    7.5315    0.0000 O   0  0  0  0  0  0  0  0  0  0  0  0
    6.2357    4.9334    0.0000 O   0  0  0  0  0  0  0  0  0  0  0  0
    5.4858    3.6343    0.0000 C   0  0  0  0  0  0  0  0  0  0  0  0
   10.6205    2.6449    0.0000 C   0  0  0  0  0  0  0  0  0  0  0  0
   12.1059    2.4362    0.0000 N   0  0  0  0  0  0  0  0  0  0  0  0
   13.1479    3.5152    0.0000 H   0  0  0  0  0  0  0  0  0  0  0  0
    9.9630    1.2967    0.0000 C   0  0  0  0  0  0  0  0  0  0  0  0
   11.0420    0.2547    0.0000 C   0  0  0  0  0  0  0  0  0  0  0  0
   12.3664    0.9590    0.0000 C   0  0  0  0  0  0  0  0  0  0  0  0
   10.9896   -1.2443    0.0000 C   0  0  0  0  0  0  0  0  0  0  0  0
   13.6385    0.1641    0.0000 C   0  0  0  0  0  0  0  0  0  0  0  0
   13.5861   -1.3350    0.0000 C   0  0  0  0  0  0  0  0  0  0  0  0
   12.2617   -2.0392    0.0000 C   0  0  0  0  0  0  0  0  0  0  0  0
    5.4857    8.8305    0.0000 C   0  0  0  0  0  0  0  0  0  0  0  0
    4.7357    7.5315    0.0000 C   0  0  0  0  0  0  0  0  0  0  0  0
    5.4857    6.2324    0.0000 C   0  0  0  0  0  0  0  0  0  0  0  0
    6.9857    6.2324    0.0000 C   0  0  0  0  0  0  0  0  0  0  0  0
    7.7357    7.5315    0.0000 C   0  0  0  0  0  0  0  0  0  0  0  0
    6.9857    8.8305    0.0000 C   0  0  0  0  0  0  0  0  0  0  0  0
    6.2357    7.5315    0.0000 C   0  0  0  0  0  0  0  0  0  0  0  0
    3.2358   -0.2628    0.0000 C   0  0  0  0  0  0  0  0  0  0  0  0
    3.2357    4.9334    0.0000 N   0  0  0  0  0  0  0  0  0  0  0  0
    3.2357    2.3353    0.0000 C   0  0  0  0  0  0  0  0  0  0  0  0
    3.9858    1.0363    0.0000 C   0  0  0  0  0  0  0  0  0  0  0  0
    3.9857    3.6343    0.0000 C   0  0  3  0  0  0  0  0  0  0  0  0
    5.4858    1.0363    0.0000 C   0  0  0  0  0  0  0  0  0  0  0  0
    6.2358    2.3353    0.0000 N   0  0  0  0  0  0  0  0  0  0  0  0
    7.7358    2.3353    0.0000 C   0  0  3  0  0  0  0  0  0  0  0  0
    8.4858    1.0363    0.0000 C   0  0  0  0  0  0  0  0  0  0  0  0
    8.4858    3.6343    0.0000 C   0  0  0  0  0  0  0  0  0  0  0  0
    7.7358    4.9334    0.0000 O   0  0  0  0  0  0  0  0  0  0  0  0
    9.9858    3.6344    0.0000 O   0  0  0  0  0  0  0  0  0  0  0  0
  1  2  1  0  0  0  0
  1 22  1  0  0  0  0
  2  3  2  0  0  0  0
  2 24  1  0  0  0  0
  4  5  2  0  0  0  0
  5 27  1  0  0  0  0
  5 29  1  0  0  0  0
  6  9  2  0  0  0  0
  6  7  1  0  0  0  0
  7 11  1  0  0  0  0
  7  8  1  0  0  0  0
  9 10  1  0  0  0  0
  9 31  1  0  0  0  0
 10 12  1  0  0  0  0
 10 11  2  0  0  0  0
 11 13  1  0  0  0  0
 12 15  2  0  0  0  0
 13 14  2  0  0  0  0
 14 15  1  0  0  0  0
 16 17  2  0  0  0  0
 16 21  1  0  0  0  0
 16 22  1  0  0  0  0
 17 18  1  0  0  0  0
 18 19  2  0  0  0  0
 19 20  1  0  0  0  0
 20 21  2  0  0  0  0
 23 26  1  0  0  0  0
 24 27  1  0  0  0  0
 25 26  1  0  0  0  0
 25 27  1  0  0  0  0
 26 28  1  0  0  0  0
 29 30  1  0  0  0  0
 30 31  1  0  0  0  0
 30 32  1  0  0  0  0
 32 33  2  0  0  0  0
 32 34  1  0  0  0  0
M  END
