278323
 OpenBabel03021519512D

 20 20  0  0  1  0  0  0  0  0999 V2000
    5.0221    2.6986    0.0000 O   0  0  0  0  0  0  0  0  0  0  0  0
    4.2721    1.3995    0.0000 S   0  0  0  0  0  0  0  0  0  0  0  0
    3.5221    0.1005    0.0000 O   0  0  0  0  0  0  0  0  0  0  0  0
    4.2721   -1.6005    0.0000 O   0  0  0  0  0  0  0  0  0  0  0  0
    5.5712    0.6495    0.0000 C   0  0  3  0  0  0  0  0  0  0  0  0
    5.5712   -0.8505    0.0000 C   0  0  0  0  0  0  0  0  0  0  0  0
    6.8702    1.3995    0.0000 N   0  0  0  0  0  0  0  0  0  0  0  0
    6.8702   -1.6005    0.0000 N   0  0  0  0  0  0  0  0  0  0  0  0
    8.1692    0.6495    0.0000 C   0  0  0  0  0  0  0  0  0  0  0  0
    8.1692   -0.8505    0.0000 C   0  0  3  0  0  0  0  0  0  0  0  0
    9.4683   -1.6005    0.0000 S   0  0  0  0  0  0  0  0  0  0  0  0
    9.4683    1.3995    0.0000 O   0  0  0  0  0  0  0  0  0  0  0  0
    8.7183   -2.8995    0.0000 O   0  0  0  0  0  0  0  0  0  0  0  0
   10.2183   -0.3014    0.0000 O   0  0  0  0  0  0  0  0  0  0  0  0
    2.9731    2.1495    0.0000 C   0  0  0  0  0  0  0  0  0  0  0  0
    2.9731    3.6495    0.0000 C   0  0  0  0  0  0  0  0  0  0  0  0
    6.8702    2.8995    0.0000 C   0  0  0  0  0  0  0  0  0  0  0  0
    6.8702   -3.1005    0.0000 C   0  0  0  0  0  0  0  0  0  0  0  0
   10.7673   -2.3505    0.0000 C   0  0  0  0  0  0  0  0  0  0  0  0
   12.0664   -1.6005    0.0000 C   0  0  0  0  0  0  0  0  0  0  0  0
  1  2  2  0  0  0  0
  2  5  1  0  0  0  0
  2  3  2  0  0  0  0
  2 15  1  0  0  0  0
  4  6  2  0  0  0  0
  5  7  1  0  0  0  0
  5  6  1  0  0  0  0
  6  8  1  0  0  0  0
  7  9  1  0  0  0  0
  7 17  1  0  0  0  0
  8 10  1  0  0  0  0
  8 18  1  0  0  0  0
  9 12  2  0  0  0  0
  9 10  1  0  0  0  0
 10 11  1  0  0  0  0
 11 14  2  0  0  0  0
 11 13  2  0  0  0  0
 11 19  1  0  0  0  0
 15 16  1  0  0  0  0
 19 20  1  0  0  0  0
M  END
