95916
 OpenBabel03021519512D

 26 28  0  0  0  0  0  0  0  0999 V2000
    0.7500    4.4461    0.0000 O   0  0  0  0  0  0  0  0  0  0  0  0
    2.0490    6.6961    0.0000 N   0  0  0  0  0  0  0  0  0  0  0  0
    3.3481    8.9461    0.0000 O   0  0  0  0  0  0  0  0  0  0  0  0
    3.3481    4.4461    0.0000 N   0  0  0  0  0  0  0  0  0  0  0  0
    6.0737    7.1597    0.0000 N   0  0  0  0  0  0  0  0  0  0  0  0
    6.5372    8.5862    0.0000 H   0  0  0  0  0  0  0  0  0  0  0  0
    6.0737    4.7326    0.0000 N   0  0  0  0  0  0  0  0  0  0  0  0
    3.3481    7.4461    0.0000 C   0  0  0  0  0  0  0  0  0  0  0  0
    4.6471    6.6961    0.0000 C   0  0  0  0  0  0  0  0  0  0  0  0
    4.6471    5.1961    0.0000 C   0  0  0  0  0  0  0  0  0  0  0  0
   12.9554    5.9462    0.0000 C   0  0  0  0  0  0  0  0  0  0  0  0
   13.7054    4.6471    0.0000 C   0  0  0  0  0  0  0  0  0  0  0  0
   11.4554    5.9461    0.0000 C   0  0  0  0  0  0  0  0  0  0  0  0
   12.9554    3.3481    0.0000 C   0  0  0  0  0  0  0  0  0  0  0  0
   10.7054    4.6471    0.0000 C   0  0  0  0  0  0  0  0  0  0  0  0
   11.4554    3.3481    0.0000 C   0  0  0  0  0  0  0  0  0  0  0  0
    6.9554    5.9461    0.0000 C   0  0  0  0  0  0  0  0  0  0  0  0
    2.0490    5.1961    0.0000 C   0  0  0  0  0  0  0  0  0  0  0  0
    0.7500    7.4461    0.0000 C   0  0  0  0  0  0  0  0  0  0  0  0
    3.3481    2.9461    0.0000 C   0  0  0  0  0  0  0  0  0  0  0  0
    8.4554    5.9461    0.0000 C   0  0  0  0  0  0  0  0  0  0  0  0
    9.2054    7.2452    0.0000 C   0  0  0  0  0  0  0  0  0  0  0  0
   10.7054    7.2452    0.0000 C   0  0  0  0  0  0  0  0  0  0  0  0
   13.7054    2.0490    0.0000 N   0  3  0  0  0  0  0  0  0  0  0  0
   15.2054    2.0490    0.0000 O   0  5  0  0  0  0  0  0  0  0  0  0
   12.9554    0.7500    0.0000 O   0  0  0  0  0  0  0  0  0  0  0  0
  1 18  2  0  0  0  0
  2  8  1  0  0  0  0
  2 18  1  0  0  0  0
  2 19  1  0  0  0  0
  3  8  2  0  0  0  0
  4 10  1  0  0  0  0
  4 18  1  0  0  0  0
  4 20  1  0  0  0  0
  5  9  1  0  0  0  0
  5 17  1  0  0  0  0
  5  6  1  0  0  0  0
  7 17  2  0  0  0  0
  7 10  1  0  0  0  0
  8  9  1  0  0  0  0
  9 10  2  0  0  0  0
 11 12  2  0  0  0  0
 11 13  1  0  0  0  0
 12 14  1  0  0  0  0
 13 15  2  0  0  0  0
 13 23  1  0  0  0  0
 14 16  2  0  0  0  0
 14 24  1  0  0  0  0
 15 16  1  0  0  0  0
 17 21  1  0  0  0  0
 21 22  1  0  0  0  0
 22 23  1  0  0  0  0
 24 25  1  0  0  0  0
 24 26  2  0  0  0  0
M  CHG  2  24   1  25  -1
M  END
