129929
 OpenBabel03021519512D

 20 22  0  0  0  0  0  0  0  0999 V2000
    2.2231    3.6495    0.0000 N   0  0  0  0  0  0  0  0  0  0  0  0
    2.2231    6.6495    0.0000 C   0  0  0  0  0  0  0  0  0  0  0  0
    3.5221    5.8995    0.0000 C   0  0  0  0  0  0  0  0  0  0  0  0
    4.8212    6.6495    0.0000 C   0  0  0  0  0  0  0  0  0  0  0  0
    6.1202    5.8995    0.0000 C   0  0  0  0  0  0  0  0  0  0  0  0
    0.9240    5.8995    0.0000 C   0  0  0  0  0  0  0  0  0  0  0  0
   -0.3750    6.6495    0.0000 C   0  0  0  0  0  0  0  0  0  0  0  0
   -1.6740    5.8995    0.0000 C   0  0  0  0  0  0  0  0  0  0  0  0
    6.1202    4.3995    0.0000 C   0  0  0  0  0  0  0  0  0  0  0  0
    3.5221    4.3995    0.0000 C   0  0  0  0  0  0  0  0  0  0  0  0
    0.9240    4.3995    0.0000 C   0  0  0  0  0  0  0  0  0  0  0  0
   -1.6740    4.3995    0.0000 C   0  0  0  0  0  0  0  0  0  0  0  0
    4.8212    3.6495    0.0000 C   0  0  0  0  0  0  0  0  0  0  0  0
   -0.3750    3.6495    0.0000 C   0  0  0  0  0  0  0  0  0  0  0  0
    2.2231    8.1495    0.0000 N   0  0  0  0  0  0  0  0  0  0  0  0
    3.5221    8.8995    0.0000 C   0  0  0  0  0  0  0  0  0  0  0  0
    3.5221   10.3995    0.0000 O   0  0  0  0  0  0  0  0  0  0  0  0
    4.8212    8.1495    0.0000 O   0  0  0  0  0  0  0  0  0  0  0  0
    6.1202    8.8995    0.0000 C   0  0  0  0  0  0  0  0  0  0  0  0
    7.4192    8.1495    0.0000 C   0  0  0  0  0  0  0  0  0  0  0  0
  1 11  2  0  0  0  0
  1 10  1  0  0  0  0
  2  6  2  0  0  0  0
  2  3  1  0  0  0  0
  2 15  1  0  0  0  0
  3 10  2  0  0  0  0
  3  4  1  0  0  0  0
  4  5  2  0  0  0  0
  5  9  1  0  0  0  0
  6  7  1  0  0  0  0
  6 11  1  0  0  0  0
  7  8  2  0  0  0  0
  8 12  1  0  0  0  0
  9 13  2  0  0  0  0
 10 13  1  0  0  0  0
 11 14  1  0  0  0  0
 12 14  2  0  0  0  0
 15 16  1  0  0  0  0
 16 17  2  0  0  0  0
 16 18  1  0  0  0  0
 18 19  1  0  0  0  0
 19 20  1  0  0  0  0
M  END
