205827
 OpenBabel03021519512D

 21 22  0  0  0  0  0  0  0  0999 V2000
   -9.7074    7.2159    0.0000 C   0  0  0  0  0  0  0  0  0  0  0  0
   -9.4469    8.6931    0.0000 C   0  0  0  0  0  0  0  0  0  0  0  0
   -8.5583    6.2517    0.0000 C   0  0  0  0  0  0  0  0  0  0  0  0
   -7.1487    6.7648    0.0000 C   0  0  0  0  0  0  0  0  0  0  0  0
   -8.0373    9.2061    0.0000 C   0  0  0  0  0  0  0  0  0  0  0  0
   -6.8883    8.2420    0.0000 C   0  0  0  0  0  0  0  0  0  0  0  0
   -4.9216    2.5245    0.0000 C   0  0  0  0  0  0  0  0  0  0  0  0
   -3.6226    1.7745    0.0000 C   0  0  0  0  0  0  0  0  0  0  0  0
   -6.2207    1.7745    0.0000 C   0  0  0  0  0  0  0  0  0  0  0  0
   -3.6226    0.2745    0.0000 C   0  0  0  0  0  0  0  0  0  0  0  0
   -6.2207    0.2745    0.0000 C   0  0  0  0  0  0  0  0  0  0  0  0
   -4.9216   -0.4755    0.0000 C   0  0  0  0  0  0  0  0  0  0  0  0
  -11.1169    6.7029    0.0000 C   0  0  0  0  0  0  0  0  0  0  0  0
  -12.2660    7.6671    0.0000 O   0  0  0  0  0  0  0  0  0  0  0  0
  -11.3774    5.2257    0.0000 N   0  0  0  0  0  0  0  0  0  0  0  0
   -8.8188    4.7745    0.0000 N   0  0  0  0  0  0  0  0  0  0  0  0
   -7.5197    4.0245    0.0000 C   0  0  0  0  0  0  0  0  0  0  0  0
   -6.2207    4.7745    0.0000 O   0  0  0  0  0  0  0  0  0  0  0  0
   -7.5197    2.5245    0.0000 N   0  0  0  0  0  0  0  0  0  0  0  0
   -2.3236   -0.4755    0.0000 S   0  0  0  0  0  0  0  0  0  0  0  0
   -1.0245    0.2745    0.0000 C   0  0  0  0  0  0  0  0  0  0  0  0
  1  3  2  0  0  0  0
  1  2  1  0  0  0  0
  1 13  1  0  0  0  0
  2  5  2  0  0  0  0
  3  4  1  0  0  0  0
  3 16  1  0  0  0  0
  4  6  2  0  0  0  0
  5  6  1  0  0  0  0
  7  8  2  0  0  0  0
  7  9  1  0  0  0  0
  8 10  1  0  0  0  0
  9 11  2  0  0  0  0
  9 19  1  0  0  0  0
 10 12  2  0  0  0  0
 10 20  1  0  0  0  0
 11 12  1  0  0  0  0
 13 14  2  0  0  0  0
 13 15  1  0  0  0  0
 16 17  1  0  0  0  0
 17 18  2  0  0  0  0
 17 19  1  0  0  0  0
 20 21  1  0  0  0  0
M  END
