281816
 OpenBabel03021519512D

 34 36  0  0  1  0  0  0  0  0999 V2000
  -14.9821   -3.1002    0.0000 S   0  0  0  0  0  0  0  0  0  0  0  0
  -11.2123   -6.1427    0.0000 N   0  0  0  0  0  0  0  0  0  0  0  0
   -8.6142   -7.6427    0.0000 N   0  0  0  0  0  0  0  0  0  0  0  0
  -11.4468   -9.7819    0.0000 H   0  0  0  0  0  0  0  0  0  0  0  0
  -12.2918  -11.0213    0.0000 C   0  0  0  0  0  0  0  0  0  0  0  0
  -13.7876  -10.9092    0.0000 C   0  0  0  0  0  0  0  0  0  0  0  0
  -14.4385   -9.5578    0.0000 H   0  0  0  0  0  0  0  0  0  0  0  0
  -17.2153   -4.1756    0.0000 C   0  0  0  0  0  0  0  0  0  0  0  0
  -18.1506   -5.3484    0.0000 C   0  0  0  0  0  0  0  0  0  0  0  0
  -15.7321   -4.3992    0.0000 C   0  0  0  0  0  0  0  0  0  0  0  0
  -17.6026   -6.7447    0.0000 C   0  0  0  0  0  0  0  0  0  0  0  0
  -15.1841   -5.7955    0.0000 C   0  0  0  0  0  0  0  0  0  0  0  0
  -16.1193   -6.9683    0.0000 C   0  0  0  0  0  0  0  0  0  0  0  0
  -13.7507   -6.2376    0.0000 C   0  0  0  0  0  0  0  0  0  0  0  0
  -12.5114   -5.3927    0.0000 C   0  0  3  0  0  0  0  0  0  0  0  0
  -13.1650   -1.4142    0.0000 C   0  0  0  0  0  0  0  0  0  0  0  0
  -13.4988   -2.8766    0.0000 C   0  0  0  0  0  0  0  0  0  0  0  0
  -11.7317   -0.9721    0.0000 C   0  0  0  0  0  0  0  0  0  0  0  0
  -12.3993   -3.8968    0.0000 C   0  0  0  0  0  0  0  0  0  0  0  0
  -10.6321   -1.9923    0.0000 C   0  0  0  0  0  0  0  0  0  0  0  0
  -10.9659   -3.4547    0.0000 C   0  0  0  0  0  0  0  0  0  0  0  0
   -9.9133   -5.3927    0.0000 C   0  0  0  0  0  0  0  0  0  0  0  0
  -11.2123   -7.6427    0.0000 C   0  0  0  0  0  0  0  0  0  0  0  0
   -9.9133   -8.3927    0.0000 C   0  0  0  0  0  0  0  0  0  0  0  0
   -8.6142   -6.1427    0.0000 C   0  0  0  0  0  0  0  0  0  0  0  0
   -9.1988   -1.5502    0.0000 S   0  0  0  0  0  0  0  0  0  0  0  0
   -8.8650   -0.0878    0.0000 C   0  0  0  0  0  0  0  0  0  0  0  0
   -7.3152   -8.3927    0.0000 C   0  0  0  0  0  0  0  0  0  0  0  0
  -11.6410  -12.3728    0.0000 C   0  0  0  0  0  0  0  0  0  0  0  0
  -10.1452  -12.4848    0.0000 O   0  0  0  0  0  0  0  0  0  0  0  0
  -12.4860  -13.6121    0.0000 O   0  0  0  0  0  0  0  0  0  0  0  0
  -14.6326  -12.1486    0.0000 C   0  0  0  0  0  0  0  0  0  0  0  0
  -16.1284  -12.0365    0.0000 O   0  0  0  0  0  0  0  0  0  0  0  0
  -13.9818  -13.5000    0.0000 O   0  0  0  0  0  0  0  0  0  0  0  0
  1 10  1  0  0  0  0
  1 17  1  0  0  0  0
  2 15  1  0  0  0  0
  2 22  1  0  0  0  0
  2 23  1  0  0  0  0
  3 25  1  0  0  0  0
  3 24  1  0  0  0  0
  3 28  1  0  0  0  0
  4  5  1  0  0  0  0
  5  6  2  0  0  0  0
  5 29  1  0  0  0  0
  6  7  1  0  0  0  0
  6 32  1  0  0  0  0
  8  9  2  0  0  0  0
  8 10  1  0  0  0  0
  9 11  1  0  0  0  0
 10 12  2  0  0  0  0
 11 13  2  0  0  0  0
 12 13  1  0  0  0  0
 12 14  1  0  0  0  0
 14 15  1  0  0  0  0
 15 19  1  0  0  0  0
 16 18  2  0  0  0  0
 16 17  1  0  0  0  0
 17 19  2  0  0  0  0
 18 20  1  0  0  0  0
 19 21  1  0  0  0  0
 20 21  2  0  0  0  0
 20 26  1  0  0  0  0
 22 25  1  0  0  0  0
 23 24  1  0  0  0  0
 26 27  1  0  0  0  0
 29 30  2  0  0  0  0
 29 31  1  0  0  0  0
 32 33  2  0  0  0  0
 32 34  1  0  0  0  0
M  END
