623109
 OpenBabel03021519512D

 16 17  0  0  0  0  0  0  0  0999 V2000
   -8.8187    2.7255    0.0000 C   0  0  0  0  0  0  0  0  0  0  0  0
  -10.1178    1.9755    0.0000 N   0  0  0  0  0  0  0  0  0  0  0  0
  -11.4168    2.7255    0.0000 C   0  0  0  0  0  0  0  0  0  0  0  0
  -10.1178    0.4755    0.0000 C   0  0  0  0  0  0  0  0  0  0  0  0
   -8.8187   -0.2745    0.0000 C   0  0  0  0  0  0  0  0  0  0  0  0
   -7.5197    0.4755    0.0000 N   0  0  0  0  0  0  0  0  0  0  0  0
   -7.5197    1.9755    0.0000 C   0  0  0  0  0  0  0  0  0  0  0  0
   -6.2207   -0.2745    0.0000 C   0  0  0  0  0  0  0  0  0  0  0  0
   -4.9216    0.4755    0.0000 N   0  0  0  0  0  0  0  0  0  0  0  0
   -3.6226   -0.2745    0.0000 C   0  0  0  0  0  0  0  0  0  0  0  0
   -2.3236    0.4755    0.0000 Cl  0  0  0  0  0  0  0  0  0  0  0  0
   -3.6226   -1.7745    0.0000 C   0  0  0  0  0  0  0  0  0  0  0  0
   -2.3236   -2.5245    0.0000 Br  0  0  0  0  0  0  0  0  0  0  0  0
   -4.9216   -2.5245    0.0000 C   0  0  0  0  0  0  0  0  0  0  0  0
   -4.9216   -4.0245    0.0000 N   0  0  0  0  0  0  0  0  0  0  0  0
   -6.2207   -1.7745    0.0000 N   0  0  0  0  0  0  0  0  0  0  0  0
  1  2  1  0  0  0  0
  1  7  1  0  0  0  0
  2  3  1  0  0  0  0
  2  4  1  0  0  0  0
  4  5  1  0  0  0  0
  5  6  1  0  0  0  0
  6  7  1  0  0  0  0
  6  8  1  0  0  0  0
  8  9  2  0  0  0  0
  8 16  1  0  0  0  0
  9 10  1  0  0  0  0
 10 11  1  0  0  0  0
 10 12  2  0  0  0  0
 12 13  1  0  0  0  0
 12 14  1  0  0  0  0
 14 15  1  0  0  0  0
 14 16  2  0  0  0  0
M  END
