117446
 OpenBabel03021519512D

 18 18  0  0  1  0  0  0  0  0999 V2000
   -3.1235    7.6499    0.0000 C   0  0  3  0  0  0  0  0  0  0  0  0
   -4.6235    7.6499    0.0000 C   0  0  0  0  0  0  0  0  0  0  0  0
   -3.8735    5.3416    0.0000 C   0  0  3  0  0  0  0  0  0  0  0  0
   -5.0870    6.2233    0.0000 S   0  0  0  0  0  0  0  0  0  0  0  0
   -2.6599    6.2233    0.0000 N   0  0  0  0  0  0  0  0  0  0  0  0
   -3.3333    2.8003    0.0000 C   0  0  0  0  0  0  0  0  0  0  0  0
   -4.8005    2.4884    0.0000 O   0  0  0  0  0  0  0  0  0  0  0  0
   -2.3296    1.6856    0.0000 O   0  0  0  0  0  0  0  0  0  0  0  0
   -1.2334    5.7598    0.0000 H   0  0  0  0  0  0  0  0  0  0  0  0
   -2.2418    8.8634    0.0000 C   0  0  0  0  0  0  0  0  0  0  0  0
   -0.7500    8.7066    0.0000 O   0  0  0  0  0  0  0  0  0  0  0  0
   -6.1235    7.6499    0.0000 C   0  0  0  0  0  0  0  0  0  0  0  0
   -4.6235    9.1499    0.0000 C   0  0  0  0  0  0  0  0  0  0  0  0
   -4.8772    4.2269    0.0000 C   0  0  0  0  0  0  0  0  0  0  0  0
   -2.8698    4.2269    0.0000 C   0  0  0  0  0  0  0  0  0  0  0  0
   -5.2640    1.0619    0.0000 C   0  0  0  0  0  0  0  0  0  0  0  0
   -6.7313    0.7500    0.0000 C   0  0  0  0  0  0  0  0  0  0  0  0
   -2.8519   10.2337    0.0000 O   0  0  0  0  0  0  0  0  0  0  0  0
  1 10  1  0  0  0  0
  1  2  1  0  0  0  0
  1  5  1  0  0  0  0
  2  4  1  0  0  0  0
  2 12  1  0  0  0  0
  2 13  1  0  0  0  0
  3  5  1  0  0  0  0
  3  4  1  0  0  0  0
  3 14  1  0  0  0  0
  3 15  1  0  0  0  0
  5  9  1  0  0  0  0
  6  7  1  0  0  0  0
  6  8  2  0  0  0  0
  6 15  1  0  0  0  0
  7 16  1  0  0  0  0
 10 11  2  0  0  0  0
 10 18  1  0  0  0  0
 16 17  1  0  0  0  0
M  END
