268251
 OpenBabel03021519512D

 41 43  0  0  1  0  0  0  0  0999 V2000
    2.0490  -17.2500    0.0000 N   0  0  0  0  0  0  0  0  0  0  0  0
    5.9461  -15.0000    0.0000 O   0  0  0  0  0  0  0  0  0  0  0  0
    3.3480  -19.5000    0.0000 N   0  0  0  0  0  0  0  0  0  0  0  0
    7.2452  -12.7500    0.0000 C   0  0  3  0  0  0  0  0  0  0  0  0
    7.2452  -14.2500    0.0000 C   0  0  3  0  0  0  0  0  0  0  0  0
    5.9461  -12.0000    0.0000 C   0  0  3  0  0  0  0  0  0  0  0  0
    4.6471  -12.7500    0.0000 C   0  0  3  0  0  0  0  0  0  0  0  0
    4.6471  -14.2500    0.0000 C   0  0  3  0  0  0  0  0  0  0  0  0
    3.3480  -16.5000    0.0000 C   0  0  0  0  0  0  0  0  0  0  0  0
    4.6471  -17.2500    0.0000 C   0  0  0  0  0  0  0  0  0  0  0  0
    4.6471  -18.7500    0.0000 C   0  0  0  0  0  0  0  0  0  0  0  0
    2.0490  -18.7500    0.0000 C   0  0  0  0  0  0  0  0  0  0  0  0
    2.0490   -8.2500    0.0000 C   0  0  0  0  0  0  0  0  0  0  0  0
    3.3481   -7.5000    0.0000 C   0  0  0  0  0  0  0  0  0  0  0  0
    3.3481   -6.0000    0.0000 C   0  0  0  0  0  0  0  0  0  0  0  0
    2.0490   -5.2500    0.0000 C   0  0  0  0  0  0  0  0  0  0  0  0
    2.0490   -3.7500    0.0000 C   0  0  0  0  0  0  0  0  0  0  0  0
    0.7500   -3.0000    0.0000 C   0  0  0  0  0  0  0  0  0  0  0  0
    0.7500   -1.5000    0.0000 C   0  0  0  0  0  0  0  0  0  0  0  0
    2.0490   -0.7500    0.0000 C   0  0  0  0  0  0  0  0  0  0  0  0
    3.3481   -1.5000    0.0000 C   0  0  0  0  0  0  0  0  0  0  0  0
    3.3481   -3.0000    0.0000 C   0  0  0  0  0  0  0  0  0  0  0  0
    4.6471   -3.7500    0.0000 C   0  0  0  0  0  0  0  0  0  0  0  0
    4.6471   -5.2500    0.0000 C   0  0  0  0  0  0  0  0  0  0  0  0
    5.9461   -6.0000    0.0000 C   0  0  0  0  0  0  0  0  0  0  0  0
    5.9461   -7.5000    0.0000 C   0  0  0  0  0  0  0  0  0  0  0  0
    4.6471   -8.2500    0.0000 O   0  0  0  0  0  0  0  0  0  0  0  0
    7.2452   -9.7500    0.0000 C   0  0  0  0  0  0  0  0  0  0  0  0
    8.5442  -10.5000    0.0000 C   0  0  0  0  0  0  0  0  0  0  0  0
    9.8433   -9.7500    0.0000 O   0  0  0  0  0  0  0  0  0  0  0  0
    3.3480  -15.0000    0.0000 N   0  0  0  0  0  0  0  0  0  0  0  0
    5.9461  -13.5000    0.0000 C   0  0  0  0  0  0  0  0  0  0  0  0
    5.9461  -10.5000    0.0000 O   0  0  0  0  0  0  0  0  0  0  0  0
    7.2452   -8.2500    0.0000 N   0  0  0  0  0  0  0  0  0  0  0  0
    8.5442  -12.0000    0.0000 N   0  0  0  0  0  0  0  0  0  0  0  0
    2.0490   -9.7500    0.0000 C   0  0  0  0  0  0  0  0  0  0  0  0
    0.7500   -7.5000    0.0000 C   0  0  0  0  0  0  0  0  0  0  0  0
    6.0737  -19.2135    0.0000 N   0  0  0  0  0  0  0  0  0  0  0  0
    6.9553  -18.0000    0.0000 C   0  0  0  0  0  0  0  0  0  0  0  0
    6.0737  -16.7865    0.0000 N   0  0  0  0  0  0  0  0  0  0  0  0
    5.9461  -13.5000    0.0000 O   0  0  0  0  0  0  0  0  0  0  0  0
  1  9  2  0  0  0  0
  1 12  1  0  0  0  0
  2  5  1  0  0  0  0
  2  8  1  0  0  0  0
  3 12  2  0  0  0  0
  3 11  1  0  0  0  0
  4  5  1  0  0  0  0
  4  6  1  0  0  0  0
  4 35  1  0  0  0  0
  5 32  1  0  0  0  0
  6  7  1  0  0  0  0
  6 33  1  0  0  0  0
  7  8  1  0  0  0  0
  7 41  1  0  0  0  0
  8 31  1  0  0  0  0
  9 10  1  0  0  0  0
  9 31  1  0  0  0  0
 10 11  2  0  0  0  0
 10 40  1  0  0  0  0
 11 38  1  0  0  0  0
 13 14  1  0  0  0  0
 13 36  1  0  0  0  0
 13 37  1  0  0  0  0
 14 15  1  0  0  0  0
 15 16  1  0  0  0  0
 16 17  1  0  0  0  0
 17 18  1  0  0  0  0
 18 19  1  0  0  0  0
 19 20  1  0  0  0  0
 20 21  1  0  0  0  0
 21 22  1  0  0  0  0
 22 23  1  0  0  0  0
 23 24  1  0  0  0  0
 24 25  1  0  0  0  0
 25 26  1  0  0  0  0
 26 27  2  0  0  0  0
 26 34  1  0  0  0  0
 28 29  1  0  0  0  0
 28 34  1  0  0  0  0
 29 30  2  0  0  0  0
 29 35  1  0  0  0  0
 38 39  2  0  0  0  0
 39 40  1  0  0  0  0
M  END
