50572
 OpenBabel03021519512D

 17 18  0  0  0  0  0  0  0  0999 V2000
   -1.2324    8.3654    0.0000 N   0  0  0  0  0  0  0  0  0  0  0  0
    1.3657    8.3654    0.0000 N   0  0  0  0  0  0  0  0  0  0  0  0
    2.6647    6.1154    0.0000 N   0  0  0  0  0  0  0  0  0  0  0  0
   -2.5315    7.6154    0.0000 C   0  0  0  0  0  0  0  0  0  0  0  0
   -2.5315    6.1154    0.0000 C   0  0  0  0  0  0  0  0  0  0  0  0
   -1.2324    5.3654    0.0000 C   0  0  0  0  0  0  0  0  0  0  0  0
    0.0666    7.6154    0.0000 C   0  0  0  0  0  0  0  0  0  0  0  0
    0.0666    6.1154    0.0000 C   0  0  0  0  0  0  0  0  0  0  0  0
    1.3657    5.3654    0.0000 C   0  0  0  0  0  0  0  0  0  0  0  0
    2.6647    7.6154    0.0000 C   0  0  0  0  0  0  0  0  0  0  0  0
   -3.8305    8.3654    0.0000 C   0  0  0  0  0  0  0  0  0  0  0  0
   -1.2324    3.8654    0.0000 C   0  0  0  0  0  0  0  0  0  0  0  0
    1.3657    3.8654    0.0000 S   0  0  0  0  0  0  0  0  0  0  0  0
    2.6647    3.1154    0.0000 C   0  0  0  0  0  0  0  0  0  0  0  0
    2.6647    1.6154    0.0000 C   0  0  0  0  0  0  0  0  0  0  0  0
    3.9637    3.8654    0.0000 C   0  0  0  0  0  0  0  0  0  0  0  0
    3.9637    8.3654    0.0000 N   0  0  0  0  0  0  0  0  0  0  0  0
  1  4  2  0  0  0  0
  1  7  1  0  0  0  0
  2 10  2  0  0  0  0
  2  7  1  0  0  0  0
  3  9  2  0  0  0  0
  3 10  1  0  0  0  0
  4  5  1  0  0  0  0
  4 11  1  0  0  0  0
  5  6  2  0  0  0  0
  6  8  1  0  0  0  0
  6 12  1  0  0  0  0
  7  8  2  0  0  0  0
  8  9  1  0  0  0  0
  9 13  1  0  0  0  0
 10 17  1  0  0  0  0
 13 14  1  0  0  0  0
 14 15  1  0  0  0  0
 14 16  1  0  0  0  0
M  END
