309401
 OpenBabel03021519512D

 24 26  0  0  0  0  0  0  0  0999 V2000
   -4.9516   -1.8192    0.0000 C   0  0  0  0  0  0  0  0  0  0  0  0
   -6.3782   -2.2828    0.0000 C   0  0  0  0  0  0  0  0  0  0  0  0
   -6.3782   -3.7828    0.0000 C   0  0  0  0  0  0  0  0  0  0  0  0
   -8.9195   -4.3230    0.0000 C   0  0  0  0  0  0  0  0  0  0  0  0
   -1.8199   -4.3318    0.0000 C   0  0  0  0  0  0  0  0  0  0  0  0
   -4.9516   -4.2463    0.0000 C   0  0  0  0  0  0  0  0  0  0  0  0
   -7.4929   -4.7865    0.0000 C   0  0  0  0  0  0  0  0  0  0  0  0
   -0.3199   -4.3318    0.0000 C   0  0  0  0  0  0  0  0  0  0  0  0
   -2.5699   -5.6308    0.0000 C   0  0  0  0  0  0  0  0  0  0  0  0
   -4.6397   -5.7135    0.0000 C   0  0  0  0  0  0  0  0  0  0  0  0
   -7.1810   -6.2537    0.0000 C   0  0  0  0  0  0  0  0  0  0  0  0
   -9.7223   -6.7939    0.0000 C   0  0  0  0  0  0  0  0  0  0  0  0
    0.4301   -5.6308    0.0000 C   0  0  0  0  0  0  0  0  0  0  0  0
   -1.8199   -6.9299    0.0000 C   0  0  0  0  0  0  0  0  0  0  0  0
   -5.7544   -6.7172    0.0000 C   0  0  0  0  0  0  0  0  0  0  0  0
   -0.3199   -6.9299    0.0000 C   0  0  0  0  0  0  0  0  0  0  0  0
  -10.0342   -5.3267    0.0000 N   0  0  0  0  0  0  0  0  0  0  0  0
   -8.2957   -7.2574    0.0000 N   0  0  0  0  0  0  0  0  0  0  0  0
   -4.0699   -3.0328    0.0000 N   0  0  0  0  0  0  0  0  0  0  0  0
  -10.8370   -7.7976    0.0000 N   0  0  0  0  0  0  0  0  0  0  0  0
   -9.2313   -2.8557    0.0000 N   0  0  0  0  0  0  0  0  0  0  0  0
   -2.5699   -3.0328    0.0000 C   0  0  0  0  0  0  0  0  0  0  0  0
    0.4301   -8.2289    0.0000 N   0  0  0  0  0  0  0  0  0  0  0  0
   -4.3400  -10.7764    0.0000 Cl  0  0  0  0  0  0  0  0  0  0  0  0
  1 19  1  0  0  0  0
  1  2  2  0  0  0  0
  2  3  1  0  0  0  0
  3  6  2  0  0  0  0
  3  7  1  0  0  0  0
  4 17  2  0  0  0  0
  4  7  1  0  0  0  0
  4 21  1  0  0  0  0
  5  9  2  0  0  0  0
  5  8  1  0  0  0  0
  5 22  1  0  0  0  0
  6 19  1  0  0  0  0
  6 10  1  0  0  0  0
  7 11  2  0  0  0  0
  8 13  2  0  0  0  0
  9 14  1  0  0  0  0
 10 15  2  0  0  0  0
 11 15  1  0  0  0  0
 11 18  1  0  0  0  0
 12 17  1  0  0  0  0
 12 18  2  0  0  0  0
 12 20  1  0  0  0  0
 13 16  1  0  0  0  0
 14 16  2  0  0  0  0
 16 23  1  0  0  0  0
 19 22  1  0  0  0  0
M  END
