7419
 OpenBabel03021519512D

 21 21  0  0  0  0  0  0  0  0999 V2000
   -8.2620   -2.3154    0.0000 Cl  0  0  0  0  0  0  0  0  0  0  0  0
   -7.2535   -5.4190    0.0000 Cl  0  0  0  0  0  0  0  0  0  0  0  0
   -5.6219   -0.3972    0.0000 Cl  0  0  0  0  0  0  0  0  0  0  0  0
   -3.9902   -5.4190    0.0000 Cl  0  0  0  0  0  0  0  0  0  0  0  0
   -5.6219   -1.8972    0.0000 C   0  0  0  0  0  0  0  0  0  0  0  0
   -4.4083   -2.7789    0.0000 C   0  0  0  0  0  0  0  0  0  0  0  0
   -6.8354   -2.7789    0.0000 C   0  0  0  0  0  0  0  0  0  0  0  0
   -4.8718   -4.2055    0.0000 C   0  0  0  0  0  0  0  0  0  0  0  0
   -6.3718   -4.2055    0.0000 C   0  0  0  0  0  0  0  0  0  0  0  0
   -2.9817   -2.3154    0.0000 C   0  0  0  0  0  0  0  0  0  0  0  0
   -1.8670   -3.3191    0.0000 Cl  0  0  0  0  0  0  0  0  0  0  0  0
   -2.6699   -0.8482    0.0000 C   0  0  0  0  0  0  0  0  0  0  0  0
   -3.7846    0.1555    0.0000 O   0  0  0  0  0  0  0  0  0  0  0  0
   -1.2433   -0.3846    0.0000 N   0  0  0  0  0  0  0  0  0  0  0  0
   -0.1286   -1.3883    0.0000 C   0  0  0  0  0  0  0  0  0  0  0  0
    1.2980   -0.9248    0.0000 C   0  0  0  0  0  0  0  0  0  0  0  0
    2.4127   -1.9285    0.0000 N   0  0  0  0  0  0  0  0  0  0  0  0
    3.8393   -1.4650    0.0000 C   0  0  0  0  0  0  0  0  0  0  0  0
    4.9540   -2.4687    0.0000 C   0  0  0  0  0  0  0  0  0  0  0  0
    2.1009   -3.3957    0.0000 C   0  0  0  0  0  0  0  0  0  0  0  0
    3.2156   -4.3994    0.0000 C   0  0  0  0  0  0  0  0  0  0  0  0
  1  7  1  0  0  0  0
  2  9  1  0  0  0  0
  3  5  1  0  0  0  0
  4  8  1  0  0  0  0
  5  7  2  0  0  0  0
  5  6  1  0  0  0  0
  6  8  1  0  0  0  0
  6 10  2  0  0  0  0
  7  9  1  0  0  0  0
  8  9  2  0  0  0  0
 10 11  1  0  0  0  0
 10 12  1  0  0  0  0
 12 13  2  0  0  0  0
 12 14  1  0  0  0  0
 14 15  1  0  0  0  0
 15 16  1  0  0  0  0
 16 17  1  0  0  0  0
 17 18  1  0  0  0  0
 17 20  1  0  0  0  0
 18 19  1  0  0  0  0
 20 21  1  0  0  0  0
M  END
