217913
 OpenBabel03021519512D

 19 20  0  0  0  0  0  0  0  0999 V2000
   -7.6049   -5.3702    0.0000 Cl  0  0  0  0  0  0  0  0  0  0  0  0
   -7.6049   -8.3702    0.0000 Cl  0  0  0  0  0  0  0  0  0  0  0  0
   -6.3059   -6.1202    0.0000 C   0  0  0  0  0  0  0  0  0  0  0  0
   -6.3059   -7.6202    0.0000 C   0  0  0  0  0  0  0  0  0  0  0  0
   -5.0068   -5.3702    0.0000 N   0  0  0  0  0  0  0  0  0  0  0  0
   -5.0068   -8.3702    0.0000 N   0  0  0  0  0  0  0  0  0  0  0  0
   -3.7078   -6.1202    0.0000 C   0  0  0  0  0  0  0  0  0  0  0  0
   -3.7078   -7.6202    0.0000 C   0  0  0  0  0  0  0  0  0  0  0  0
   -2.2812   -8.0837    0.0000 N   0  0  0  0  0  0  0  0  0  0  0  0
   -1.8177   -9.5103    0.0000 H   0  0  0  0  0  0  0  0  0  0  0  0
   -2.2812   -5.6567    0.0000 N   0  0  0  0  0  0  0  0  0  0  0  0
   -1.3995   -6.8702    0.0000 C   0  0  0  0  0  0  0  0  0  0  0  0
    0.1005   -6.8702    0.0000 S   0  0  0  0  0  0  0  0  0  0  0  0
    0.1005   -4.2721    0.0000 C   0  0  0  0  0  0  0  0  0  0  0  0
   -1.3995   -4.2721    0.0000 O   0  0  0  0  0  0  0  0  0  0  0  0
    0.8505   -2.9731    0.0000 O   0  0  0  0  0  0  0  0  0  0  0  0
    0.8505   -5.5712    0.0000 C   0  0  0  0  0  0  0  0  0  0  0  0
    0.1005   -1.6740    0.0000 C   0  0  0  0  0  0  0  0  0  0  0  0
   -1.3995   -1.6740    0.0000 C   0  0  0  0  0  0  0  0  0  0  0  0
  1  3  1  0  0  0  0
  2  4  1  0  0  0  0
  3  5  2  0  0  0  0
  3  4  1  0  0  0  0
  4  6  2  0  0  0  0
  5  7  1  0  0  0  0
  6  8  1  0  0  0  0
  7 11  1  0  0  0  0
  7  8  2  0  0  0  0
  8  9  1  0  0  0  0
  9 12  1  0  0  0  0
  9 10  1  0  0  0  0
 11 12  2  0  0  0  0
 12 13  1  0  0  0  0
 13 17  1  0  0  0  0
 14 15  2  0  0  0  0
 14 16  1  0  0  0  0
 14 17  1  0  0  0  0
 16 18  1  0  0  0  0
 18 19  1  0  0  0  0
M  END
