125344
 OpenBabel03021519512D

 19 21  0  0  1  0  0  0  0  0999 V2000
   -1.0245    3.2745    0.0000 Cl  0  0  0  0  0  0  0  0  0  0  0  0
   -1.0245    6.2745    0.0000 O   0  0  0  0  0  0  0  0  0  0  0  0
    4.4835    7.7418    0.0000 O   0  0  0  0  0  0  0  0  0  0  0  0
    6.7253    9.1976    0.0000 O   0  0  0  0  0  0  0  0  0  0  0  0
    5.9753    7.8986    0.0000 C   0  0  0  0  0  0  0  0  0  0  0  0
    6.5854    6.5282    0.0000 C   0  0  3  0  0  0  0  0  0  0  0  0
    5.4707    5.5245    0.0000 C   0  0  3  0  0  0  0  0  0  0  0  0
    4.1716    6.2745    0.0000 C   0  0  3  0  0  0  0  0  0  0  0  0
    2.8726    5.5245    0.0000 C   0  0  0  0  0  0  0  0  0  0  0  0
    1.5735    6.2745    0.0000 C   0  0  0  0  0  0  0  0  0  0  0  0
    0.2745    5.5245    0.0000 C   0  0  0  0  0  0  0  0  0  0  0  0
    5.4707    4.0245    0.0000 C   0  0  0  0  0  0  0  0  0  0  0  0
    2.8726    4.0245    0.0000 C   0  0  3  0  0  0  0  0  0  0  0  0
    0.2745    4.0245    0.0000 C   0  0  0  0  0  0  0  0  0  0  0  0
    4.1716    3.2745    0.0000 C   0  0  0  0  0  0  0  0  0  0  0  0
    1.5735    3.2745    0.0000 C   0  0  0  0  0  0  0  0  0  0  0  0
    1.5735    7.7745    0.0000 C   0  0  0  0  0  0  0  0  0  0  0  0
    2.8726    2.5245    0.0000 C   0  0  0  0  0  0  0  0  0  0  0  0
    8.0526    6.2164    0.0000 C   0  0  0  0  0  0  0  0  0  0  0  0
  1 14  1  0  0  0  0
  2 11  2  0  0  0  0
  3  5  1  0  0  0  0
  3  8  1  0  0  0  0
  4  5  2  0  0  0  0
  5  6  1  0  0  0  0
  6  7  1  0  0  0  0
  6 19  1  0  0  0  0
  7  8  1  0  0  0  0
  7 12  1  0  0  0  0
  8  9  1  0  0  0  0
  9 10  2  0  0  0  0
  9 13  1  0  0  0  0
 10 11  1  0  0  0  0
 10 17  1  0  0  0  0
 11 14  1  0  0  0  0
 12 15  1  0  0  0  0
 13 16  1  0  0  0  0
 13 15  1  0  0  0  0
 13 18  1  0  0  0  0
 14 16  2  0  0  0  0
M  END
