294623
 OpenBabel03021519512D

 18 19  0  0  0  0  0  0  0  0999 V2000
   -3.1899    7.3797    0.0000 C   0  0  0  0  0  0  0  0  0  0  0  0
   -1.7045    7.5885    0.0000 O   0  0  0  0  0  0  0  0  0  0  0  0
   -2.6371    4.9852    0.0000 C   0  0  0  0  0  0  0  0  0  0  0  0
   -1.2105    5.4488    0.0000 N   0  0  0  0  0  0  0  0  0  0  0  0
    0.0030    4.5671    0.0000 C   0  0  0  0  0  0  0  0  0  0  0  0
   -0.7470    6.8754    0.0000 N   0  0  0  0  0  0  0  0  0  0  0  0
    1.2166    5.4488    0.0000 C   0  0  0  0  0  0  0  0  0  0  0  0
    0.7530    6.8754    0.0000 C   0  0  0  0  0  0  0  0  0  0  0  0
   -4.1134    8.5617    0.0000 C   0  0  0  0  0  0  0  0  0  0  0  0
   -3.5515    9.9525    0.0000 C   0  0  0  0  0  0  0  0  0  0  0  0
   -4.4750   11.1345    0.0000 C   0  0  0  0  0  0  0  0  0  0  0  0
   -5.9604   10.9258    0.0000 C   0  0  0  0  0  0  0  0  0  0  0  0
   -6.5223    9.5350    0.0000 C   0  0  0  0  0  0  0  0  0  0  0  0
   -5.5988    8.3530    0.0000 C   0  0  0  0  0  0  0  0  0  0  0  0
   -3.7518    5.9889    0.0000 N   0  0  0  0  0  0  0  0  0  0  0  0
   -2.9489    3.5180    0.0000 N   0  0  0  0  0  0  0  0  0  0  0  0
    0.0031    3.0671    0.0000 C   0  0  0  0  0  0  0  0  0  0  0  0
    1.6347    8.0889    0.0000 C   0  0  0  0  0  0  0  0  0  0  0  0
  1  2  2  0  0  0  0
  1  9  1  0  0  0  0
  1 15  1  0  0  0  0
  3  4  1  0  0  0  0
  3 15  1  0  0  0  0
  3 16  2  0  0  0  0
  4  6  1  0  0  0  0
  4  5  1  0  0  0  0
  5  7  2  0  0  0  0
  5 17  1  0  0  0  0
  6  8  2  0  0  0  0
  7  8  1  0  0  0  0
  8 18  1  0  0  0  0
  9 10  2  0  0  0  0
  9 14  1  0  0  0  0
 10 11  1  0  0  0  0
 11 12  2  0  0  0  0
 12 13  1  0  0  0  0
 13 14  2  0  0  0  0
M  END
