402843
 OpenBabel03021519512D

 13 13  0  0  0  0  0  0  0  0999 V2000
    3.5791    6.8264    0.0000 O   0  0  0  0  0  0  0  0  0  0  0  0
   -0.9240    7.3995    0.0000 C   0  0  0  0  0  0  0  0  0  0  0  0
    0.3750    6.6495    0.0000 C   0  0  0  0  0  0  0  0  0  0  0  0
   -2.2231    6.6495    0.0000 C   0  0  0  0  0  0  0  0  0  0  0  0
    0.3750    5.1495    0.0000 C   0  0  0  0  0  0  0  0  0  0  0  0
   -2.2231    5.1495    0.0000 C   0  0  0  0  0  0  0  0  0  0  0  0
   -0.9240    4.3995    0.0000 C   0  0  0  0  0  0  0  0  0  0  0  0
   -0.9240    2.8995    0.0000 C   0  0  0  0  0  0  0  0  0  0  0  0
   -2.2231    2.1495    0.0000 O   0  0  0  0  0  0  0  0  0  0  0  0
    0.3750    2.1495    0.0000 O   0  0  0  0  0  0  0  0  0  0  0  0
    2.5184    7.8870    0.0000 As  0  0  3  0  0  0  0  0  0  0  0  0
    2.9066    9.3359    0.0000 C   0  0  0  0  0  0  0  0  0  0  0  0
    1.0184    7.8870    0.0000 O   0  0  0  0  0  0  0  0  0  0  0  0
  1 11  2  0  0  0  0
  2  4  2  0  0  0  0
  2  3  1  0  0  0  0
  3  5  2  0  0  0  0
  3 11  1  0  0  0  0
  4  6  1  0  0  0  0
  5  7  1  0  0  0  0
  6  7  2  0  0  0  0
  7  8  1  0  0  0  0
  8  9  2  0  0  0  0
  8 10  1  0  0  0  0
 11 12  1  0  0  0  0
 11 13  1  0  0  0  0
M  END
