15358
 OpenBabel03021519512D

 20 21  0  0  0  0  0  0  0  0999 V2000
   -0.2745   10.0245    0.0000 C   0  0  0  0  0  0  0  0  0  0  0  0
   -0.2745   11.5245    0.0000 C   0  0  0  0  0  0  0  0  0  0  0  0
    1.0245    9.2745    0.0000 C   0  0  0  0  0  0  0  0  0  0  0  0
    1.0245   12.2745    0.0000 C   0  0  0  0  0  0  0  0  0  0  0  0
    2.3236   10.0245    0.0000 C   0  0  0  0  0  0  0  0  0  0  0  0
    2.3236   11.5245    0.0000 C   0  0  0  0  0  0  0  0  0  0  0  0
   -1.5736    7.7745    0.0000 C   0  0  0  0  0  0  0  0  0  0  0  0
   -0.2745    7.0245    0.0000 C   0  0  0  0  0  0  0  0  0  0  0  0
   -2.8726    7.0245    0.0000 C   0  0  0  0  0  0  0  0  0  0  0  0
   -0.2745    5.5245    0.0000 C   0  0  0  0  0  0  0  0  0  0  0  0
   -2.8726    5.5245    0.0000 C   0  0  0  0  0  0  0  0  0  0  0  0
   -1.5736    4.7745    0.0000 C   0  0  0  0  0  0  0  0  0  0  0  0
   -4.9216    6.0736    0.0000 N   0  0  0  0  0  0  0  0  0  0  0  0
   -4.1716    4.7745    0.0000 S   0  0  0  0  0  0  0  0  0  0  0  0
   -5.4707    4.0245    0.0000 O   0  0  0  0  0  0  0  0  0  0  0  0
   -3.4216    3.4755    0.0000 O   0  0  0  0  0  0  0  0  0  0  0  0
    1.0245    4.7745    0.0000 N   0  3  0  0  0  0  0  0  0  0  0  0
    2.3235    5.5245    0.0000 O   0  5  0  0  0  0  0  0  0  0  0  0
    1.0245    3.2745    0.0000 O   0  0  0  0  0  0  0  0  0  0  0  0
    1.0245    7.7745    0.0000 N   0  0  0  0  0  0  0  0  0  0  0  0
  1  2  2  0  0  0  0
  1  3  1  0  0  0  0
  2  4  1  0  0  0  0
  3  5  2  0  0  0  0
  3 20  1  0  0  0  0
  4  6  2  0  0  0  0
  5  6  1  0  0  0  0
  7  9  2  0  0  0  0
  7  8  1  0  0  0  0
  8 10  2  0  0  0  0
  8 20  1  0  0  0  0
  9 11  1  0  0  0  0
 10 12  1  0  0  0  0
 10 17  1  0  0  0  0
 11 12  2  0  0  0  0
 11 14  1  0  0  0  0
 13 14  1  0  0  0  0
 14 15  2  0  0  0  0
 14 16  2  0  0  0  0
 17 18  1  0  0  0  0
 17 19  2  0  0  0  0
M  CHG  2  17   1  18  -1
M  END
