139021
 OpenBabel03021519512D

 18 20  0  0  0  0  0  0  0  0999 V2000
   -3.6996    1.0553    0.0000 N   0  0  0  0  0  0  0  0  0  0  0  0
   -2.4860   -2.3014    0.0000 N   0  0  0  0  0  0  0  0  0  0  0  0
   -3.7851   -3.0514    0.0000 N   0  0  0  0  0  0  0  0  0  0  0  0
   -1.2725    1.0553    0.0000 S   0  0  0  0  0  0  0  0  0  0  0  0
   -1.7361    2.4819    0.0000 C   0  0  0  0  0  0  0  0  0  0  0  0
   -3.2361    2.4819    0.0000 C   0  0  0  0  0  0  0  0  0  0  0  0
   -2.4861    0.1736    0.0000 C   0  0  0  0  0  0  0  0  0  0  0  0
   -3.7851   -4.5514    0.0000 C   0  0  0  0  0  0  0  0  0  0  0  0
   -5.0841   -5.3014    0.0000 C   0  0  0  0  0  0  0  0  0  0  0  0
   -2.4860   -5.3014    0.0000 C   0  0  0  0  0  0  0  0  0  0  0  0
   -6.3832   -4.5514    0.0000 C   0  0  0  0  0  0  0  0  0  0  0  0
   -7.6822   -5.3014    0.0000 C   0  0  0  0  0  0  0  0  0  0  0  0
   -2.4860   -6.8014    0.0000 C   0  0  0  0  0  0  0  0  0  0  0  0
   -5.0841   -6.8014    0.0000 C   0  0  0  0  0  0  0  0  0  0  0  0
   -7.6822   -6.8014    0.0000 C   0  0  0  0  0  0  0  0  0  0  0  0
   -3.7851   -7.5514    0.0000 C   0  0  0  0  0  0  0  0  0  0  0  0
   -6.3831   -7.5514    0.0000 C   0  0  0  0  0  0  0  0  0  0  0  0
   -1.1870   -4.5513    0.0000 O   0  0  0  0  0  0  0  0  0  0  0  0
  1  7  2  0  0  0  0
  1  6  1  0  0  0  0
  2  3  2  0  0  0  0
  2  7  1  0  0  0  0
  3  8  1  0  0  0  0
  4  5  1  0  0  0  0
  4  7  1  0  0  0  0
  5  6  2  0  0  0  0
  8 10  2  0  0  0  0
  8  9  1  0  0  0  0
  9 14  2  0  0  0  0
  9 11  1  0  0  0  0
 10 13  1  0  0  0  0
 10 18  1  0  0  0  0
 11 12  2  0  0  0  0
 12 15  1  0  0  0  0
 13 16  2  0  0  0  0
 14 16  1  0  0  0  0
 14 17  1  0  0  0  0
 15 17  2  0  0  0  0
M  END
