147829
 OpenBabel03021519512D

 16 18  0  0  0  0  0  0  0  0999 V2000
    1.3672    2.8248    0.0000 C   0  0  0  0  0  0  0  0  0  0  0  0
    1.3672    1.3248    0.0000 C   0  0  0  0  0  0  0  0  0  0  0  0
    2.6662    3.5749    0.0000 C   0  0  0  0  0  0  0  0  0  0  0  0
    2.6662    0.5748    0.0000 C   0  0  0  0  0  0  0  0  0  0  0  0
    3.9653    2.8249    0.0000 C   0  0  0  0  0  0  0  0  0  0  0  0
    3.9653    1.3249    0.0000 C   0  0  0  0  0  0  0  0  0  0  0  0
    5.8554    4.7150    0.0000 H   0  0  0  0  0  0  0  0  0  0  0  0
    5.3918    3.2884    0.0000 N   0  0  0  0  0  0  0  0  0  0  0  0
    5.3919    0.8613    0.0000 C   0  0  0  0  0  0  0  0  0  0  0  0
    6.2735    2.0749    0.0000 C   0  0  0  0  0  0  0  0  0  0  0  0
    7.7653    1.9181    0.0000 C   0  0  0  0  0  0  0  0  0  0  0  0
    6.0020   -0.5090    0.0000 C   0  0  0  0  0  0  0  0  0  0  0  0
    8.6470    3.1316    0.0000 O   0  0  0  0  0  0  0  0  0  0  0  0
    8.3754    0.5478    0.0000 N   0  0  0  0  0  0  0  0  0  0  0  0
    7.4938   -0.6658    0.0000 C   0  0  0  0  0  0  0  0  0  0  0  0
    9.8672    0.3910    0.0000 H   0  0  0  0  0  0  0  0  0  0  0  0
  1  3  2  0  0  0  0
  1  2  1  0  0  0  0
  2  4  2  0  0  0  0
  3  5  1  0  0  0  0
  4  6  1  0  0  0  0
  5  8  1  0  0  0  0
  5  6  2  0  0  0  0
  6  9  1  0  0  0  0
  7  8  1  0  0  0  0
  8 10  1  0  0  0  0
  9 10  2  0  0  0  0
  9 12  1  0  0  0  0
 10 11  1  0  0  0  0
 11 13  2  0  0  0  0
 11 14  1  0  0  0  0
 12 15  1  0  0  0  0
 14 16  1  0  0  0  0
 14 15  1  0  0  0  0
M  END
