294756
 OpenBabel03021519512D

 22 24  0  0  0  0  0  0  0  0999 V2000
  -10.3901    0.9611    0.0000 S   0  0  0  0  0  0  0  0  0  0  0  0
   -9.0198    0.3510    0.0000 C   0  0  0  0  0  0  0  0  0  0  0  0
   -7.7208    1.1009    0.0000 N   0  0  0  0  0  0  0  0  0  0  0  0
   -8.7079   -1.1163    0.0000 S   0  0  0  0  0  0  0  0  0  0  0  0
   -7.2162   -1.2731    0.0000 C   0  0  0  0  0  0  0  0  0  0  0  0
   -6.6060    0.0973    0.0000 C   0  0  0  0  0  0  0  0  0  0  0  0
   -6.4662   -2.5721    0.0000 C   0  0  0  0  0  0  0  0  0  0  0  0
   -7.2162   -3.8711    0.0000 O   0  0  0  0  0  0  0  0  0  0  0  0
   -4.9662   -2.5721    0.0000 N   0  0  0  0  0  0  0  0  0  0  0  0
   -4.2162   -1.2731    0.0000 C   0  0  0  0  0  0  0  0  0  0  0  0
   -4.2161   -3.8711    0.0000 C   0  0  0  0  0  0  0  0  0  0  0  0
   -2.7161   -3.8711    0.0000 C   0  0  0  0  0  0  0  0  0  0  0  0
   -2.7162   -1.2731    0.0000 C   0  0  0  0  0  0  0  0  0  0  0  0
   -1.9661   -2.5721    0.0000 C   0  0  0  0  0  0  0  0  0  0  0  0
   -8.9635    4.1652    0.0000 C   0  0  0  0  0  0  0  0  0  0  0  0
   -8.8067    2.6734    0.0000 C   0  0  0  0  0  0  0  0  0  0  0  0
  -10.0203    1.7918    0.0000 C   0  0  0  0  0  0  0  0  0  0  0  0
  -11.3906    2.4019    0.0000 C   0  0  0  0  0  0  0  0  0  0  0  0
  -11.5474    3.8937    0.0000 C   0  0  0  0  0  0  0  0  0  0  0  0
  -10.3339    4.7753    0.0000 C   0  0  0  0  0  0  0  0  0  0  0  0
  -10.6018    2.9750    0.0000 C   0  0  0  0  0  0  0  0  0  0  0  0
   -5.1388    0.4091    0.0000 N   0  0  0  0  0  0  0  0  0  0  0  0
  1  2  1  0  0  0  0
  1 21  1  0  0  0  0
  2  3  2  0  0  0  0
  2  4  1  0  0  0  0
  3  6  1  0  0  0  0
  4  5  1  0  0  0  0
  5  6  2  0  0  0  0
  5  7  1  0  0  0  0
  6 22  1  0  0  0  0
  7  9  1  0  0  0  0
  7  8  2  0  0  0  0
  9 10  1  0  0  0  0
  9 11  1  0  0  0  0
 10 13  1  0  0  0  0
 11 12  1  0  0  0  0
 12 14  1  0  0  0  0
 13 14  1  0  0  0  0
 15 16  2  0  0  0  0
 15 20  1  0  0  0  0
 15 21  1  0  0  0  0
 16 17  1  0  0  0  0
 17 18  2  0  0  0  0
 18 19  1  0  0  0  0
 19 20  2  0  0  0  0
M  END
