140899
 OpenBabel03021519512D

 20 22  0  0  0  0  0  0  0  0999 V2000
    4.6471    0.7500    0.0000 N   0  0  0  0  0  0  0  0  0  0  0  0
    8.2544    2.2500    0.0000 N   0  0  0  0  0  0  0  0  0  0  0  0
    7.3727    3.4635    0.0000 C   0  0  0  0  0  0  0  0  0  0  0  0
    5.9462    3.0000    0.0000 C   0  0  0  0  0  0  0  0  0  0  0  0
    4.6471    3.7500    0.0000 C   0  0  0  0  0  0  0  0  0  0  0  0
    3.3481    3.0000    0.0000 C   0  0  0  0  0  0  0  0  0  0  0  0
    2.0490    3.7500    0.0000 C   0  0  0  0  0  0  0  0  0  0  0  0
    0.7500    3.0000    0.0000 C   0  0  0  0  0  0  0  0  0  0  0  0
    5.9462    1.5000    0.0000 C   0  0  0  0  0  0  0  0  0  0  0  0
    3.3481    1.5000    0.0000 C   0  0  0  0  0  0  0  0  0  0  0  0
    0.7500    1.5000    0.0000 C   0  0  0  0  0  0  0  0  0  0  0  0
    7.3727    1.0365    0.0000 C   0  0  0  0  0  0  0  0  0  0  0  0
    2.0490    0.7500    0.0000 C   0  0  0  0  0  0  0  0  0  0  0  0
    9.7544    2.2500    0.0000 C   0  0  0  0  0  0  0  0  0  0  0  0
   10.5044    0.9510    0.0000 O   0  0  0  0  0  0  0  0  0  0  0  0
   10.5044    3.5491    0.0000 C   0  0  0  0  0  0  0  0  0  0  0  0
   12.0044    3.5491    0.0000 C   0  0  0  0  0  0  0  0  0  0  0  0
   12.7544    4.8481    0.0000 C   0  0  0  0  0  0  0  0  0  0  0  0
   14.2544    4.8481    0.0000 O   0  0  0  0  0  0  0  0  0  0  0  0
   12.0044    6.1471    0.0000 O   0  0  0  0  0  0  0  0  0  0  0  0
  1 10  2  0  0  0  0
  1  9  1  0  0  0  0
  2  3  1  0  0  0  0
  2 12  1  0  0  0  0
  2 14  1  0  0  0  0
  3  4  1  0  0  0  0
  4  9  2  0  0  0  0
  4  5  1  0  0  0  0
  5  6  2  0  0  0  0
  6  7  1  0  0  0  0
  6 10  1  0  0  0  0
  7  8  2  0  0  0  0
  8 11  1  0  0  0  0
  9 12  1  0  0  0  0
 10 13  1  0  0  0  0
 11 13  2  0  0  0  0
 14 15  2  0  0  0  0
 14 16  1  0  0  0  0
 16 17  2  0  0  0  0
 17 18  1  0  0  0  0
 18 19  2  0  0  0  0
 18 20  1  0  0  0  0
M  END
