33570
 OpenBabel03021519512D

 24 26  0  0  1  0  0  0  0  0999 V2000
    4.1010    6.2337    0.0000 N   0  0  0  0  0  0  0  0  0  0  0  0
    6.6990    4.7337    0.0000 O   0  0  0  0  0  0  0  0  0  0  0  0
   10.5961    6.9837    0.0000 C   0  0  0  0  0  0  0  0  0  0  0  0
   10.5961    8.4837    0.0000 C   0  0  0  0  0  0  0  0  0  0  0  0
    9.2971    6.2337    0.0000 C   0  0  0  0  0  0  0  0  0  0  0  0
    7.9981    6.9837    0.0000 C   0  0  0  0  0  0  0  0  0  0  0  0
    9.2971    9.2337    0.0000 C   0  0  0  0  0  0  0  0  0  0  0  0
    7.9981    8.4837    0.0000 C   0  0  0  0  0  0  0  0  0  0  0  0
    5.4000    6.9837    0.0000 C   0  0  0  0  0  0  0  0  0  0  0  0
    6.6990    6.2337    0.0000 C   0  0  0  0  0  0  0  0  0  0  0  0
    0.2038    6.9837    0.0000 C   0  0  0  0  0  0  0  0  0  0  0  0
   -1.0952    6.2337    0.0000 C   0  0  0  0  0  0  0  0  0  0  0  0
    1.5029    6.2337    0.0000 C   0  0  0  0  0  0  0  0  0  0  0  0
    1.5029    4.7337    0.0000 C   0  0  0  0  0  0  0  0  0  0  0  0
   -1.0952    4.7337    0.0000 C   0  0  0  0  0  0  0  0  0  0  0  0
    0.2038    3.9837    0.0000 C   0  0  0  0  0  0  0  0  0  0  0  0
    4.1010    4.7337    0.0000 C   0  0  0  0  0  0  0  0  0  0  0  0
    5.4000    3.9837    0.0000 C   0  0  0  0  0  0  0  0  0  0  0  0
    6.6990    9.2337    0.0000 C   0  0  0  0  0  0  0  0  0  0  0  0
    5.4000    8.4837    0.0000 C   0  0  0  0  0  0  0  0  0  0  0  0
    4.1010    9.2337    0.0000 C   0  0  0  0  0  0  0  0  0  0  0  0
    4.1010   10.7337    0.0000 O   0  0  0  0  0  0  0  0  0  0  0  0
    2.8019    8.4837    0.0000 C   0  0  0  0  0  0  0  0  0  0  0  0
    2.8019    6.9837    0.0000 C   0  0  3  0  0  0  0  0  0  0  0  0
  1  9  1  0  0  0  0
  1 17  1  0  0  0  0
  1 24  1  0  0  0  0
  2 10  1  0  0  0  0
  2 18  1  0  0  0  0
  3  5  2  0  0  0  0
  3  4  1  0  0  0  0
  4  7  2  0  0  0  0
  5  6  1  0  0  0  0
  6  8  2  0  0  0  0
  7  8  1  0  0  0  0
  8 19  1  0  0  0  0
  9 10  1  0  0  0  0
 11 12  2  0  0  0  0
 11 13  1  0  0  0  0
 12 15  1  0  0  0  0
 13 14  2  0  0  0  0
 13 24  1  0  0  0  0
 14 16  1  0  0  0  0
 15 16  2  0  0  0  0
 17 18  1  0  0  0  0
 19 20  2  0  0  0  0
 20 21  1  0  0  0  0
 21 22  2  0  0  0  0
 21 23  1  0  0  0  0
 23 24  1  0  0  0  0
M  END
