378717
 OpenBabel03021519512D

 22 23  0  0  0  0  0  0  0  0999 V2000
    2.5245   -0.2745    0.0000 C   0  0  0  0  0  0  0  0  0  0  0  0
    3.2745    1.0245    0.0000 C   0  0  0  0  0  0  0  0  0  0  0  0
    3.2745   -1.5736    0.0000 C   0  0  0  0  0  0  0  0  0  0  0  0
    4.7745    1.0245    0.0000 C   0  0  0  0  0  0  0  0  0  0  0  0
    4.7745   -1.5735    0.0000 C   0  0  0  0  0  0  0  0  0  0  0  0
    5.5245   -0.2745    0.0000 C   0  0  0  0  0  0  0  0  0  0  0  0
    7.0245   -0.2745    0.0000 C   0  0  0  0  0  0  0  0  0  0  0  0
    7.7745    1.0245    0.0000 O   0  0  0  0  0  0  0  0  0  0  0  0
    7.7745   -1.5735    0.0000 C   0  0  0  0  0  0  0  0  0  0  0  0
    9.2663   -1.7303    0.0000 C   0  0  0  0  0  0  0  0  0  0  0  0
    7.1644   -2.9439    0.0000 N   0  0  0  0  0  0  0  0  0  0  0  0
    9.5782   -3.1975    0.0000 C   0  0  0  0  0  0  0  0  0  0  0  0
    8.2792   -3.9475    0.0000 C   0  0  0  0  0  0  0  0  0  0  0  0
    9.3359   -6.3210    0.0000 C   0  0  0  0  0  0  0  0  0  0  0  0
   10.7062   -5.7109    0.0000 S   0  0  0  0  0  0  0  0  0  0  0  0
    7.8088   -8.4229    0.0000 O   0  0  0  0  0  0  0  0  0  0  0  0
    9.1791   -7.8128    0.0000 S   0  0  3  0  0  0  0  0  0  0  0  0
    1.0245   -0.2745    0.0000 C   0  0  0  0  0  0  0  0  0  0  0  0
    5.6972   -3.2557    0.0000 C   0  0  0  0  0  0  0  0  0  0  0  0
    8.1224   -5.4393    0.0000 C   0  0  0  0  0  0  0  0  0  0  0  0
   11.9197   -6.5926    0.0000 C   0  0  0  0  0  0  0  0  0  0  0  0
   10.3926   -8.6945    0.0000 C   0  0  0  0  0  0  0  0  0  0  0  0
  1  2  2  0  0  0  0
  1  3  1  0  0  0  0
  1 18  1  0  0  0  0
  2  4  1  0  0  0  0
  3  5  2  0  0  0  0
  4  6  2  0  0  0  0
  5  6  1  0  0  0  0
  6  7  1  0  0  0  0
  7  8  2  0  0  0  0
  7  9  1  0  0  0  0
  9 10  2  0  0  0  0
  9 11  1  0  0  0  0
 10 12  1  0  0  0  0
 11 13  1  0  0  0  0
 11 19  1  0  0  0  0
 12 13  2  0  0  0  0
 13 20  1  0  0  0  0
 14 15  1  0  0  0  0
 14 17  1  0  0  0  0
 14 20  2  0  0  0  0
 15 21  1  0  0  0  0
 16 17  2  0  0  0  0
 17 22  1  0  0  0  0
M  END
