299119
 OpenBabel03021519512D

 20 21  0  0  1  0  0  0  0  0999 V2000
   -5.0005    9.6460    0.0000 O   0  0  0  0  0  0  0  0  0  0  0  0
   -4.5823    7.0059    0.0000 C   0  0  0  0  0  0  0  0  0  0  0  0
   -4.1188    8.4325    0.0000 C   0  0  0  0  0  0  0  0  0  0  0  0
   -3.3688    6.1242    0.0000 S   0  0  0  0  0  0  0  0  0  0  0  0
   -2.1553    7.0059    0.0000 C   0  0  0  0  0  0  0  0  0  0  0  0
   -2.6188    8.4325    0.0000 N   0  0  0  0  0  0  0  0  0  0  0  0
   -0.7287    6.5424    0.0000 N   0  0  0  0  0  0  0  0  0  0  0  0
    0.3860    7.5461    0.0000 N   0  0  0  0  0  0  0  0  0  0  0  0
    1.8126    7.0825    0.0000 C   0  0  0  0  0  0  0  0  0  0  0  0
    3.0262    7.9642    0.0000 S   0  0  0  0  0  0  0  0  0  0  0  0
    2.2761    5.6560    0.0000 N   0  0  0  0  0  0  0  0  0  0  0  0
    3.7761    5.6560    0.0000 C   0  0  0  0  0  0  0  0  0  0  0  0
    2.0046    3.0721    0.0000 C   0  0  0  0  0  0  0  0  0  0  0  0
    4.2397    7.0825    0.0000 C   0  0  3  0  0  0  0  0  0  0  0  0
    4.6578    4.4424    0.0000 O   0  0  0  0  0  0  0  0  0  0  0  0
   -1.7371    9.6460    0.0000 C   0  0  0  0  0  0  0  0  0  0  0  0
    1.3945    4.4424    0.0000 C   0  0  0  0  0  0  0  0  0  0  0  0
    1.1229    1.8586    0.0000 C   0  0  0  0  0  0  0  0  0  0  0  0
    5.6663    7.5461    0.0000 C   0  0  0  0  0  0  0  0  0  0  0  0
    3.4964    2.9153    0.0000 C   0  0  0  0  0  0  0  0  0  0  0  0
  1  3  2  0  0  0  0
  2  4  1  0  0  0  0
  2  3  1  0  0  0  0
  3  6  1  0  0  0  0
  4  5  1  0  0  0  0
  5  7  2  0  0  0  0
  5  6  1  0  0  0  0
  6 16  1  0  0  0  0
  7  8  1  0  0  0  0
  8  9  2  0  0  0  0
  9 10  1  0  0  0  0
  9 11  1  0  0  0  0
 10 14  1  0  0  0  0
 11 12  1  0  0  0  0
 11 17  1  0  0  0  0
 12 14  1  0  0  0  0
 12 15  2  0  0  0  0
 13 17  1  0  0  0  0
 13 18  1  0  0  0  0
 13 20  2  0  0  0  0
 14 19  1  0  0  0  0
M  END
