29629
 OpenBabel03021519512D

  9  9  0  0  0  0  0  0  0  0999 V2000
    1.3201    1.6357    0.0000 S   0  0  0  0  0  0  0  0  0  0  0  0
    2.5336    4.0173    0.0000 S   0  0  0  0  0  0  0  0  0  0  0  0
    3.7471    1.6357    0.0000 N   0  0  0  0  0  0  0  0  0  0  0  0
    2.5336    2.5173    0.0000 C   0  0  0  0  0  0  0  0  0  0  0  0
    3.2836    0.2091    0.0000 C   0  0  0  0  0  0  0  0  0  0  0  0
    1.7836    0.2091    0.0000 C   0  0  0  0  0  0  0  0  0  0  0  0
    5.1737    2.0992    0.0000 C   0  0  0  0  0  0  0  0  0  0  0  0
    6.2884    1.0955    0.0000 C   0  0  0  0  0  0  0  0  0  0  0  0
    7.7150    1.5590    0.0000 O   0  0  0  0  0  0  0  0  0  0  0  0
  1  4  1  0  0  0  0
  1  6  1  0  0  0  0
  2  4  2  0  0  0  0
  3  4  1  0  0  0  0
  3  5  1  0  0  0  0
  3  7  1  0  0  0  0
  5  6  1  0  0  0  0
  7  8  1  0  0  0  0
  8  9  1  0  0  0  0
M  END
