57103
 OpenBabel03021519512D

 17 18  0  0  0  0  0  0  0  0999 V2000
   -3.5519    1.1846    0.0000 N   0  0  0  0  0  0  0  0  0  0  0  0
   -6.1500    1.1846    0.0000 C   0  0  0  0  0  0  0  0  0  0  0  0
   -7.4490    0.4346    0.0000 C   0  0  0  0  0  0  0  0  0  0  0  0
   -4.8509    0.4346    0.0000 C   0  0  0  0  0  0  0  0  0  0  0  0
   -4.8509   -1.0654    0.0000 C   0  0  0  0  0  0  0  0  0  0  0  0
   -7.4490   -1.0654    0.0000 C   0  0  0  0  0  0  0  0  0  0  0  0
   -6.1500   -1.8154    0.0000 C   0  0  0  0  0  0  0  0  0  0  0  0
   -3.5519   -1.8154    0.0000 C   0  0  0  0  0  0  0  0  0  0  0  0
   -2.2529    0.4347    0.0000 C   0  0  0  0  0  0  0  0  0  0  0  0
   -2.2528   -1.0653    0.0000 C   0  0  0  0  0  0  0  0  0  0  0  0
   -8.7480    1.1846    0.0000 N   0  3  0  0  0  0  0  0  0  0  0  0
  -10.0471    0.4346    0.0000 O   0  5  0  0  0  0  0  0  0  0  0  0
   -8.7480    2.6846    0.0000 O   0  0  0  0  0  0  0  0  0  0  0  0
   -6.1500   -3.3154    0.0000 N   0  3  0  0  0  0  0  0  0  0  0  0
   -7.4490   -4.0654    0.0000 O   0  5  0  0  0  0  0  0  0  0  0  0
   -4.8509   -4.0654    0.0000 O   0  0  0  0  0  0  0  0  0  0  0  0
   -6.1500    2.6846    0.0000 O   0  0  0  0  0  0  0  0  0  0  0  0
  1  9  2  0  0  0  0
  1  4  1  0  0  0  0
  2  3  2  0  0  0  0
  2  4  1  0  0  0  0
  2 17  1  0  0  0  0
  3  6  1  0  0  0  0
  3 11  1  0  0  0  0
  4  5  2  0  0  0  0
  5  7  1  0  0  0  0
  5  8  1  0  0  0  0
  6  7  2  0  0  0  0
  7 14  1  0  0  0  0
  8 10  2  0  0  0  0
  9 10  1  0  0  0  0
 11 12  1  0  0  0  0
 11 13  2  0  0  0  0
 14 15  1  0  0  0  0
 14 16  2  0  0  0  0
M  CHG  4  11   1  12  -1  14   1  15  -1
M  END
