45641
 OpenBabel03021519512D

 16 17  0  0  0  0  0  0  0  0999 V2000
   -7.1577    1.2335    0.0000 N   0  0  0  0  0  0  0  0  0  0  0  0
   -5.8586   -1.0165    0.0000 N   0  0  0  0  0  0  0  0  0  0  0  0
   -5.8586   -2.5165    0.0000 H   0  0  0  0  0  0  0  0  0  0  0  0
   -3.1330    1.6971    0.0000 N   0  0  0  0  0  0  0  0  0  0  0  0
   -2.6695    3.1237    0.0000 H   0  0  0  0  0  0  0  0  0  0  0  0
   -3.1330   -0.7300    0.0000 N   0  0  0  0  0  0  0  0  0  0  0  0
   -5.8586    1.9835    0.0000 C   0  0  0  0  0  0  0  0  0  0  0  0
   -4.5596    1.2335    0.0000 C   0  0  0  0  0  0  0  0  0  0  0  0
   -4.5596   -0.2665    0.0000 C   0  0  0  0  0  0  0  0  0  0  0  0
   -2.2513    0.4835    0.0000 C   0  0  0  0  0  0  0  0  0  0  0  0
   -7.1577   -0.2665    0.0000 C   0  0  0  0  0  0  0  0  0  0  0  0
   -7.1577    5.7335    0.0000 C   0  0  0  0  0  0  0  0  0  0  0  0
   -5.8586    6.4835    0.0000 C   0  0  0  0  0  0  0  0  0  0  0  0
   -8.4567    6.4835    0.0000 C   0  0  0  0  0  0  0  0  0  0  0  0
   -7.1577    4.2335    0.0000 N   0  0  0  0  0  0  0  0  0  0  0  0
   -5.8586    3.4835    0.0000 N   0  0  0  0  0  0  0  0  0  0  0  0
  1 11  2  0  0  0  0
  1  7  1  0  0  0  0
  2  9  1  0  0  0  0
  2 11  1  0  0  0  0
  2  3  1  0  0  0  0
  4  8  1  0  0  0  0
  4 10  1  0  0  0  0
  4  5  1  0  0  0  0
  6 10  2  0  0  0  0
  6  9  1  0  0  0  0
  7  8  1  0  0  0  0
  7 16  2  0  0  0  0
  8  9  2  0  0  0  0
 12 13  1  0  0  0  0
 12 14  1  0  0  0  0
 12 15  2  0  0  0  0
 15 16  1  0  0  0  0
M  END
