177866
 OpenBabel03021519512D

 15 17  0  0  0  0  0  0  0  0999 V2000
    3.0568    0.7055    0.0000 O   0  0  0  0  0  0  0  0  0  0  0  0
    5.6548    2.2055    0.0000 Br  0  0  0  0  0  0  0  0  0  0  0  0
    5.6548    0.7055    0.0000 C   0  0  0  0  0  0  0  0  0  0  0  0
    4.3558   -0.0445    0.0000 C   0  0  0  0  0  0  0  0  0  0  0  0
    6.9539   -0.0445    0.0000 C   0  0  0  0  0  0  0  0  0  0  0  0
    6.9539   -1.5445    0.0000 C   0  0  0  0  0  0  0  0  0  0  0  0
    4.3558   -1.5445    0.0000 C   0  0  0  0  0  0  0  0  0  0  0  0
    8.2529   -2.2945    0.0000 C   0  0  0  0  0  0  0  0  0  0  0  0
    5.6549   -2.2945    0.0000 C   0  0  0  0  0  0  0  0  0  0  0  0
    3.0568   -2.2945    0.0000 C   0  0  0  0  0  0  0  0  0  0  0  0
    8.2529   -3.7945    0.0000 C   0  0  0  0  0  0  0  0  0  0  0  0
    5.6549   -3.7945    0.0000 C   0  0  0  0  0  0  0  0  0  0  0  0
    3.0568   -3.7945    0.0000 C   0  0  0  0  0  0  0  0  0  0  0  0
    6.9539   -4.5445    0.0000 C   0  0  0  0  0  0  0  0  0  0  0  0
    4.3558   -4.5445    0.0000 C   0  0  0  0  0  0  0  0  0  0  0  0
  1  4  2  0  0  0  0
  2  3  1  0  0  0  0
  3  5  2  0  0  0  0
  3  4  1  0  0  0  0
  4  7  1  0  0  0  0
  5  6  1  0  0  0  0
  6  9  2  0  0  0  0
  6  8  1  0  0  0  0
  7 10  2  0  0  0  0
  7  9  1  0  0  0  0
  8 11  2  0  0  0  0
  9 12  1  0  0  0  0
 10 13  1  0  0  0  0
 11 14  1  0  0  0  0
 12 14  2  0  0  0  0
 12 15  1  0  0  0  0
 13 15  2  0  0  0  0
M  END
