106208
 OpenBabel03021519512D

 17 18  0  0  0  0  0  0  0  0999 V2000
   -0.1263    6.1695    0.0000 N   0  0  0  0  0  0  0  0  0  0  0  0
   -0.1194    2.2009    0.0000 N   0  0  0  0  0  0  0  0  0  0  0  0
    1.3541    1.9200    0.0000 N   0  0  0  0  0  0  0  0  0  0  0  0
    4.3010    1.3582    0.0000 Cl  0  0  0  0  0  0  0  0  0  0  0  0
    0.3672    4.7530    0.0000 C   0  0  0  0  0  0  0  0  0  0  0  0
   -0.6128    3.6174    0.0000 C   0  0  0  0  0  0  0  0  0  0  0  0
   -2.0863    3.8983    0.0000 C   0  0  0  0  0  0  0  0  0  0  0  0
   -2.5797    5.3148    0.0000 C   0  0  0  0  0  0  0  0  0  0  0  0
   -1.5997    6.4504    0.0000 C   0  0  0  0  0  0  0  0  0  0  0  0
    0.8676   -0.6321    0.0000 C   0  0  0  0  0  0  0  0  0  0  0  0
    1.3610   -2.0486    0.0000 C   0  0  0  0  0  0  0  0  0  0  0  0
    1.8476    0.5035    0.0000 C   0  0  0  0  0  0  0  0  0  0  0  0
    2.8345   -2.3296    0.0000 C   0  0  0  0  0  0  0  0  0  0  0  0
    3.3210    0.2226    0.0000 C   0  0  0  0  0  0  0  0  0  0  0  0
    3.8145   -1.1939    0.0000 C   0  0  0  0  0  0  0  0  0  0  0  0
   -2.0932    7.8669    0.0000 N   0  0  0  0  0  0  0  0  0  0  0  0
    1.8406    4.4721    0.0000 N   0  0  0  0  0  0  0  0  0  0  0  0
  1  5  2  0  0  0  0
  1  9  1  0  0  0  0
  2  6  1  0  0  0  0
  2  3  2  0  0  0  0
  3 12  1  0  0  0  0
  4 14  1  0  0  0  0
  5  6  1  0  0  0  0
  5 17  1  0  0  0  0
  6  7  2  0  0  0  0
  7  8  1  0  0  0  0
  8  9  2  0  0  0  0
  9 16  1  0  0  0  0
 10 11  2  0  0  0  0
 10 12  1  0  0  0  0
 11 13  1  0  0  0  0
 12 14  2  0  0  0  0
 13 15  2  0  0  0  0
 14 15  1  0  0  0  0
M  END
