172255
 OpenBabel03021519512D

 26 27  0  0  1  0  0  0  0  0999 V2000
   10.9027    1.1156    0.0000 Cl  0  0  0  0  0  0  0  0  0  0  0  0
   10.9027   -1.8844    0.0000 Cl  0  0  0  0  0  0  0  0  0  0  0  0
    8.3046    1.1155    0.0000 C   0  0  0  0  0  0  0  0  0  0  0  0
    7.0056    0.3655    0.0000 C   0  0  0  0  0  0  0  0  0  0  0  0
    9.6037    0.3656    0.0000 C   0  0  0  0  0  0  0  0  0  0  0  0
    9.6037   -1.1344    0.0000 C   0  0  0  0  0  0  0  0  0  0  0  0
    7.0056   -1.1345    0.0000 C   0  0  0  0  0  0  0  0  0  0  0  0
    5.7066    1.1155    0.0000 C   0  0  3  0  0  0  0  0  0  0  0  0
    4.7424    2.2646    0.0000 C   0  0  3  0  0  0  0  0  0  0  0  0
    4.9830    0.9000    0.0000 C   0  0  0  0  0  0  0  0  0  0  0  0
    3.2652    2.0041    0.0000 C   0  0  0  0  0  0  0  0  0  0  0  0
    5.1935   -0.2940    0.0000 C   0  0  3  0  0  0  0  0  0  0  0  0
    2.7521    0.5946    0.0000 C   0  0  0  0  0  0  0  0  0  0  0  0
    3.4757    0.8101    0.0000 C   0  0  0  0  0  0  0  0  0  0  0  0
    3.7163   -0.5545    0.0000 C   0  0  3  0  0  0  0  0  0  0  0  0
    8.3047   -1.8845    0.0000 C   0  0  0  0  0  0  0  0  0  0  0  0
   10.3045    5.1101    0.0000 C   0  0  0  0  0  0  0  0  0  0  0  0
    8.8273    4.8496    0.0000 S   0  0  0  0  0  0  0  0  0  0  0  0
    9.0877    3.3724    0.0000 O   0  0  0  0  0  0  0  0  0  0  0  0
    7.3501    4.5891    0.0000 O   0  0  0  0  0  0  0  0  0  0  0  0
    8.5668    6.3268    0.0000 O   0  0  0  0  0  0  0  0  0  0  0  0
    6.6707    2.2646    0.0000 O   0  0  0  0  0  0  0  0  0  0  0  0
    6.1577   -1.4431    0.0000 N   0  0  0  0  0  0  0  0  0  0  0  0
    5.6447   -2.8526    0.0000 C   0  0  0  0  0  0  0  0  0  0  0  0
    4.1675   -3.1131    0.0000 C   0  0  0  0  0  0  0  0  0  0  0  0
    6.6089   -4.0017    0.0000 C   0  0  0  0  0  0  0  0  0  0  0  0
  1  5  1  0  0  0  0
  2  6  1  0  0  0  0
  3  4  2  0  0  0  0
  3  5  1  0  0  0  0
  4  7  1  0  0  0  0
  4  8  1  0  0  0  0
  5  6  2  0  0  0  0
  6 16  1  0  0  0  0
  7 16  2  0  0  0  0
  8  9  1  0  0  0  0
  8 12  1  0  0  0  0
  8 22  1  0  0  0  0
  9 10  1  0  0  0  0
  9 11  1  0  0  0  0
 10 14  1  0  0  0  0
 11 13  1  0  0  0  0
 12 15  1  0  0  0  0
 12 23  1  0  0  0  0
 13 15  1  0  0  0  0
 14 15  1  0  0  0  0
 17 18  1  0  0  0  0
 18 19  2  0  0  0  0
 18 20  2  0  0  0  0
 18 21  1  0  0  0  0
 23 24  1  0  0  0  0
 24 25  1  0  0  0  0
 24 26  1  0  0  0  0
M  END
