134785
 OpenBabel03021519512D

 14 15  0  0  1  0  0  0  0  0999 V2000
   -2.4758    0.7120    0.0000 O   0  0  0  0  0  0  0  0  0  0  0  0
    0.1700    0.3312    0.0000 N   0  0  0  0  0  0  0  0  0  0  0  0
    2.5017   -1.3131    0.0000 O   0  0  0  0  0  0  0  0  0  0  0  0
    1.0687   -0.8698    0.0000 C   0  0  3  0  0  0  0  0  0  0  0  0
    0.2043   -2.0956    0.0000 C   0  0  3  0  0  0  0  0  0  0  0  0
    1.1030   -3.2966    0.0000 C   0  0  0  0  0  0  0  0  0  0  0  0
    2.5229   -2.8129    0.0000 C   0  0  0  0  0  0  0  0  0  0  0  0
   -1.2287   -1.6523    0.0000 C   0  0  0  0  0  0  0  0  0  0  0  0
   -1.2499   -0.1524    0.0000 C   0  0  0  0  0  0  0  0  0  0  0  0
   -2.8880    3.6325    0.0000 C   0  0  0  0  0  0  0  0  0  0  0  0
   -1.8687    2.5321    0.0000 C   0  0  0  0  0  0  0  0  0  0  0  0
   -0.4060    2.8646    0.0000 C   0  0  0  0  0  0  0  0  0  0  0  0
    0.6133    1.7642    0.0000 C   0  0  0  0  0  0  0  0  0  0  0  0
    1.9332    0.3561    0.0000 C   0  0  0  0  0  0  0  0  0  0  0  0
  1  9  2  0  0  0  0
  2  4  1  0  0  0  0
  2  9  1  0  0  0  0
  2 13  1  0  0  0  0
  3  4  1  0  0  0  0
  3  7  1  0  0  0  0
  4  5  1  0  0  0  0
  4 14  1  0  0  0  0
  5  6  1  0  0  0  0
  5  8  1  0  0  0  0
  6  7  1  0  0  0  0
  8  9  1  0  0  0  0
 10 11  1  0  0  0  0
 11 12  1  0  0  0  0
 12 13  1  0  0  0  0
M  END
