35534
 OpenBabel03021519512D

 14 15  0  0  0  0  0  0  0  0999 V2000
    2.3236    2.5245    0.0000 O   0  0  0  0  0  0  0  0  0  0  0  0
    2.3236   -0.4755    0.0000 H   0  0  0  0  0  0  0  0  0  0  0  0
    3.6226    0.2745    0.0000 N   0  0  0  0  0  0  0  0  0  0  0  0
    4.9216    2.5245    0.0000 N   0  0  0  0  0  0  0  0  0  0  0  0
    7.6473    2.2381    0.0000 O   0  0  0  0  0  0  0  0  0  0  0  0
    7.6473   -0.1890    0.0000 N   0  0  0  0  0  0  0  0  0  0  0  0
    8.5289    1.0245    0.0000 N   0  0  0  0  0  0  0  0  0  0  0  0
    3.6226    1.7745    0.0000 C   0  0  0  0  0  0  0  0  0  0  0  0
    6.2207    1.7745    0.0000 C   0  0  0  0  0  0  0  0  0  0  0  0
    6.2207    0.2745    0.0000 C   0  0  0  0  0  0  0  0  0  0  0  0
    4.9216   -0.4755    0.0000 C   0  0  0  0  0  0  0  0  0  0  0  0
    4.9216   -1.9755    0.0000 C   0  0  0  0  0  0  0  0  0  0  0  0
    6.2207   -2.7255    0.0000 N   0  0  0  0  0  0  0  0  0  0  0  0
    7.5197   -1.9755    0.0000 O   0  0  0  0  0  0  0  0  0  0  0  0
  1  8  2  0  0  0  0
  2  3  1  0  0  0  0
  3  8  1  0  0  0  0
  3 11  1  0  0  0  0
  4  9  2  0  0  0  0
  4  8  1  0  0  0  0
  5  7  1  0  0  0  0
  5  9  1  0  0  0  0
  6  7  2  0  0  0  0
  6 10  1  0  0  0  0
  9 10  1  0  0  0  0
 10 11  2  0  0  0  0
 11 12  1  0  0  0  0
 12 13  2  0  0  0  0
 13 14  1  0  0  0  0
M  END
