40749
 OpenBabel03021519512D

 23 25  0  0  0  0  0  0  0  0999 V2000
    5.1324    8.4625    0.0000 N   0  0  0  0  0  0  0  0  0  0  0  0
    5.4516    6.9968    0.0000 N   0  0  0  0  0  0  0  0  0  0  0  0
    5.8089    3.7531    0.0000 H   0  0  0  0  0  0  0  0  0  0  0  0
    4.5062    4.4966    0.0000 N   0  0  0  0  0  0  0  0  0  0  0  0
    2.1297    4.9893    0.0000 N   0  0  0  0  0  0  0  0  0  0  0  0
    2.8344    2.4108    0.0000 N   0  0  0  0  0  0  0  0  0  0  0  0
    3.9541    1.4127    0.0000 N   0  0  0  0  0  0  0  0  0  0  0  0
    2.2254   -0.5267    0.0000 C   0  0  0  0  0  0  0  0  0  0  0  0
    1.9209   -1.9955    0.0000 C   0  0  0  0  0  0  0  0  0  0  0  0
    3.6496   -0.0560    0.0000 C   0  0  0  0  0  0  0  0  0  0  0  0
    3.0406   -2.9936    0.0000 C   0  0  0  0  0  0  0  0  0  0  0  0
    4.7694   -1.0541    0.0000 C   0  0  0  0  0  0  0  0  0  0  0  0
    4.4649   -2.5229    0.0000 C   0  0  0  0  0  0  0  0  0  0  0  0
    5.9228   10.9374    0.0000 C   0  0  0  0  0  0  0  0  0  0  0  0
    6.2420    9.4717    0.0000 C   0  0  0  0  0  0  0  0  0  0  0  0
    7.0325   11.9466    0.0000 C   0  0  0  0  0  0  0  0  0  0  0  0
    7.6709    9.0154    0.0000 C   0  0  0  0  0  0  0  0  0  0  0  0
    8.4614   11.4903    0.0000 C   0  0  0  0  0  0  0  0  0  0  0  0
    8.7806   10.0246    0.0000 C   0  0  0  0  0  0  0  0  0  0  0  0
    3.1389    3.8796    0.0000 C   0  0  0  0  0  0  0  0  0  0  0  0
    4.3419    5.9876    0.0000 C   0  0  0  0  0  0  0  0  0  0  0  0
    2.8731    6.2921    0.0000 C   0  0  0  0  0  0  0  0  0  0  0  0
    2.2562    7.6593    0.0000 C   0  0  0  0  0  0  0  0  0  0  0  0
  1 15  1  0  0  0  0
  1  2  2  0  0  0  0
  2 21  1  0  0  0  0
  3  4  1  0  0  0  0
  4 20  1  0  0  0  0
  4 21  1  0  0  0  0
  5 20  2  0  0  0  0
  5 22  1  0  0  0  0
  6 20  1  0  0  0  0
  6  7  2  0  0  0  0
  7 10  1  0  0  0  0
  8  9  2  0  0  0  0
  8 10  1  0  0  0  0
  9 11  1  0  0  0  0
 10 12  2  0  0  0  0
 11 13  2  0  0  0  0
 12 13  1  0  0  0  0
 14 16  2  0  0  0  0
 14 15  1  0  0  0  0
 15 17  2  0  0  0  0
 16 18  1  0  0  0  0
 17 19  1  0  0  0  0
 18 19  2  0  0  0  0
 21 22  2  0  0  0  0
 22 23  1  0  0  0  0
M  END
