148304
 OpenBabel03021519512D

  9  8  0  0  0  0  0  0  0  0999 V2000
   -6.0000   -0.7500    0.0000 C   0  0  0  0  0  0  0  0  0  0  0  0
   -7.5000   -0.7500    0.0000 C   0  0  0  0  0  0  0  0  0  0  0  0
   -5.2500   -2.0490    0.0000 N   0  0  0  0  0  0  0  0  0  0  0  0
   -3.7500   -2.0490    0.0000 C   0  0  0  0  0  0  0  0  0  0  0  0
   -3.0000   -0.7500    0.0000 S   0  0  0  0  0  0  0  0  0  0  0  0
   -3.0000   -3.3481    0.0000 N   0  0  0  0  0  0  0  0  0  0  0  0
   -1.5000   -3.3481    0.0000 C   0  0  0  0  0  0  0  0  0  0  0  0
   -0.7500   -2.0490    0.0000 C   0  0  0  0  0  0  0  0  0  0  0  0
   -1.5000   -0.7500    0.0000 C   0  0  0  0  0  0  0  0  0  0  0  0
  1  2  1  0  0  0  0
  1  3  1  0  0  0  0
  3  4  1  0  0  0  0
  4  5  2  0  0  0  0
  4  6  1  0  0  0  0
  6  7  1  0  0  0  0
  7  8  1  0  0  0  0
  8  9  2  0  0  0  0
M  END
