7950
 OpenBabel03021519512D

 14 15  0  0  0  0  0  0  0  0999 V2000
    8.1692   -0.8505    0.0000 C   0  0  0  0  0  0  0  0  0  0  0  0
    6.8702   -1.6005    0.0000 C   0  0  0  0  0  0  0  0  0  0  0  0
    9.4683   -1.6005    0.0000 C   0  0  0  0  0  0  0  0  0  0  0  0
    9.4683   -3.1005    0.0000 C   0  0  0  0  0  0  0  0  0  0  0  0
    6.8702   -3.1005    0.0000 C   0  0  0  0  0  0  0  0  0  0  0  0
    5.5712   -0.8505    0.0000 C   0  0  0  0  0  0  0  0  0  0  0  0
    5.5712    0.6495    0.0000 C   0  0  0  0  0  0  0  0  0  0  0  0
    4.2721    1.3995    0.0000 C   0  0  0  0  0  0  0  0  0  0  0  0
    4.2721   -1.6005    0.0000 C   0  0  0  0  0  0  0  0  0  0  0  0
    2.9731    0.6495    0.0000 C   0  0  0  0  0  0  0  0  0  0  0  0
    8.1692   -3.8505    0.0000 C   0  0  0  0  0  0  0  0  0  0  0  0
    2.9731   -0.8505    0.0000 C   0  0  0  0  0  0  0  0  0  0  0  0
    4.2721    2.8995    0.0000 N   0  0  0  0  0  0  0  0  0  0  0  0
    1.6740    1.3995    0.0000 O   0  0  0  0  0  0  0  0  0  0  0  0
  1  3  2  0  0  0  0
  1  2  1  0  0  0  0
  2  5  2  0  0  0  0
  2  6  1  0  0  0  0
  3  4  1  0  0  0  0
  4 11  2  0  0  0  0
  5 11  1  0  0  0  0
  6  7  2  0  0  0  0
  6  9  1  0  0  0  0
  7  8  1  0  0  0  0
  8 10  2  0  0  0  0
  8 13  1  0  0  0  0
  9 12  2  0  0  0  0
 10 12  1  0  0  0  0
 10 14  1  0  0  0  0
M  END
