49852
 OpenBabel03021519512D

 23 24  0  0  0  0  0  0  0  0999 V2000
   -4.2721   -6.1005    0.0000 O   0  0  0  0  0  0  0  0  0  0  0  0
   -2.2231   -5.1495    0.0000 C   0  0  0  0  0  0  0  0  0  0  0  0
   -2.2231   -6.6495    0.0000 C   0  0  0  0  0  0  0  0  0  0  0  0
   -0.9240   -4.3995    0.0000 C   0  0  0  0  0  0  0  0  0  0  0  0
    0.3750   -5.1495    0.0000 C   0  0  0  0  0  0  0  0  0  0  0  0
   -0.9240   -7.3995    0.0000 C   0  0  0  0  0  0  0  0  0  0  0  0
    0.3750   -6.6495    0.0000 C   0  0  0  0  0  0  0  0  0  0  0  0
   -6.1202   -7.3995    0.0000 C   0  0  0  0  0  0  0  0  0  0  0  0
   -4.8211   -8.1495    0.0000 C   0  0  0  0  0  0  0  0  0  0  0  0
   -7.4192   -8.1495    0.0000 C   0  0  0  0  0  0  0  0  0  0  0  0
   -4.8211   -9.6495    0.0000 C   0  0  0  0  0  0  0  0  0  0  0  0
   -7.4192   -9.6495    0.0000 C   0  0  0  0  0  0  0  0  0  0  0  0
   -6.1202  -10.3995    0.0000 C   0  0  0  0  0  0  0  0  0  0  0  0
   -8.7183   -7.3995    0.0000 N   0  3  0  0  0  0  0  0  0  0  0  0
  -10.0173   -8.1495    0.0000 O   0  5  0  0  0  0  0  0  0  0  0  0
   -8.7183   -5.8995    0.0000 O   0  0  0  0  0  0  0  0  0  0  0  0
   -8.7183  -10.3995    0.0000 O   0  0  0  0  0  0  0  0  0  0  0  0
   -3.5221   -7.3995    0.0000 As  0  0  3  0  0  0  0  0  0  0  0  0
   -2.7721   -8.6986    0.0000 O   0  0  0  0  0  0  0  0  0  0  0  0
   -0.9240   -2.8995    0.0000 N   0  3  0  0  0  0  0  0  0  0  0  0
    0.3750   -2.1495    0.0000 O   0  5  0  0  0  0  0  0  0  0  0  0
   -2.2231   -2.1495    0.0000 O   0  0  0  0  0  0  0  0  0  0  0  0
    1.6740   -4.3995    0.0000 O   0  0  0  0  0  0  0  0  0  0  0  0
  1 18  2  0  0  0  0
  2  3  2  0  0  0  0
  2  4  1  0  0  0  0
  3  6  1  0  0  0  0
  3 18  1  0  0  0  0
  4  5  2  0  0  0  0
  4 20  1  0  0  0  0
  5  7  1  0  0  0  0
  5 23  1  0  0  0  0
  6  7  2  0  0  0  0
  8  9  2  0  0  0  0
  8 10  1  0  0  0  0
  9 11  1  0  0  0  0
  9 18  1  0  0  0  0
 10 12  2  0  0  0  0
 10 14  1  0  0  0  0
 11 13  2  0  0  0  0
 12 13  1  0  0  0  0
 12 17  1  0  0  0  0
 14 15  1  0  0  0  0
 14 16  2  0  0  0  0
 18 19  1  0  0  0  0
 20 21  1  0  0  0  0
 20 22  2  0  0  0  0
M  CHG  4  14   1  15  -1  20   1  21  -1
M  END
