23247
 OpenBabel03021519512D

 18 20  0  0  0  0  0  0  0  0999 V2000
    1.5002   -2.1902    0.0000 N   0  0  0  0  0  0  0  0  0  0  0  0
    2.2503   -3.4893    0.0000 N   0  0  0  0  0  0  0  0  0  0  0  0
    2.5039   -1.0755    0.0000 N   0  0  0  0  0  0  0  0  0  0  0  0
    3.7175   -3.1774    0.0000 N   0  0  0  0  0  0  0  0  0  0  0  0
    6.4723    1.3144    0.0000 N   0  0  0  0  0  0  0  0  0  0  0  0
    7.7714    0.5644    0.0000 C   0  0  0  0  0  0  0  0  0  0  0  0
    7.7714   -0.9356    0.0000 C   0  0  0  0  0  0  0  0  0  0  0  0
    6.4723   -1.6856    0.0000 C   0  0  0  0  0  0  0  0  0  0  0  0
    5.1733   -0.9356    0.0000 C   0  0  0  0  0  0  0  0  0  0  0  0
    5.1733    0.5644    0.0000 C   0  0  0  0  0  0  0  0  0  0  0  0
    3.8743   -1.6856    0.0000 C   0  0  0  0  0  0  0  0  0  0  0  0
    4.8322   -4.1811    0.0000 C   0  0  0  0  0  0  0  0  0  0  0  0
    4.5203   -5.6483    0.0000 C   0  0  0  0  0  0  0  0  0  0  0  0
    6.2588   -3.7176    0.0000 C   0  0  0  0  0  0  0  0  0  0  0  0
    7.3735   -4.7213    0.0000 C   0  0  0  0  0  0  0  0  0  0  0  0
    5.6350   -6.6520    0.0000 C   0  0  0  0  0  0  0  0  0  0  0  0
    7.0616   -6.1885    0.0000 C   0  0  0  0  0  0  0  0  0  0  0  0
    8.1764   -7.1922    0.0000 C   0  0  0  0  0  0  0  0  0  0  0  0
  1  3  1  0  0  0  0
  1  2  2  0  0  0  0
  2  4  1  0  0  0  0
  3 11  2  0  0  0  0
  4 11  1  0  0  0  0
  4 12  1  0  0  0  0
  5 10  2  0  0  0  0
  5  6  1  0  0  0  0
  6  7  2  0  0  0  0
  7  8  1  0  0  0  0
  8  9  2  0  0  0  0
  9 10  1  0  0  0  0
  9 11  1  0  0  0  0
 12 14  2  0  0  0  0
 12 13  1  0  0  0  0
 13 16  2  0  0  0  0
 14 15  1  0  0  0  0
 15 17  2  0  0  0  0
 16 17  1  0  0  0  0
 17 18  1  0  0  0  0
M  END
