378719
 OpenBabel03021519512D

 27 30  0  0  0  0  0  0  0  0999 V2000
    0.7500    0.7500    0.0000 Cl  0  0  0  0  0  0  0  0  0  0  0  0
    2.0490    3.0000    0.0000 C   0  0  0  0  0  0  0  0  0  0  0  0
    2.0490    1.5000    0.0000 C   0  0  0  0  0  0  0  0  0  0  0  0
    3.3481    0.7500    0.0000 C   0  0  0  0  0  0  0  0  0  0  0  0
    3.3481    3.7500    0.0000 C   0  0  0  0  0  0  0  0  0  0  0  0
    3.3481    5.2500    0.0000 Cl  0  0  0  0  0  0  0  0  0  0  0  0
    4.6471    1.5000    0.0000 C   0  0  0  0  0  0  0  0  0  0  0  0
    4.6471    3.0000    0.0000 C   0  0  0  0  0  0  0  0  0  0  0  0
    6.0737    1.0365    0.0000 O   0  0  0  0  0  0  0  0  0  0  0  0
    6.9554    2.2500    0.0000 C   0  0  0  0  0  0  0  0  0  0  0  0
    6.0737    3.4635    0.0000 C   0  0  0  0  0  0  0  0  0  0  0  0
    8.4472    2.4068    0.0000 C   0  0  0  0  0  0  0  0  0  0  0  0
    6.6838    4.8339    0.0000 C   0  0  0  0  0  0  0  0  0  0  0  0
    8.1756    4.9906    0.0000 C   0  0  0  0  0  0  0  0  0  0  0  0
    9.0573    3.7771    0.0000 C   0  0  0  0  0  0  0  0  0  0  0  0
   10.5491    3.9339    0.0000 O   0  0  0  0  0  0  0  0  0  0  0  0
   11.7023    0.1365    0.0000 C   0  0  0  0  0  0  0  0  0  0  0  0
   11.0922   -1.2338    0.0000 C   0  0  0  0  0  0  0  0  0  0  0  0
   13.1941    0.2933    0.0000 C   0  0  0  0  0  0  0  0  0  0  0  0
   11.9739   -2.4473    0.0000 C   0  0  0  0  0  0  0  0  0  0  0  0
   14.0758   -0.9202    0.0000 C   0  0  0  0  0  0  0  0  0  0  0  0
   13.4657   -2.2905    0.0000 C   0  0  0  0  0  0  0  0  0  0  0  0
   14.3473   -3.5040    0.0000 O   0  0  0  0  0  0  0  0  0  0  0  0
    0.7500    3.7500    0.0000 O   0  0  0  0  0  0  0  0  0  0  0  0
    9.3288    1.1933    0.0000 C   0  0  0  0  0  0  0  0  0  0  0  0
   10.8206    1.3501    0.0000 N   0  0  0  0  0  0  0  0  0  0  0  0
   13.7372   -4.8744    0.0000 C   0  0  0  0  0  0  0  0  0  0  0  0
  1  3  1  0  0  0  0
  2  5  2  0  0  0  0
  2  3  1  0  0  0  0
  2 24  1  0  0  0  0
  3  4  2  0  0  0  0
  4  7  1  0  0  0  0
  5  6  1  0  0  0  0
  5  8  1  0  0  0  0
  7  8  2  0  0  0  0
  7  9  1  0  0  0  0
  8 11  1  0  0  0  0
  9 10  1  0  0  0  0
 10 11  2  0  0  0  0
 10 12  1  0  0  0  0
 11 13  1  0  0  0  0
 12 15  1  0  0  0  0
 12 25  2  0  0  0  0
 13 14  1  0  0  0  0
 14 15  1  0  0  0  0
 15 16  2  0  0  0  0
 17 18  2  0  0  0  0
 17 19  1  0  0  0  0
 17 26  1  0  0  0  0
 18 20  1  0  0  0  0
 19 21  2  0  0  0  0
 20 22  2  0  0  0  0
 21 22  1  0  0  0  0
 22 23  1  0  0  0  0
 23 27  1  0  0  0  0
 25 26  1  0  0  0  0
M  END
