321496
 OpenBabel03021519512D

 29 32  0  0  0  0  0  0  0  0999 V2000
   -6.6225    0.2334    0.0000 C   0  0  0  0  0  0  0  0  0  0  0  0
   -5.8976    1.5467    0.0000 C   0  0  0  0  0  0  0  0  0  0  0  0
   -5.8476   -1.0509    0.0000 C   0  0  0  0  0  0  0  0  0  0  0  0
   -4.3979    1.5755    0.0000 C   0  0  0  0  0  0  0  0  0  0  0  0
   -4.3479   -1.0221    0.0000 C   0  0  0  0  0  0  0  0  0  0  0  0
   -3.6731    2.8888    0.0000 Cl  0  0  0  0  0  0  0  0  0  0  0  0
   -3.6231    0.2912    0.0000 C   0  0  0  0  0  0  0  0  0  0  0  0
   -2.1233    0.3200    0.0000 C   0  0  0  0  0  0  0  0  0  0  0  0
   -1.3985    1.6333    0.0000 O   0  0  0  0  0  0  0  0  0  0  0  0
    0.1234   -0.6755    0.0000 C   0  0  0  0  0  0  0  0  0  0  0  0
    1.1096   -1.8058    0.0000 C   0  0  0  0  0  0  0  0  0  0  0  0
    0.6093    0.7437    0.0000 C   0  0  0  0  0  0  0  0  0  0  0  0
    0.9294   -3.2949    0.0000 C   0  0  0  0  0  0  0  0  0  0  0  0
    2.5815   -1.5169    0.0000 C   0  0  0  0  0  0  0  0  0  0  0  0
    2.2900   -3.9264    0.0000 C   0  0  0  0  0  0  0  0  0  0  0  0
    2.0812    1.0325    0.0000 C   0  0  0  0  0  0  0  0  0  0  0  0
    3.3111   -2.8275    0.0000 C   0  0  0  0  0  0  0  0  0  0  0  0
    3.0673   -0.0978    0.0000 C   0  0  0  0  0  0  0  0  0  0  0  0
    1.7044    3.6789    0.0000 C   0  0  0  0  0  0  0  0  0  0  0  0
    2.5670    2.4517    0.0000 N   0  0  0  0  0  0  0  0  0  0  0  0
    2.6050    4.8784    0.0000 C   0  0  0  0  0  0  0  0  0  0  0  0
    4.0007    2.8928    0.0000 C   0  0  0  0  0  0  0  0  0  0  0  0
    4.0242    4.3926    0.0000 C   0  0  0  0  0  0  0  0  0  0  0  0
   -1.3485   -0.9643    0.0000 N   0  0  0  0  0  0  0  0  0  0  0  0
   -0.3769    1.8740    0.0000 C   0  0  0  0  0  0  0  0  0  0  0  0
   -0.5327   -2.9601    0.0000 C   0  0  0  0  0  0  0  0  0  0  0  0
    0.4436   -4.7141    0.0000 C   0  0  0  0  0  0  0  0  0  0  0  0
    4.4099   -3.8486    0.0000 C   0  0  0  0  0  0  0  0  0  0  0  0
    4.3321   -1.7287    0.0000 C   0  0  0  0  0  0  0  0  0  0  0  0
  1  2  2  0  0  0  0
  1  3  1  0  0  0  0
  2  4  1  0  0  0  0
  3  5  2  0  0  0  0
  4  6  1  0  0  0  0
  4  7  2  0  0  0  0
  5  7  1  0  0  0  0
  7  8  1  0  0  0  0
  8  9  2  0  0  0  0
  8 24  1  0  0  0  0
 10 12  2  0  0  0  0
 10 11  1  0  0  0  0
 10 24  1  0  0  0  0
 11 13  1  0  0  0  0
 11 14  2  0  0  0  0
 12 16  1  0  0  0  0
 12 25  1  0  0  0  0
 13 15  1  0  0  0  0
 13 26  1  0  0  0  0
 13 27  1  0  0  0  0
 14 18  1  0  0  0  0
 14 17  1  0  0  0  0
 15 17  1  0  0  0  0
 16 20  1  0  0  0  0
 16 18  2  0  0  0  0
 17 28  1  0  0  0  0
 17 29  1  0  0  0  0
 19 21  1  0  0  0  0
 19 20  1  0  0  0  0
 20 22  1  0  0  0  0
 21 23  1  0  0  0  0
 22 23  1  0  0  0  0
M  END
