326385
 OpenBabel03021519512D

 15 16  0  0  0  0  0  0  0  0999 V2000
    0.7500    4.1401    0.0000 C   0  0  0  0  0  0  0  0  0  0  0  0
    0.7500    2.6401    0.0000 C   0  0  0  0  0  0  0  0  0  0  0  0
    2.1766    4.6036    0.0000 C   0  0  0  0  0  0  0  0  0  0  0  0
    2.1766    2.1766    0.0000 C   0  0  0  0  0  0  0  0  0  0  0  0
    2.6401    0.7500    0.0000 O   0  0  0  0  0  0  0  0  0  0  0  0
    2.6401    6.0302    0.0000 O   0  0  0  0  0  0  0  0  0  0  0  0
    3.0583    3.3901    0.0000 N   0  0  0  0  0  0  0  0  0  0  0  0
    4.5583    3.3901    0.0000 C   0  0  0  0  0  0  0  0  0  0  0  0
    5.3083    2.0911    0.0000 C   0  0  0  0  0  0  0  0  0  0  0  0
    5.3083    4.6892    0.0000 C   0  0  0  0  0  0  0  0  0  0  0  0
    4.5583    5.9882    0.0000 Cl  0  0  0  0  0  0  0  0  0  0  0  0
    6.8083    2.0911    0.0000 C   0  0  0  0  0  0  0  0  0  0  0  0
    6.8083    4.6892    0.0000 C   0  0  0  0  0  0  0  0  0  0  0  0
    7.5583    3.3901    0.0000 C   0  0  0  0  0  0  0  0  0  0  0  0
    9.0583    3.3901    0.0000 I   0  0  0  0  0  0  0  0  0  0  0  0
  1  3  1  0  0  0  0
  1  2  2  0  0  0  0
  2  4  1  0  0  0  0
  3  6  2  0  0  0  0
  3  7  1  0  0  0  0
  4  7  1  0  0  0  0
  4  5  2  0  0  0  0
  7  8  1  0  0  0  0
  8 10  2  0  0  0  0
  8  9  1  0  0  0  0
  9 12  2  0  0  0  0
 10 11  1  0  0  0  0
 10 13  1  0  0  0  0
 12 14  1  0  0  0  0
 13 14  2  0  0  0  0
 14 15  1  0  0  0  0
M  END
