11296
 OpenBabel03021519512D

 21 23  0  0  0  0  0  0  0  0999 V2000
   -1.0245    3.2745    0.0000 O   0  0  0  0  0  0  0  0  0  0  0  0
    0.2745    5.5245    0.0000 N   0  0  0  0  0  0  0  0  0  0  0  0
    1.5736    3.2745    0.0000 N   0  0  0  0  0  0  0  0  0  0  0  0
    1.5736    7.7745    0.0000 O   0  0  0  0  0  0  0  0  0  0  0  0
    4.2992    5.9880    0.0000 N   0  0  0  0  0  0  0  0  0  0  0  0
    4.2992    3.5610    0.0000 N   0  0  0  0  0  0  0  0  0  0  0  0
    6.6809    4.7745    0.0000 O   0  0  0  0  0  0  0  0  0  0  0  0
    1.5736    6.2745    0.0000 C   0  0  0  0  0  0  0  0  0  0  0  0
    2.8726    5.5245    0.0000 C   0  0  0  0  0  0  0  0  0  0  0  0
    2.8726    4.0245    0.0000 C   0  0  0  0  0  0  0  0  0  0  0  0
    6.6809    7.3726    0.0000 C   0  0  0  0  0  0  0  0  0  0  0  0
    7.4309    6.0736    0.0000 C   0  0  0  0  0  0  0  0  0  0  0  0
    7.4309    8.6716    0.0000 C   0  0  0  0  0  0  0  0  0  0  0  0
    8.9309    8.6716    0.0000 C   0  0  0  0  0  0  0  0  0  0  0  0
    8.9309    6.0736    0.0000 C   0  0  0  0  0  0  0  0  0  0  0  0
    9.6809    7.3726    0.0000 C   0  0  0  0  0  0  0  0  0  0  0  0
    5.1809    4.7745    0.0000 C   0  0  0  0  0  0  0  0  0  0  0  0
    0.2745    4.0245    0.0000 C   0  0  0  0  0  0  0  0  0  0  0  0
   -1.0245    6.2745    0.0000 C   0  0  0  0  0  0  0  0  0  0  0  0
    1.5736    1.7745    0.0000 C   0  0  0  0  0  0  0  0  0  0  0  0
    4.7627    7.4146    0.0000 C   0  0  0  0  0  0  0  0  0  0  0  0
  1 18  2  0  0  0  0
  2  8  1  0  0  0  0
  2 18  1  0  0  0  0
  2 19  1  0  0  0  0
  3 10  1  0  0  0  0
  3 18  1  0  0  0  0
  3 20  1  0  0  0  0
  4  8  2  0  0  0  0
  5  9  1  0  0  0  0
  5 17  1  0  0  0  0
  5 21  1  0  0  0  0
  6 17  2  0  0  0  0
  6 10  1  0  0  0  0
  7 12  1  0  0  0  0
  7 17  1  0  0  0  0
  8  9  1  0  0  0  0
  9 10  2  0  0  0  0
 11 13  2  0  0  0  0
 11 12  1  0  0  0  0
 12 15  2  0  0  0  0
 13 14  1  0  0  0  0
 14 16  2  0  0  0  0
 15 16  1  0  0  0  0
M  END
