80313
 OpenBabel03021519512D

 25 29  0  0  0  0  0  0  0  0999 V2000
    0.1294   -5.7758    0.0000 O   0  0  0  0  0  0  0  0  0  0  0  0
    0.1294  -11.7758    0.0000 O   0  0  0  0  0  0  0  0  0  0  0  0
    2.7275   -5.7758    0.0000 N   0  0  0  0  0  0  0  0  0  0  0  0
    1.9775   -3.4676    0.0000 N   0  0  0  0  0  0  0  0  0  0  0  0
    1.5140   -4.8941    0.0000 N   0  0  0  0  0  0  0  0  0  0  0  0
    4.4812   -2.3528    0.0000 C   0  0  0  0  0  0  0  0  0  0  0  0
    5.9484   -2.6647    0.0000 C   0  0  0  0  0  0  0  0  0  0  0  0
    3.4775   -3.4676    0.0000 C   0  0  0  0  0  0  0  0  0  0  0  0
    3.9410   -4.8941    0.0000 C   0  0  0  0  0  0  0  0  0  0  0  0
    6.4119   -4.0913    0.0000 C   0  0  0  0  0  0  0  0  0  0  0  0
    5.4083   -5.2060    0.0000 C   0  0  0  0  0  0  0  0  0  0  0  0
    2.7275   -7.2758    0.0000 C   0  0  0  0  0  0  0  0  0  0  0  0
    4.0265   -8.0258    0.0000 C   0  0  0  0  0  0  0  0  0  0  0  0
    1.4285   -8.0258    0.0000 C   0  0  0  0  0  0  0  0  0  0  0  0
    0.1294   -7.2758    0.0000 C   0  0  0  0  0  0  0  0  0  0  0  0
   -1.1696   -8.0258    0.0000 C   0  0  0  0  0  0  0  0  0  0  0  0
   -2.4686   -7.2758    0.0000 C   0  0  0  0  0  0  0  0  0  0  0  0
   -3.7677   -8.0258    0.0000 C   0  0  0  0  0  0  0  0  0  0  0  0
    4.0266   -9.5258    0.0000 C   0  0  0  0  0  0  0  0  0  0  0  0
    1.4285   -9.5258    0.0000 C   0  0  0  0  0  0  0  0  0  0  0  0
   -1.1696   -9.5258    0.0000 C   0  0  0  0  0  0  0  0  0  0  0  0
   -3.7677   -9.5258    0.0000 C   0  0  0  0  0  0  0  0  0  0  0  0
    2.7275  -10.2758    0.0000 C   0  0  0  0  0  0  0  0  0  0  0  0
    0.1294  -10.2758    0.0000 C   0  0  0  0  0  0  0  0  0  0  0  0
   -2.4687  -10.2758    0.0000 C   0  0  0  0  0  0  0  0  0  0  0  0
  1 15  2  0  0  0  0
  2 24  2  0  0  0  0
  3  5  1  0  0  0  0
  3  9  1  0  0  0  0
  3 12  1  0  0  0  0
  4  5  2  0  0  0  0
  4  8  1  0  0  0  0
  6  7  2  0  0  0  0
  6  8  1  0  0  0  0
  7 10  1  0  0  0  0
  8  9  2  0  0  0  0
  9 11  1  0  0  0  0
 10 11  2  0  0  0  0
 12 13  2  0  0  0  0
 12 14  1  0  0  0  0
 13 19  1  0  0  0  0
 14 20  2  0  0  0  0
 14 15  1  0  0  0  0
 15 16  1  0  0  0  0
 16 21  2  0  0  0  0
 16 17  1  0  0  0  0
 17 18  2  0  0  0  0
 18 22  1  0  0  0  0
 19 23  2  0  0  0  0
 20 24  1  0  0  0  0
 20 23  1  0  0  0  0
 21 24  1  0  0  0  0
 21 25  1  0  0  0  0
 22 25  2  0  0  0  0
M  END
