328130
 OpenBabel03021519512D

 19 21  0  0  0  0  0  0  0  0999 V2000
   -3.5583    4.8496    0.0000 C   0  0  0  0  0  0  0  0  0  0  0  0
   -2.9477    3.4795    0.0000 C   0  0  0  0  0  0  0  0  0  0  0  0
   -2.8679    6.1812    0.0000 C   0  0  0  0  0  0  0  0  0  0  0  0
   -1.4958    3.1027    0.0000 C   0  0  0  0  0  0  0  0  0  0  0  0
   -1.3963    6.4717    0.0000 C   0  0  0  0  0  0  0  0  0  0  0  0
   -0.2959    4.0029    0.0000 C   0  0  0  0  0  0  0  0  0  0  0  0
   -0.2517    5.5022    0.0000 C   0  0  0  0  0  0  0  0  0  0  0  0
    1.0477    4.7527    0.0000 N   0  0  0  0  0  0  0  0  0  0  0  0
    0.0596    6.9695    0.0000 N   0  0  0  0  0  0  0  0  0  0  0  0
   -0.9445    8.0839    0.0000 H   0  0  0  0  0  0  0  0  0  0  0  0
    2.1620    5.7568    0.0000 C   0  0  0  0  0  0  0  0  0  0  0  0
    1.5514    7.1269    0.0000 N   0  0  0  0  0  0  0  0  0  0  0  0
    3.6293    5.4455    0.0000 S   0  0  0  0  0  0  0  0  0  0  0  0
    2.3009    8.4262    0.0000 C   0  0  0  0  0  0  0  0  0  0  0  0
    1.5504    9.7250    0.0000 C   0  0  0  0  0  0  0  0  0  0  0  0
    2.2999   11.0243    0.0000 C   0  0  0  0  0  0  0  0  0  0  0  0
    3.7999   11.0249    0.0000 C   0  0  0  0  0  0  0  0  0  0  0  0
    4.5504    9.7262    0.0000 C   0  0  0  0  0  0  0  0  0  0  0  0
    3.8009    8.4268    0.0000 C   0  0  0  0  0  0  0  0  0  0  0  0
  1  3  1  0  0  0  0
  1  2  1  0  0  0  0
  2  4  1  0  0  0  0
  3  5  1  0  0  0  0
  4  6  1  0  0  0  0
  5  7  1  0  0  0  0
  6  7  1  0  0  0  0
  7  9  1  0  0  0  0
  7  8  1  0  0  0  0
  8 11  2  0  0  0  0
  9 10  1  0  0  0  0
  9 12  1  0  0  0  0
 11 12  1  0  0  0  0
 11 13  1  0  0  0  0
 12 14  1  0  0  0  0
 14 15  2  0  0  0  0
 14 19  1  0  0  0  0
 15 16  1  0  0  0  0
 16 17  2  0  0  0  0
 17 18  1  0  0  0  0
 18 19  2  0  0  0  0
M  END
