17129
 OpenBabel03021519512D

 16 16  0  0  0  0  0  0  0  0999 V2000
    3.4216    6.0736    0.0000 C   0  0  0  0  0  0  0  0  0  0  0  0
    4.7207    5.3236    0.0000 C   0  0  0  0  0  0  0  0  0  0  0  0
    2.1226    5.3236    0.0000 C   0  0  0  0  0  0  0  0  0  0  0  0
    4.7207    3.8236    0.0000 C   0  0  0  0  0  0  0  0  0  0  0  0
    2.1226    3.8236    0.0000 C   0  0  0  0  0  0  0  0  0  0  0  0
    3.4216    3.0736    0.0000 C   0  0  0  0  0  0  0  0  0  0  0  0
    0.0736    4.3726    0.0000 N   0  0  0  0  0  0  0  0  0  0  0  0
    0.8236    3.0736    0.0000 S   0  0  0  0  0  0  0  0  0  0  0  0
   -0.4755    2.3236    0.0000 O   0  0  0  0  0  0  0  0  0  0  0  0
    1.5736    1.7745    0.0000 O   0  0  0  0  0  0  0  0  0  0  0  0
    6.0197    6.0736    0.0000 C   0  0  0  0  0  0  0  0  0  0  0  0
    7.3187    5.3236    0.0000 O   0  0  0  0  0  0  0  0  0  0  0  0
    6.0197    7.5736    0.0000 N   0  0  0  0  0  0  0  0  0  0  0  0
    7.3187    8.3236    0.0000 C   0  0  0  0  0  0  0  0  0  0  0  0
    8.6178    7.5736    0.0000 C   0  0  0  0  0  0  0  0  0  0  0  0
    9.9168    8.3236    0.0000 C   0  0  0  0  0  0  0  0  0  0  0  0
  1  3  2  0  0  0  0
  1  2  1  0  0  0  0
  2  4  2  0  0  0  0
  2 11  1  0  0  0  0
  3  5  1  0  0  0  0
  4  6  1  0  0  0  0
  5  6  2  0  0  0  0
  5  8  1  0  0  0  0
  7  8  1  0  0  0  0
  8  9  2  0  0  0  0
  8 10  2  0  0  0  0
 11 12  2  0  0  0  0
 11 13  1  0  0  0  0
 13 14  1  0  0  0  0
 14 15  1  0  0  0  0
 15 16  1  0  0  0  0
M  END
