216183
 OpenBabel03021519512D

 21 22  0  0  0  0  0  0  0  0999 V2000
    2.8726   -2.5245    0.0000 F   0  0  0  0  0  0  0  0  0  0  0  0
   -3.6226   -9.2745    0.0000 C   0  0  0  0  0  0  0  0  0  0  0  0
   -2.3235  -10.0245    0.0000 C   0  0  0  0  0  0  0  0  0  0  0  0
   -4.9216  -10.0245    0.0000 C   0  0  0  0  0  0  0  0  0  0  0  0
   -4.9216  -11.5245    0.0000 C   0  0  0  0  0  0  0  0  0  0  0  0
   -2.3235  -11.5245    0.0000 C   0  0  0  0  0  0  0  0  0  0  0  0
   -3.6226  -12.2745    0.0000 C   0  0  0  0  0  0  0  0  0  0  0  0
   -1.0245   -4.7745    0.0000 C   0  0  0  0  0  0  0  0  0  0  0  0
    0.2745   -5.5245    0.0000 C   0  0  0  0  0  0  0  0  0  0  0  0
   -1.0245   -3.2745    0.0000 C   0  0  0  0  0  0  0  0  0  0  0  0
    1.5736   -4.7745    0.0000 C   0  0  0  0  0  0  0  0  0  0  0  0
    0.2745   -2.5245    0.0000 C   0  0  0  0  0  0  0  0  0  0  0  0
    1.5736   -3.2745    0.0000 C   0  0  0  0  0  0  0  0  0  0  0  0
   -3.6226   -7.7745    0.0000 C   0  0  0  0  0  0  0  0  0  0  0  0
   -3.6226  -13.7745    0.0000 N   0  3  0  0  0  0  0  0  0  0  0  0
   -4.9216  -14.5245    0.0000 O   0  5  0  0  0  0  0  0  0  0  0  0
   -2.3235  -14.5245    0.0000 O   0  0  0  0  0  0  0  0  0  0  0  0
   -1.0245   -9.2745    0.0000 N   0  0  0  0  0  0  0  0  0  0  0  0
   -1.0245   -7.7745    0.0000 C   0  0  0  0  0  0  0  0  0  0  0  0
   -2.3235   -7.0245    0.0000 O   0  0  0  0  0  0  0  0  0  0  0  0
    0.2745   -7.0245    0.0000 N   0  0  0  0  0  0  0  0  0  0  0  0
  1 13  1  0  0  0  0
  2  3  2  0  0  0  0
  2  4  1  0  0  0  0
  2 14  1  0  0  0  0
  3  6  1  0  0  0  0
  3 18  1  0  0  0  0
  4  5  2  0  0  0  0
  5  7  1  0  0  0  0
  6  7  2  0  0  0  0
  7 15  1  0  0  0  0
  8 10  2  0  0  0  0
  8  9  1  0  0  0  0
  9 11  2  0  0  0  0
  9 21  1  0  0  0  0
 10 12  1  0  0  0  0
 11 13  1  0  0  0  0
 12 13  2  0  0  0  0
 15 16  1  0  0  0  0
 15 17  2  0  0  0  0
 18 19  1  0  0  0  0
 19 20  2  0  0  0  0
 19 21  1  0  0  0  0
M  CHG  2  15   1  16  -1
M  END
