168221
 OpenBabel03021519512D

 20 22  0  0  0  0  0  0  0  0999 V2000
    4.6471   -7.4892    0.0000 N   0  0  0  0  0  0  0  0  0  0  0  0
    4.6471  -10.4892    0.0000 S   0  0  0  0  0  0  0  0  0  0  0  0
    8.5442   -9.7392    0.0000 N   0  0  0  0  0  0  0  0  0  0  0  0
    7.2452   -7.4892    0.0000 C   0  0  0  0  0  0  0  0  0  0  0  0
    5.9462   -8.2392    0.0000 C   0  0  0  0  0  0  0  0  0  0  0  0
    8.5442   -8.2392    0.0000 C   0  0  0  0  0  0  0  0  0  0  0  0
    5.9462   -9.7392    0.0000 C   0  0  0  0  0  0  0  0  0  0  0  0
    7.2452  -10.4892    0.0000 C   0  0  0  0  0  0  0  0  0  0  0  0
    2.0491   -7.4892    0.0000 C   0  0  0  0  0  0  0  0  0  0  0  0
    3.3481   -8.2392    0.0000 C   0  0  0  0  0  0  0  0  0  0  0  0
    0.7500   -8.2392    0.0000 C   0  0  0  0  0  0  0  0  0  0  0  0
    3.3481   -9.7392    0.0000 C   0  0  0  0  0  0  0  0  0  0  0  0
    0.7500   -9.7392    0.0000 C   0  0  0  0  0  0  0  0  0  0  0  0
    2.0491  -10.4892    0.0000 C   0  0  0  0  0  0  0  0  0  0  0  0
    4.6471   -5.9892    0.0000 C   0  0  0  0  0  0  0  0  0  0  0  0
    5.9462   -5.2392    0.0000 C   0  0  0  0  0  0  0  0  0  0  0  0
    5.9462   -3.7392    0.0000 O   0  0  0  0  0  0  0  0  0  0  0  0
    4.6471   -2.9892    0.0000 C   0  0  0  0  0  0  0  0  0  0  0  0
    4.6471   -1.4892    0.0000 O   0  0  0  0  0  0  0  0  0  0  0  0
    3.3481   -3.7392    0.0000 C   0  0  0  0  0  0  0  0  0  0  0  0
  1  5  1  0  0  0  0
  1 10  1  0  0  0  0
  1 15  1  0  0  0  0
  2  7  1  0  0  0  0
  2 12  1  0  0  0  0
  3  8  2  0  0  0  0
  3  6  1  0  0  0  0
  4  6  2  0  0  0  0
  4  5  1  0  0  0  0
  5  7  2  0  0  0  0
  7  8  1  0  0  0  0
  9 11  2  0  0  0  0
  9 10  1  0  0  0  0
 10 12  2  0  0  0  0
 11 13  1  0  0  0  0
 12 14  1  0  0  0  0
 13 14  2  0  0  0  0
 15 16  1  0  0  0  0
 16 17  1  0  0  0  0
 17 18  1  0  0  0  0
 18 19  2  0  0  0  0
 18 20  1  0  0  0  0
M  END
