135168
 OpenBabel03021519512D

 24 28  0  0  1  0  0  0  0  0999 V2000
   -6.4547   10.7095    0.0000 C   0  0  0  0  0  0  0  0  0  0  0  0
   -7.7537    9.9595    0.0000 C   0  0  0  0  0  0  0  0  0  0  0  0
   -5.1557    9.9595    0.0000 C   0  0  0  0  0  0  0  0  0  0  0  0
   -5.1557    8.4595    0.0000 C   0  0  0  0  0  0  0  0  0  0  0  0
   -7.7537    8.4595    0.0000 C   0  0  0  0  0  0  0  0  0  0  0  0
   -6.4547    7.7095    0.0000 C   0  0  0  0  0  0  0  0  0  0  0  0
   -6.4547    6.2095    0.0000 C   0  0  3  0  0  0  0  0  0  0  0  0
   -5.7047    4.9104    0.0000 C   0  0  3  0  0  0  0  0  0  0  0  0
   -7.2047    4.9104    0.0000 C   0  0  3  0  0  0  0  0  0  0  0  0
   -5.5479    3.4187    0.0000 C   0  0  0  0  0  0  0  0  0  0  0  0
   -4.3344    5.5205    0.0000 C   0  0  0  0  0  0  0  0  0  0  0  0
   -3.8708    6.9471    0.0000 C   0  0  0  0  0  0  0  0  0  0  0  0
   -2.4036    7.2590    0.0000 C   0  0  0  0  0  0  0  0  0  0  0  0
   -6.5516    2.3039    0.0000 C   0  0  0  0  0  0  0  0  0  0  0  0
   -6.0881    0.8774    0.0000 C   0  0  0  0  0  0  0  0  0  0  0  0
   -1.3999    6.1443    0.0000 C   0  0  0  0  0  0  0  0  0  0  0  0
   -3.3307    4.4058    0.0000 C   0  0  0  0  0  0  0  0  0  0  0  0
   -4.0807    3.1068    0.0000 C   0  0  0  0  0  0  0  0  0  0  0  0
   -4.6209    0.5655    0.0000 C   0  0  0  0  0  0  0  0  0  0  0  0
   -1.8635    4.7177    0.0000 C   0  0  0  0  0  0  0  0  0  0  0  0
   -3.6172    1.6802    0.0000 C   0  0  0  0  0  0  0  0  0  0  0  0
   -8.5037    4.1604    0.0000 N   0  3  0  0  0  0  0  0  0  0  0  0
   -8.5037    2.6604    0.0000 O   0  5  0  0  0  0  0  0  0  0  0  0
   -9.8028    4.9104    0.0000 O   0  0  0  0  0  0  0  0  0  0  0  0
  1  3  2  0  0  0  0
  1  2  1  0  0  0  0
  2  5  2  0  0  0  0
  3  4  1  0  0  0  0
  4  6  2  0  0  0  0
  5  6  1  0  0  0  0
  6  7  1  0  0  0  0
  7  8  1  0  0  0  0
  7  9  1  0  0  0  0
  8  9  1  0  0  0  0
  8 10  1  0  0  0  0
  8 11  1  0  0  0  0
  9 22  1  0  0  0  0
 10 18  2  0  0  0  0
 10 14  1  0  0  0  0
 11 17  2  0  0  0  0
 11 12  1  0  0  0  0
 12 13  2  0  0  0  0
 13 16  1  0  0  0  0
 14 15  2  0  0  0  0
 15 19  1  0  0  0  0
 16 20  2  0  0  0  0
 17 20  1  0  0  0  0
 17 18  1  0  0  0  0
 18 21  1  0  0  0  0
 19 21  2  0  0  0  0
 22 23  1  0  0  0  0
 22 24  2  0  0  0  0
M  CHG  2  22   1  23  -1
M  END
