102554
 OpenBabel03021519512D

 20 22  0  0  1  0  0  0  0  0999 V2000
   -1.0245    6.2745    0.0000 O   0  0  0  0  0  0  0  0  0  0  0  0
   -1.0245    3.2745    0.0000 H   0  0  0  0  0  0  0  0  0  0  0  0
    0.2745    4.0245    0.0000 N   0  0  0  0  0  0  0  0  0  0  0  0
    1.5736    7.7745    0.0000 H   0  0  0  0  0  0  0  0  0  0  0  0
    1.5736    6.2745    0.0000 N   0  0  0  0  0  0  0  0  0  0  0  0
    1.5736    1.7745    0.0000 O   0  0  0  0  0  0  0  0  0  0  0  0
    2.8726    4.0245    0.0000 N   0  0  0  0  0  0  0  0  0  0  0  0
    4.2992    5.9880    0.0000 S   0  0  0  0  0  0  0  0  0  0  0  0
    7.1403    8.8466    0.0000 C   0  0  0  0  0  0  0  0  0  0  0  0
    6.9836    7.3548    0.0000 C   0  0  0  0  0  0  0  0  0  0  0  0
    5.9268    9.7283    0.0000 C   0  0  0  0  0  0  0  0  0  0  0  0
    5.6132    6.7447    0.0000 C   0  0  0  0  0  0  0  0  0  0  0  0
    4.5565    9.1182    0.0000 C   0  0  0  0  0  0  0  0  0  0  0  0
    4.3997    7.6264    0.0000 C   0  0  0  0  0  0  0  0  0  0  0  0
    2.8726    5.5245    0.0000 C   0  0  3  0  0  0  0  0  0  0  0  0
    0.2745    5.5245    0.0000 C   0  0  0  0  0  0  0  0  0  0  0  0
    5.1809    4.7745    0.0000 C   0  0  0  0  0  0  0  0  0  0  0  0
    4.2992    3.5610    0.0000 C   0  0  0  0  0  0  0  0  0  0  0  0
    1.5736    3.2745    0.0000 C   0  0  0  0  0  0  0  0  0  0  0  0
    3.0294    7.0163    0.0000 C   0  0  0  0  0  0  0  0  0  0  0  0
  1 16  2  0  0  0  0
  2  3  1  0  0  0  0
  3 16  1  0  0  0  0
  3 19  1  0  0  0  0
  4  5  1  0  0  0  0
  5 15  1  0  0  0  0
  5 16  1  0  0  0  0
  6 19  2  0  0  0  0
  7 15  1  0  0  0  0
  7 18  1  0  0  0  0
  7 19  1  0  0  0  0
  8 15  1  0  0  0  0
  8 17  1  0  0  0  0
  9 10  2  0  0  0  0
  9 11  1  0  0  0  0
 10 12  1  0  0  0  0
 11 13  2  0  0  0  0
 12 14  2  0  0  0  0
 13 14  1  0  0  0  0
 14 20  1  0  0  0  0
 15 20  1  0  0  0  0
 17 18  1  0  0  0  0
M  END
