126347
 OpenBabel03021519512D

 20 22  0  0  0  0  0  0  0  0999 V2000
   -7.2521   -6.7851    0.0000 N   0  0  0  0  0  0  0  0  0  0  0  0
   -0.6294   -3.3216    0.0000 S   0  0  0  0  0  0  0  0  0  0  0  0
   -0.6294   -5.7486    0.0000 N   0  0  0  0  0  0  0  0  0  0  0  0
   -3.3550   -3.0351    0.0000 C   0  0  0  0  0  0  0  0  0  0  0  0
   -2.0560   -3.7851    0.0000 C   0  0  0  0  0  0  0  0  0  0  0  0
   -4.6540   -3.7851    0.0000 C   0  0  0  0  0  0  0  0  0  0  0  0
   -2.0559   -5.2851    0.0000 C   0  0  0  0  0  0  0  0  0  0  0  0
   -4.6540   -5.2851    0.0000 C   0  0  0  0  0  0  0  0  0  0  0  0
   -3.3550   -6.0351    0.0000 C   0  0  0  0  0  0  0  0  0  0  0  0
    0.2523   -4.5351    0.0000 C   0  0  0  0  0  0  0  0  0  0  0  0
   -8.5511   -6.0351    0.0000 C   0  0  0  0  0  0  0  0  0  0  0  0
   -9.8502   -6.7851    0.0000 C   0  0  0  0  0  0  0  0  0  0  0  0
   -9.8502   -8.2851    0.0000 C   0  0  0  0  0  0  0  0  0  0  0  0
   -8.5511   -9.0351    0.0000 C   0  0  0  0  0  0  0  0  0  0  0  0
   -7.2521   -8.2851    0.0000 C   0  0  0  0  0  0  0  0  0  0  0  0
   -5.9531   -6.0351    0.0000 S   0  0  0  0  0  0  0  0  0  0  0  0
   -6.7031   -4.7361    0.0000 O   0  0  0  0  0  0  0  0  0  0  0  0
   -5.2031   -7.3341    0.0000 O   0  0  0  0  0  0  0  0  0  0  0  0
    1.7523   -4.5351    0.0000 S   0  0  0  0  0  0  0  0  0  0  0  0
    2.5023   -5.8341    0.0000 C   0  0  0  0  0  0  0  0  0  0  0  0
  1 11  1  0  0  0  0
  1 15  1  0  0  0  0
  1 16  1  0  0  0  0
  2  5  1  0  0  0  0
  2 10  1  0  0  0  0
  3 10  2  0  0  0  0
  3  7  1  0  0  0  0
  4  6  2  0  0  0  0
  4  5  1  0  0  0  0
  5  7  2  0  0  0  0
  6  8  1  0  0  0  0
  7  9  1  0  0  0  0
  8  9  2  0  0  0  0
  8 16  1  0  0  0  0
 10 19  1  0  0  0  0
 11 12  1  0  0  0  0
 12 13  1  0  0  0  0
 13 14  1  0  0  0  0
 14 15  1  0  0  0  0
 16 17  2  0  0  0  0
 16 18  2  0  0  0  0
 19 20  1  0  0  0  0
M  END
