130801
 OpenBabel03021519512D

 21 23  0  0  0  0  0  0  0  0999 V2000
   -7.5000   -3.3481    0.0000 C   0  0  0  0  0  0  0  0  0  0  0  0
   -5.2500   -2.0490    0.0000 N   0  0  0  0  0  0  0  0  0  0  0  0
  -12.0000   -3.3481    0.0000 C   0  0  0  0  0  0  0  0  0  0  0  0
  -11.2500   -2.0490    0.0000 C   0  0  0  0  0  0  0  0  0  0  0  0
  -11.2500   -4.6471    0.0000 C   0  0  0  0  0  0  0  0  0  0  0  0
   -9.7500   -2.0490    0.0000 C   0  0  0  0  0  0  0  0  0  0  0  0
   -9.7500   -4.6471    0.0000 C   0  0  0  0  0  0  0  0  0  0  0  0
   -9.0000   -3.3481    0.0000 C   0  0  0  0  0  0  0  0  0  0  0  0
   -5.2500   -4.6471    0.0000 C   0  0  0  0  0  0  0  0  0  0  0  0
   -4.5000   -3.3481    0.0000 C   0  0  0  0  0  0  0  0  0  0  0  0
   -4.5000   -5.9462    0.0000 C   0  0  0  0  0  0  0  0  0  0  0  0
   -3.0000   -3.3481    0.0000 C   0  0  0  0  0  0  0  0  0  0  0  0
   -3.0000   -5.9462    0.0000 C   0  0  0  0  0  0  0  0  0  0  0  0
   -2.2500   -2.0490    0.0000 C   0  0  0  0  0  0  0  0  0  0  0  0
   -4.5000   -0.7500    0.0000 C   0  0  0  0  0  0  0  0  0  0  0  0
   -3.0000   -0.7500    0.0000 C   0  0  0  0  0  0  0  0  0  0  0  0
   -2.2500   -4.6471    0.0000 C   0  0  0  0  0  0  0  0  0  0  0  0
   -6.7500   -4.6471    0.0000 N   0  0  0  0  0  0  0  0  0  0  0  0
   -9.0000   -0.7500    0.0000 O   0  0  0  0  0  0  0  0  0  0  0  0
   -2.2500   -7.2452    0.0000 O   0  0  0  0  0  0  0  0  0  0  0  0
   -0.7500   -7.2452    0.0000 C   0  0  0  0  0  0  0  0  0  0  0  0
  1  8  1  0  0  0  0
  1 18  1  0  0  0  0
  2 15  2  0  0  0  0
  2 10  1  0  0  0  0
  3  4  2  0  0  0  0
  3  5  1  0  0  0  0
  4  6  1  0  0  0  0
  5  7  2  0  0  0  0
  6  8  2  0  0  0  0
  6 19  1  0  0  0  0
  7  8  1  0  0  0  0
  9 11  2  0  0  0  0
  9 10  1  0  0  0  0
  9 18  1  0  0  0  0
 10 12  2  0  0  0  0
 11 13  1  0  0  0  0
 12 14  1  0  0  0  0
 12 17  1  0  0  0  0
 13 17  2  0  0  0  0
 13 20  1  0  0  0  0
 14 16  2  0  0  0  0
 15 16  1  0  0  0  0
 20 21  1  0  0  0  0
M  END
