8675
 OpenBabel03021519512D

 35 36  0  0  0  0  0  0  0  0999 V2000
   -9.5950  -14.2500    0.0000 Cl  0  5  0  0  0  0  0  0  0  0  0  0
   -9.5950   -7.5000    0.0000 C   0  0  0  0  0  0  0  0  0  0  0  0
   -9.5950   -3.0000    0.0000 C   0  0  0  0  0  0  0  0  0  0  0  0
   -8.2960   -3.7500    0.0000 C   0  0  0  0  0  0  0  0  0  0  0  0
  -10.8941   -3.7500    0.0000 C   0  0  0  0  0  0  0  0  0  0  0  0
   -8.2960   -5.2500    0.0000 C   0  0  0  0  0  0  0  0  0  0  0  0
  -10.8941   -5.2500    0.0000 C   0  0  0  0  0  0  0  0  0  0  0  0
   -9.5950   -6.0000    0.0000 C   0  0  0  0  0  0  0  0  0  0  0  0
   -6.9969   -7.5000    0.0000 C   0  0  0  0  0  0  0  0  0  0  0  0
   -8.2960   -8.2500    0.0000 C   0  0  0  0  0  0  0  0  0  0  0  0
   -5.6979   -8.2500    0.0000 C   0  0  0  0  0  0  0  0  0  0  0  0
   -5.6979   -9.7500    0.0000 C   0  0  0  0  0  0  0  0  0  0  0  0
   -8.2960   -9.7500    0.0000 C   0  0  0  0  0  0  0  0  0  0  0  0
   -6.9969  -10.5000    0.0000 C   0  0  0  0  0  0  0  0  0  0  0  0
  -12.1931   -7.5000    0.0000 C   0  0  0  0  0  0  0  0  0  0  0  0
  -10.8940   -8.2500    0.0000 C   0  0  0  0  0  0  0  0  0  0  0  0
  -13.4921   -8.2500    0.0000 C   0  0  0  0  0  0  0  0  0  0  0  0
  -10.8940   -9.7500    0.0000 C   0  0  0  0  0  0  0  0  0  0  0  0
  -13.4921   -9.7500    0.0000 C   0  0  0  0  0  0  0  0  0  0  0  0
  -12.1931  -10.5000    0.0000 C   0  0  0  0  0  0  0  0  0  0  0  0
  -14.7912  -10.5000    0.0000 N   0  0  0  0  0  0  0  0  0  0  0  0
  -16.0902   -9.7500    0.0000 C   0  0  0  0  0  0  0  0  0  0  0  0
  -17.3892  -10.5000    0.0000 C   0  0  0  0  0  0  0  0  0  0  0  0
  -14.7912  -12.0000    0.0000 C   0  0  0  0  0  0  0  0  0  0  0  0
  -16.0902  -12.7500    0.0000 C   0  0  0  0  0  0  0  0  0  0  0  0
   -4.3989  -10.5000    0.0000 N   0  0  0  0  0  0  0  0  0  0  0  0
   -3.0998   -9.7500    0.0000 C   0  0  0  0  0  0  0  0  0  0  0  0
   -1.8008  -10.5000    0.0000 C   0  0  0  0  0  0  0  0  0  0  0  0
   -4.3989  -12.0000    0.0000 C   0  0  0  0  0  0  0  0  0  0  0  0
   -3.0998  -12.7500    0.0000 C   0  0  0  0  0  0  0  0  0  0  0  0
   -9.5950   -1.5000    0.0000 N   0  3  0  0  0  0  0  0  0  0  0  0
  -10.8941   -0.7500    0.0000 C   0  0  0  0  0  0  0  0  0  0  0  0
  -12.1931   -1.5000    0.0000 C   0  0  0  0  0  0  0  0  0  0  0  0
   -8.2960   -0.7500    0.0000 C   0  0  0  0  0  0  0  0  0  0  0  0
   -6.9970   -1.5000    0.0000 C   0  0  0  0  0  0  0  0  0  0  0  0
  2  8  2  0  0  0  0
  2 10  1  0  0  0  0
  2 16  1  0  0  0  0
  3  4  1  0  0  0  0
  3  5  1  0  0  0  0
  3 31  2  0  0  0  0
  4  6  2  0  0  0  0
  5  7  2  0  0  0  0
  6  8  1  0  0  0  0
  7  8  1  0  0  0  0
  9 11  2  0  0  0  0
  9 10  1  0  0  0  0
 10 13  2  0  0  0  0
 11 12  1  0  0  0  0
 12 14  2  0  0  0  0
 12 26  1  0  0  0  0
 13 14  1  0  0  0  0
 15 17  2  0  0  0  0
 15 16  1  0  0  0  0
 16 18  2  0  0  0  0
 17 19  1  0  0  0  0
 18 20  1  0  0  0  0
 19 20  2  0  0  0  0
 19 21  1  0  0  0  0
 21 22  1  0  0  0  0
 21 24  1  0  0  0  0
 22 23  1  0  0  0  0
 24 25  1  0  0  0  0
 26 27  1  0  0  0  0
 26 29  1  0  0  0  0
 27 28  1  0  0  0  0
 29 30  1  0  0  0  0
 31 32  1  0  0  0  0
 31 34  1  0  0  0  0
 32 33  1  0  0  0  0
 34 35  1  0  0  0  0
M  CHG  2   1  -1  31   1
M  END
