303304
 OpenBabel03021519512D

 20 22  0  0  1  0  0  0  0  0999 V2000
   -6.1317    6.4635    0.0000 C   0  0  0  0  0  0  0  0  0  0  0  0
   -7.5583    6.0000    0.0000 C   0  0  0  0  0  0  0  0  0  0  0  0
   -6.1317    4.0365    0.0000 C   0  0  0  0  0  0  0  0  0  0  0  0
   -7.5583    4.5000    0.0000 N   0  0  0  0  0  0  0  0  0  0  0  0
   -5.2500    5.2500    0.0000 N   0  0  0  0  0  0  0  0  0  0  0  0
   -3.7500    5.2500    0.0000 C   0  0  3  0  0  0  0  0  0  0  0  0
   -2.2500    5.2500    0.0000 C   0  0  0  0  0  0  0  0  0  0  0  0
   -3.7500    3.7500    0.0000 C   0  0  0  0  0  0  0  0  0  0  0  0
   -2.4510    3.0000    0.0000 C   0  0  0  0  0  0  0  0  0  0  0  0
   -2.4510    1.5000    0.0000 C   0  0  0  0  0  0  0  0  0  0  0  0
   -3.7500    0.7500    0.0000 C   0  0  0  0  0  0  0  0  0  0  0  0
   -5.0490    1.5000    0.0000 C   0  0  0  0  0  0  0  0  0  0  0  0
   -5.0490    3.0000    0.0000 C   0  0  0  0  0  0  0  0  0  0  0  0
   -3.7500    6.7500    0.0000 C   0  0  0  0  0  0  0  0  0  0  0  0
   -5.0490    7.5000    0.0000 C   0  0  0  0  0  0  0  0  0  0  0  0
   -5.0490    9.0000    0.0000 C   0  0  0  0  0  0  0  0  0  0  0  0
   -3.7500    9.7500    0.0000 C   0  0  0  0  0  0  0  0  0  0  0  0
   -2.4509    9.0000    0.0000 C   0  0  0  0  0  0  0  0  0  0  0  0
   -2.4509    7.5000    0.0000 C   0  0  0  0  0  0  0  0  0  0  0  0
   -0.7500    5.2500    0.0000 C   0  0  0  0  0  0  0  0  0  0  0  0
  1  2  2  0  0  0  0
  1  5  1  0  0  0  0
  2  4  1  0  0  0  0
  3  5  1  0  0  0  0
  3  4  2  0  0  0  0
  5  6  1  0  0  0  0
  6  7  1  0  0  0  0
  6  8  1  0  0  0  0
  6 14  1  0  0  0  0
  7 20  3  0  0  0  0
  8  9  2  0  0  0  0
  8 13  1  0  0  0  0
  9 10  1  0  0  0  0
 10 11  2  0  0  0  0
 11 12  1  0  0  0  0
 12 13  2  0  0  0  0
 14 15  2  0  0  0  0
 14 19  1  0  0  0  0
 15 16  1  0  0  0  0
 16 17  2  0  0  0  0
 17 18  1  0  0  0  0
 18 19  2  0  0  0  0
M  END
