70931
 OpenBabel03021519512D

 34 38  0  0  1  0  0  0  0  0999 V2000
   -1.0245    6.2745    0.0000 O   0  0  0  0  0  0  0  0  0  0  0  0
    8.0688    7.0245    0.0000 H   0  0  0  0  0  0  0  0  0  0  0  0
    9.3678   10.7745    0.0000 C   0  0  2  0  0  0  0  0  0  0  0  0
    8.0688   10.0245    0.0000 C   0  0  0  0  0  0  0  0  0  0  0  0
   10.6668   10.0245    0.0000 C   0  0  0  0  0  0  0  0  0  0  0  0
   10.6668    8.5245    0.0000 C   0  0  0  0  0  0  0  0  0  0  0  0
    8.0688    8.5245    0.0000 C   0  0  2  0  0  0  0  0  0  0  0  0
    9.3678    7.7745    0.0000 C   0  0  1  0  0  0  0  0  0  0  0  0
    6.7697    7.7745    0.0000 C   0  0  2  0  0  0  0  0  0  0  0  0
    5.4707    8.5245    0.0000 C   0  0  0  0  0  0  0  0  0  0  0  0
    4.1716    7.7745    0.0000 C   0  0  0  0  0  0  0  0  0  0  0  0
    9.3678    6.2745    0.0000 C   0  0  0  0  0  0  0  0  0  0  0  0
    6.7697    6.2745    0.0000 C   0  0  2  0  0  0  0  0  0  0  0  0
    4.1716    6.2745    0.0000 C   0  0  2  0  0  0  0  0  0  0  0  0
    8.0688    5.5245    0.0000 C   0  0  0  0  0  0  0  0  0  0  0  0
    5.4707    5.5245    0.0000 C   0  0  0  0  0  0  0  0  0  0  0  0
    2.8726    5.5245    0.0000 C   0  0  0  0  0  0  0  0  0  0  0  0
    1.5736    6.2745    0.0000 C   0  0  0  0  0  0  0  0  0  0  0  0
    0.2745    5.5245    0.0000 C   0  0  0  0  0  0  0  0  0  0  0  0
    5.4707    4.0245    0.0000 C   0  0  0  0  0  0  0  0  0  0  0  0
    2.8726    4.0245    0.0000 C   0  0  0  0  0  0  0  0  0  0  0  0
    0.2745    4.0245    0.0000 C   0  0  0  0  0  0  0  0  0  0  0  0
    4.1716    3.2745    0.0000 C   0  0  0  0  0  0  0  0  0  0  0  0
    1.5736    3.2745    0.0000 C   0  0  0  0  0  0  0  0  0  0  0  0
   -1.0245    3.2745    0.0000 O   0  0  0  0  0  0  0  0  0  0  0  0
    1.5735    1.7745    0.0000 C   0  0  0  0  0  0  0  0  0  0  0  0
    4.1716    4.7745    0.0000 C   0  0  0  0  0  0  0  0  0  0  0  0
    6.7697    9.2745    0.0000 C   0  0  0  0  0  0  0  0  0  0  0  0
    6.7697    4.7745    0.0000 C   0  0  0  0  0  0  0  0  0  0  0  0
    8.4036   11.9236    0.0000 C   0  0  0  0  0  0  0  0  0  0  0  0
    9.3678    9.2745    0.0000 C   0  0  0  0  0  0  0  0  0  0  0  0
   10.3320   11.9236    0.0000 C   0  0  0  0  0  0  0  0  0  0  0  0
   11.8092   11.6631    0.0000 O   0  0  0  0  0  0  0  0  0  0  0  0
    9.8190   13.3331    0.0000 O   0  0  0  0  0  0  0  0  0  0  0  0
  1 19  2  0  0  0  0
  3  4  1  0  0  0  0
  3  5  1  0  0  0  0
  3 30  1  1  0  0  0
  3 32  1  0  0  0  0
  4  7  1  0  0  0  0
  5  6  1  0  0  0  0
  6  8  1  0  0  0  0
  7  2  1  1  0  0  0
  7  8  1  0  0  0  0
  7  9  1  0  0  0  0
  8 12  1  0  0  0  0
  8 31  1  1  0  0  0
  9 10  1  0  0  0  0
  9 13  1  0  0  0  0
  9 28  1  6  0  0  0
 10 11  1  0  0  0  0
 11 14  1  0  0  0  0
 12 15  1  0  0  0  0
 13 15  1  0  0  0  0
 13 16  1  0  0  0  0
 13 29  1  1  0  0  0
 14 17  1  0  0  0  0
 14 16  1  0  0  0  0
 14 27  1  1  0  0  0
 16 20  2  0  0  0  0
 17 18  2  0  0  0  0
 17 21  1  0  0  0  0
 18 19  1  0  0  0  0
 19 22  1  0  0  0  0
 20 23  1  0  0  0  0
 21 23  2  0  0  0  0
 21 24  1  0  0  0  0
 22 24  2  0  0  0  0
 22 25  1  0  0  0  0
 24 26  1  0  0  0  0
 32 33  2  0  0  0  0
 32 34  1  0  0  0  0
M  END
