106570
 OpenBabel03021519512D

 18 20  0  0  0  0  0  0  0  0999 V2000
   -2.9800   -5.5865    0.0000 N   0  0  0  0  0  0  0  0  0  0  0  0
   -1.6809   -3.3365    0.0000 N   0  0  0  0  0  0  0  0  0  0  0  0
   -2.9800   -8.5865    0.0000 C   0  0  0  0  0  0  0  0  0  0  0  0
   -2.9800   -4.0865    0.0000 C   0  0  0  0  0  0  0  0  0  0  0  0
   -0.3819   -5.5865    0.0000 C   0  0  0  0  0  0  0  0  0  0  0  0
   -0.3819   -4.0865    0.0000 C   0  0  0  0  0  0  0  0  0  0  0  0
   -1.6809   -6.3365    0.0000 C   0  0  0  0  0  0  0  0  0  0  0  0
   -4.2790   -7.8365    0.0000 C   0  0  0  0  0  0  0  0  0  0  0  0
   -5.5780   -8.5866    0.0000 C   0  0  0  0  0  0  0  0  0  0  0  0
   -4.2790   -6.3365    0.0000 C   0  0  0  0  0  0  0  0  0  0  0  0
   -6.8771   -7.8366    0.0000 C   0  0  0  0  0  0  0  0  0  0  0  0
   -5.5781   -5.5865    0.0000 C   0  0  0  0  0  0  0  0  0  0  0  0
   -6.8771   -6.3366    0.0000 C   0  0  0  0  0  0  0  0  0  0  0  0
   -4.2790   -3.3365    0.0000 C   0  0  0  0  0  0  0  0  0  0  0  0
   -1.6809   -7.8365    0.0000 N   0  0  0  0  0  0  0  0  0  0  0  0
    1.0447   -6.0501    0.0000 C   0  0  0  0  0  0  0  0  0  0  0  0
    1.9264   -4.8365    0.0000 C   0  0  0  0  0  0  0  0  0  0  0  0
    1.0447   -3.6230    0.0000 N   0  0  0  0  0  0  0  0  0  0  0  0
  1  7  2  0  0  0  0
  1  4  1  0  0  0  0
  2  4  2  0  0  0  0
  2  6  1  0  0  0  0
  3  8  1  0  0  0  0
  3 15  1  0  0  0  0
  4 14  1  0  0  0  0
  5  6  2  0  0  0  0
  5  7  1  0  0  0  0
  5 16  1  0  0  0  0
  6 18  1  0  0  0  0
  7 15  1  0  0  0  0
  8  9  2  0  0  0  0
  8 10  1  0  0  0  0
  9 11  1  0  0  0  0
 10 12  2  0  0  0  0
 11 13  2  0  0  0  0
 12 13  1  0  0  0  0
 16 17  2  0  0  0  0
 17 18  1  0  0  0  0
M  END
