73735
 OpenBabel03021519512D

 36 39  0  0  0  0  0  0  0  0999 V2000
   -9.0000   -3.3481    0.0000 C   0  0  0  0  0  0  0  0  0  0  0  0
   -9.7500   -4.6471    0.0000 C   0  0  0  0  0  0  0  0  0  0  0  0
   -7.5000   -3.3481    0.0000 C   0  0  0  0  0  0  0  0  0  0  0  0
   -6.7500   -4.6471    0.0000 C   0  0  0  0  0  0  0  0  0  0  0  0
   -9.0000   -5.9462    0.0000 C   0  0  0  0  0  0  0  0  0  0  0  0
  -11.2500   -4.6471    0.0000 C   0  0  0  0  0  0  0  0  0  0  0  0
  -12.0000   -3.3481    0.0000 C   0  0  0  0  0  0  0  0  0  0  0  0
  -13.5000   -3.3481    0.0000 C   0  0  0  0  0  0  0  0  0  0  0  0
  -12.0000   -5.9462    0.0000 C   0  0  0  0  0  0  0  0  0  0  0  0
  -14.2500   -4.6471    0.0000 C   0  0  0  0  0  0  0  0  0  0  0  0
   -7.5000   -5.9462    0.0000 C   0  0  0  0  0  0  0  0  0  0  0  0
  -13.5000   -5.9462    0.0000 C   0  0  0  0  0  0  0  0  0  0  0  0
   -5.2500   -2.0491    0.0000 C   0  0  0  0  0  0  0  0  0  0  0  0
   -4.5000   -3.3481    0.0000 C   0  0  0  0  0  0  0  0  0  0  0  0
   -4.5000   -0.7500    0.0000 C   0  0  0  0  0  0  0  0  0  0  0  0
   -3.0000   -0.7500    0.0000 C   0  0  0  0  0  0  0  0  0  0  0  0
   -3.0000   -3.3481    0.0000 C   0  0  0  0  0  0  0  0  0  0  0  0
   -2.2500   -2.0491    0.0000 C   0  0  0  0  0  0  0  0  0  0  0  0
  -15.7500   -2.0491    0.0000 C   0  0  0  0  0  0  0  0  0  0  0  0
  -16.5000   -3.3481    0.0000 C   0  0  0  0  0  0  0  0  0  0  0  0
  -16.5000   -0.7500    0.0000 C   0  0  0  0  0  0  0  0  0  0  0  0
  -18.0000   -3.3481    0.0000 C   0  0  0  0  0  0  0  0  0  0  0  0
  -18.0000   -0.7500    0.0000 C   0  0  0  0  0  0  0  0  0  0  0  0
  -18.7500   -2.0491    0.0000 C   0  0  0  0  0  0  0  0  0  0  0  0
  -18.7500   -4.6471    0.0000 C   0  0  0  0  0  0  0  0  0  0  0  0
  -18.0000   -5.9462    0.0000 O   0  0  0  0  0  0  0  0  0  0  0  0
  -20.2500   -4.6471    0.0000 O   0  0  0  0  0  0  0  0  0  0  0  0
  -15.7500   -4.6471    0.0000 N   0  0  0  0  0  0  0  0  0  0  0  0
   -6.7500   -2.0491    0.0000 O   0  0  0  0  0  0  0  0  0  0  0  0
   -7.5000   -0.7500    0.0000 C   0  0  0  0  0  0  0  0  0  0  0  0
   -5.2500   -4.6471    0.0000 N   0  0  0  0  0  0  0  0  0  0  0  0
  -14.2500   -2.0491    0.0000 O   0  0  0  0  0  0  0  0  0  0  0  0
  -13.5000   -0.7500    0.0000 C   0  0  0  0  0  0  0  0  0  0  0  0
   -2.2500   -4.6471    0.0000 C   0  0  0  0  0  0  0  0  0  0  0  0
   -3.0000   -5.9462    0.0000 O   0  0  0  0  0  0  0  0  0  0  0  0
   -0.7500   -4.6471    0.0000 O   0  0  0  0  0  0  0  0  0  0  0  0
  1  2  2  0  0  0  0
  1  3  1  0  0  0  0
  2  5  1  0  0  0  0
  2  6  1  0  0  0  0
  3  4  2  0  0  0  0
  3 29  1  0  0  0  0
  4 11  1  0  0  0  0
  4 31  1  0  0  0  0
  5 11  2  0  0  0  0
  6  7  2  0  0  0  0
  6  9  1  0  0  0  0
  7  8  1  0  0  0  0
  8 10  2  0  0  0  0
  8 32  1  0  0  0  0
  9 12  2  0  0  0  0
 10 12  1  0  0  0  0
 10 28  1  0  0  0  0
 13 15  2  0  0  0  0
 13 14  1  0  0  0  0
 14 17  2  0  0  0  0
 14 31  1  0  0  0  0
 15 16  1  0  0  0  0
 16 18  2  0  0  0  0
 17 18  1  0  0  0  0
 17 34  1  0  0  0  0
 19 21  2  0  0  0  0
 19 20  1  0  0  0  0
 20 22  2  0  0  0  0
 20 28  1  0  0  0  0
 21 23  1  0  0  0  0
 22 24  1  0  0  0  0
 22 25  1  0  0  0  0
 23 24  2  0  0  0  0
 25 26  2  0  0  0  0
 25 27  1  0  0  0  0
 29 30  1  0  0  0  0
 32 33  1  0  0  0  0
 34 35  1  0  0  0  0
 34 36  2  0  0  0  0
M  END
