11912
 OpenBabel03021519512D

 21 23  0  0  0  0  0  0  0  0999 V2000
   -8.5443    9.0000    0.0000 N   0  0  0  0  0  0  0  0  0  0  0  0
   -4.6471    5.2500    0.0000 C   0  0  0  0  0  0  0  0  0  0  0  0
   -5.9462    4.5000    0.0000 C   0  0  0  0  0  0  0  0  0  0  0  0
   -3.3481    4.5000    0.0000 C   0  0  0  0  0  0  0  0  0  0  0  0
   -3.3481    3.0000    0.0000 C   0  0  0  0  0  0  0  0  0  0  0  0
   -5.9462    3.0000    0.0000 C   0  0  0  0  0  0  0  0  0  0  0  0
   -4.6471    2.2500    0.0000 C   0  0  0  0  0  0  0  0  0  0  0  0
   -9.8433   11.2500    0.0000 C   0  0  0  0  0  0  0  0  0  0  0  0
   -9.8433    9.7500    0.0000 C   0  0  0  0  0  0  0  0  0  0  0  0
  -11.1423   12.0000    0.0000 C   0  0  0  0  0  0  0  0  0  0  0  0
  -11.1423    9.0000    0.0000 C   0  0  0  0  0  0  0  0  0  0  0  0
  -12.4414   11.2500    0.0000 C   0  0  0  0  0  0  0  0  0  0  0  0
  -11.1423    7.5000    0.0000 C   0  0  0  0  0  0  0  0  0  0  0  0
   -8.5443    7.5000    0.0000 C   0  0  0  0  0  0  0  0  0  0  0  0
   -9.8433    6.7500    0.0000 C   0  0  0  0  0  0  0  0  0  0  0  0
  -12.4414    9.7500    0.0000 C   0  0  0  0  0  0  0  0  0  0  0  0
   -7.2452    6.7500    0.0000 C   0  0  0  0  0  0  0  0  0  0  0  0
   -7.2452    5.2500    0.0000 C   0  0  0  0  0  0  0  0  0  0  0  0
   -2.0491    2.2500    0.0000 N   0  0  0  0  0  0  0  0  0  0  0  0
   -0.7500    3.0000    0.0000 C   0  0  0  0  0  0  0  0  0  0  0  0
   -2.0490    0.7500    0.0000 C   0  0  0  0  0  0  0  0  0  0  0  0
  1 14  2  0  0  0  0
  1  9  1  0  0  0  0
  2  4  2  0  0  0  0
  2  3  1  0  0  0  0
  3  6  2  0  0  0  0
  3 18  1  0  0  0  0
  4  5  1  0  0  0  0
  5  7  2  0  0  0  0
  5 19  1  0  0  0  0
  6  7  1  0  0  0  0
  8 10  2  0  0  0  0
  8  9  1  0  0  0  0
  9 11  2  0  0  0  0
 10 12  1  0  0  0  0
 11 13  1  0  0  0  0
 11 16  1  0  0  0  0
 12 16  2  0  0  0  0
 13 15  2  0  0  0  0
 14 15  1  0  0  0  0
 14 17  1  0  0  0  0
 17 18  2  0  0  0  0
 19 20  1  0  0  0  0
 19 21  1  0  0  0  0
M  END
