146769
 OpenBabel03021519512D

 25 27  0  0  0  0  0  0  0  0999 V2000
   -1.6740    5.8995    0.0000 N   0  0  0  0  0  0  0  0  0  0  0  0
    8.7183   10.3995    0.0000 C   0  0  0  0  0  0  0  0  0  0  0  0
   10.0173   11.1495    0.0000 C   0  0  0  0  0  0  0  0  0  0  0  0
    8.7183    8.8995    0.0000 C   0  0  0  0  0  0  0  0  0  0  0  0
   11.3164   10.3995    0.0000 C   0  0  0  0  0  0  0  0  0  0  0  0
   10.0173    8.1495    0.0000 C   0  0  0  0  0  0  0  0  0  0  0  0
   11.3164    8.8995    0.0000 C   0  0  0  0  0  0  0  0  0  0  0  0
    4.8212    6.6495    0.0000 C   0  0  0  0  0  0  0  0  0  0  0  0
    6.1202    5.8995    0.0000 C   0  0  0  0  0  0  0  0  0  0  0  0
    3.5221    5.8995    0.0000 C   0  0  0  0  0  0  0  0  0  0  0  0
    6.1202    4.3995    0.0000 C   0  0  0  0  0  0  0  0  0  0  0  0
    3.5221    4.3995    0.0000 C   0  0  0  0  0  0  0  0  0  0  0  0
    4.8212    3.6495    0.0000 C   0  0  0  0  0  0  0  0  0  0  0  0
    0.9241    5.8995    0.0000 C   0  0  0  0  0  0  0  0  0  0  0  0
   -0.3750    6.6495    0.0000 C   0  0  0  0  0  0  0  0  0  0  0  0
    0.9241    4.3995    0.0000 C   0  0  0  0  0  0  0  0  0  0  0  0
   -0.3750    3.6495    0.0000 C   0  0  0  0  0  0  0  0  0  0  0  0
   -1.6740    4.3995    0.0000 C   0  0  0  0  0  0  0  0  0  0  0  0
    2.2231    3.6495    0.0000 N   0  0  0  0  0  0  0  0  0  0  0  0
    7.4192    6.6495    0.0000 N   0  0  0  0  0  0  0  0  0  0  0  0
    7.4192    8.1495    0.0000 C   0  0  0  0  0  0  0  0  0  0  0  0
    6.1202    8.8995    0.0000 O   0  0  0  0  0  0  0  0  0  0  0  0
   12.6154   11.1495    0.0000 N   0  3  0  0  0  0  0  0  0  0  0  0
   12.6154   12.6495    0.0000 O   0  5  0  0  0  0  0  0  0  0  0  0
   13.9144   10.3995    0.0000 O   0  0  0  0  0  0  0  0  0  0  0  0
  1 15  2  0  0  0  0
  1 18  1  0  0  0  0
  2  3  2  0  0  0  0
  2  4  1  0  0  0  0
  3  5  1  0  0  0  0
  4  6  2  0  0  0  0
  4 21  1  0  0  0  0
  5  7  2  0  0  0  0
  5 23  1  0  0  0  0
  6  7  1  0  0  0  0
  8  9  2  0  0  0  0
  8 10  1  0  0  0  0
  9 11  1  0  0  0  0
  9 20  1  0  0  0  0
 10 12  2  0  0  0  0
 11 13  2  0  0  0  0
 12 13  1  0  0  0  0
 12 19  1  0  0  0  0
 14 16  2  0  0  0  0
 14 15  1  0  0  0  0
 16 17  1  0  0  0  0
 16 19  1  0  0  0  0
 17 18  2  0  0  0  0
 20 21  1  0  0  0  0
 21 22  2  0  0  0  0
 23 24  1  0  0  0  0
 23 25  2  0  0  0  0
M  CHG  2  23   1  24  -1
M  END
