372146
 OpenBabel03021519512D

 23 25  0  0  0  0  0  0  0  0999 V2000
    1.5000    4.6471    0.0000 C   0  0  0  0  0  0  0  0  0  0  0  0
    3.0000    4.6471    0.0000 C   0  0  0  0  0  0  0  0  0  0  0  0
    3.7500    3.3481    0.0000 N   0  0  0  0  0  0  0  0  0  0  0  0
    3.7500    5.9461    0.0000 N   0  0  0  0  0  0  0  0  0  0  0  0
    5.2500    3.3481    0.0000 C   0  0  0  0  0  0  0  0  0  0  0  0
    5.2500    5.9462    0.0000 C   0  0  0  0  0  0  0  0  0  0  0  0
    6.0000    4.6471    0.0000 N   0  0  0  0  0  0  0  0  0  0  0  0
    0.7500    5.9461    0.0000 C   0  0  0  0  0  0  0  0  0  0  0  0
    0.7500    3.3481    0.0000 C   0  0  0  0  0  0  0  0  0  0  0  0
    6.0000    7.2452    0.0000 O   0  0  0  0  0  0  0  0  0  0  0  0
    7.5000    7.2452    0.0000 C   0  0  0  0  0  0  0  0  0  0  0  0
    8.2500    8.5442    0.0000 C   0  0  0  0  0  0  0  0  0  0  0  0
    9.7500    8.5442    0.0000 C   0  0  0  0  0  0  0  0  0  0  0  0
   10.5000    7.2452    0.0000 C   0  0  0  0  0  0  0  0  0  0  0  0
    9.7500    5.9462    0.0000 C   0  0  0  0  0  0  0  0  0  0  0  0
    8.2500    5.9462    0.0000 C   0  0  0  0  0  0  0  0  0  0  0  0
    6.0000    2.0490    0.0000 O   0  0  0  0  0  0  0  0  0  0  0  0
    7.5000    2.0490    0.0000 C   0  0  0  0  0  0  0  0  0  0  0  0
    8.2500    3.3481    0.0000 C   0  0  0  0  0  0  0  0  0  0  0  0
    9.7500    3.3481    0.0000 C   0  0  0  0  0  0  0  0  0  0  0  0
   10.5000    2.0490    0.0000 C   0  0  0  0  0  0  0  0  0  0  0  0
    9.7500    0.7500    0.0000 C   0  0  0  0  0  0  0  0  0  0  0  0
    8.2500    0.7500    0.0000 C   0  0  0  0  0  0  0  0  0  0  0  0
  1  2  1  0  0  0  0
  1  8  2  0  0  0  0
  1  9  1  0  0  0  0
  2  4  2  0  0  0  0
  2  3  1  0  0  0  0
  3  5  2  0  0  0  0
  4  6  1  0  0  0  0
  5  7  1  0  0  0  0
  5 17  1  0  0  0  0
  6  7  2  0  0  0  0
  6 10  1  0  0  0  0
 10 11  1  0  0  0  0
 11 12  2  0  0  0  0
 11 16  1  0  0  0  0
 12 13  1  0  0  0  0
 13 14  2  0  0  0  0
 14 15  1  0  0  0  0
 15 16  2  0  0  0  0
 17 18  1  0  0  0  0
 18 19  2  0  0  0  0
 18 23  1  0  0  0  0
 19 20  1  0  0  0  0
 20 21  2  0  0  0  0
 21 22  1  0  0  0  0
 22 23  2  0  0  0  0
M  END
