283856
 OpenBabel03021519512D

 19 20  0  0  0  0  0  0  0  0999 V2000
    3.0086    0.7566    0.0000 C   0  0  0  0  0  0  0  0  0  0  0  0
    3.7586   -0.5424    0.0000 C   0  0  0  0  0  0  0  0  0  0  0  0
    3.7586    2.0557    0.0000 N   0  0  0  0  0  0  0  0  0  0  0  0
    5.2586   -0.5424    0.0000 C   0  0  0  0  0  0  0  0  0  0  0  0
    3.0086    3.3547    0.0000 H   0  0  0  0  0  0  0  0  0  0  0  0
    5.2586    2.0557    0.0000 C   0  0  0  0  0  0  0  0  0  0  0  0
    7.5086   -1.8414    0.0000 C   0  0  0  0  0  0  0  0  0  0  0  0
    6.0086    0.7566    0.0000 C   0  0  0  0  0  0  0  0  0  0  0  0
    8.2586   -0.5424    0.0000 C   0  0  0  0  0  0  0  0  0  0  0  0
    6.0086    3.3547    0.0000 S   0  0  0  0  0  0  0  0  0  0  0  0
    8.2586   -3.1405    0.0000 C   0  0  0  0  0  0  0  0  0  0  0  0
    9.7586   -0.5424    0.0000 C   0  0  0  0  0  0  0  0  0  0  0  0
    9.7586   -3.1405    0.0000 C   0  0  0  0  0  0  0  0  0  0  0  0
   10.5086   -1.8414    0.0000 C   0  0  0  0  0  0  0  0  0  0  0  0
   12.0086   -1.8414    0.0000 O   0  0  0  0  0  0  0  0  0  0  0  0
    1.8595    1.7208    0.0000 C   0  0  0  0  0  0  0  0  0  0  0  0
    1.8595   -0.2076    0.0000 C   0  0  0  0  0  0  0  0  0  0  0  0
    6.0086   -1.8415    0.0000 N   0  0  0  0  0  0  0  0  0  0  0  0
   12.7586   -0.5424    0.0000 C   0  0  0  0  0  0  0  0  0  0  0  0
  1  3  1  0  0  0  0
  1  2  1  0  0  0  0
  1 16  1  0  0  0  0
  1 17  1  0  0  0  0
  2  4  1  0  0  0  0
  3  5  1  0  0  0  0
  3  6  1  0  0  0  0
  4  8  2  0  0  0  0
  4 18  1  0  0  0  0
  6 10  2  0  0  0  0
  6  8  1  0  0  0  0
  7  9  2  0  0  0  0
  7 11  1  0  0  0  0
  7 18  1  0  0  0  0
  9 12  1  0  0  0  0
 11 13  2  0  0  0  0
 12 14  2  0  0  0  0
 13 14  1  0  0  0  0
 14 15  1  0  0  0  0
 15 19  1  0  0  0  0
M  END
