133114
 OpenBabel03021519512D

 23 25  0  0  1  0  0  0  0  0999 V2000
   -1.1381   -1.6034    0.0000 C   0  0  3  0  0  0  0  0  0  0  0  0
    0.2536   -1.0438    0.0000 C   0  0  3  0  0  0  0  0  0  0  0  0
    0.1514    0.4527    0.0000 C   0  0  3  0  0  0  0  0  0  0  0  0
   -1.3034    0.8180    0.0000 O   0  0  0  0  0  0  0  0  0  0  0  0
   -2.1004   -0.4527    0.0000 C   0  0  3  0  0  0  0  0  0  0  0  0
   -1.5034   -3.0582    0.0000 O   0  0  0  0  0  0  0  0  0  0  0  0
    1.5244   -1.8407    0.0000 O   0  0  0  0  0  0  0  0  0  0  0  0
   -3.5969   -0.5549    0.0000 C   0  0  0  0  0  0  0  0  0  0  0  0
   -4.2567   -1.9020    0.0000 O   0  0  0  0  0  0  0  0  0  0  0  0
   -5.7532   -2.0042    0.0000 S   0  0  0  0  0  0  0  0  0  0  0  0
    3.5539    2.3205    0.0000 C   0  0  0  0  0  0  0  0  0  0  0  0
    2.7569    1.0498    0.0000 C   0  0  0  0  0  0  0  0  0  0  0  0
    3.4589   -0.2758    0.0000 N   0  0  0  0  0  0  0  0  0  0  0  0
    4.9579   -0.3306    0.0000 C   0  0  0  0  0  0  0  0  0  0  0  0
    5.7549    0.9402    0.0000 N   0  0  0  0  0  0  0  0  0  0  0  0
    5.0529    2.2657    0.0000 C   0  0  0  0  0  0  0  0  0  0  0  0
    2.5916    3.4712    0.0000 N   0  0  0  0  0  0  0  0  0  0  0  0
    1.1999    2.9116    0.0000 C   0  0  0  0  0  0  0  0  0  0  0  0
    1.3021    1.4150    0.0000 N   0  0  0  0  0  0  0  0  0  0  0  0
    5.8498    3.5365    0.0000 N   0  0  0  0  0  0  0  0  0  0  0  0
   -5.8554   -0.5077    0.0000 O   0  0  0  0  0  0  0  0  0  0  0  0
   -5.6510   -3.5007    0.0000 O   0  0  0  0  0  0  0  0  0  0  0  0
   -7.2497   -2.1064    0.0000 N   0  0  0  0  0  0  0  0  0  0  0  0
  1  2  1  0  0  0  0
  1  5  1  0  0  0  0
  1  6  1  0  0  0  0
  2  3  1  0  0  0  0
  2  7  1  0  0  0  0
  3  4  1  0  0  0  0
  3 19  1  0  0  0  0
  4  5  1  0  0  0  0
  5  8  1  0  0  0  0
  8  9  1  0  0  0  0
  9 10  1  0  0  0  0
 10 21  2  0  0  0  0
 10 22  2  0  0  0  0
 10 23  1  0  0  0  0
 11 12  2  0  0  0  0
 11 16  1  0  0  0  0
 11 17  1  0  0  0  0
 12 13  1  0  0  0  0
 12 19  1  0  0  0  0
 13 14  2  0  0  0  0
 14 15  1  0  0  0  0
 15 16  2  0  0  0  0
 16 20  1  0  0  0  0
 17 18  2  0  0  0  0
 18 19  1  0  0  0  0
M  END
