126224
 OpenBabel03021519512D

 19 19  0  0  0  0  0  0  0  0999 V2000
   -2.5245   -4.9216    0.0000 C   0  0  0  0  0  0  0  0  0  0  0  0
   -4.0245   -7.5197    0.0000 C   0  0  0  0  0  0  0  0  0  0  0  0
   -4.7745   -6.2207    0.0000 C   0  0  0  0  0  0  0  0  0  0  0  0
   -4.7745   -8.8188    0.0000 C   0  0  0  0  0  0  0  0  0  0  0  0
   -6.2745   -6.2207    0.0000 C   0  0  0  0  0  0  0  0  0  0  0  0
   -6.2745   -8.8188    0.0000 C   0  0  0  0  0  0  0  0  0  0  0  0
   -7.0245   -7.5197    0.0000 C   0  0  0  0  0  0  0  0  0  0  0  0
   -4.0245   -4.9216    0.0000 C   0  0  0  0  0  0  0  0  0  0  0  0
   -7.0245   -4.9216    0.0000 N   0  3  0  0  0  0  0  0  0  0  0  0
   -6.2745   -3.6226    0.0000 O   0  5  0  0  0  0  0  0  0  0  0  0
   -8.5245   -4.9216    0.0000 O   0  0  0  0  0  0  0  0  0  0  0  0
   -1.7745   -3.6226    0.0000 C   0  0  0  0  0  0  0  0  0  0  0  0
   -2.5245   -2.3236    0.0000 O   0  0  0  0  0  0  0  0  0  0  0  0
   -1.7745   -6.2207    0.0000 C   0  0  0  0  0  0  0  0  0  0  0  0
   -2.5245   -7.5197    0.0000 O   0  0  0  0  0  0  0  0  0  0  0  0
   -0.2745   -3.6226    0.0000 O   0  0  0  0  0  0  0  0  0  0  0  0
    0.4755   -2.3236    0.0000 C   0  0  0  0  0  0  0  0  0  0  0  0
   -0.2745   -6.2207    0.0000 O   0  0  0  0  0  0  0  0  0  0  0  0
    0.4755   -7.5197    0.0000 C   0  0  0  0  0  0  0  0  0  0  0  0
  1  8  2  0  0  0  0
  1 12  1  0  0  0  0
  1 14  1  0  0  0  0
  2  4  2  0  0  0  0
  2  3  1  0  0  0  0
  3  5  2  0  0  0  0
  3  8  1  0  0  0  0
  4  6  1  0  0  0  0
  5  7  1  0  0  0  0
  5  9  1  0  0  0  0
  6  7  2  0  0  0  0
  9 10  1  0  0  0  0
  9 11  2  0  0  0  0
 12 13  2  0  0  0  0
 12 16  1  0  0  0  0
 14 15  2  0  0  0  0
 14 18  1  0  0  0  0
 16 17  1  0  0  0  0
 18 19  1  0  0  0  0
M  CHG  2   9   1  10  -1
M  END
