24035
 OpenBabel03021519512D

 17 18  0  0  0  0  0  0  0  0999 V2000
    5.4707    8.5245    0.0000 C   0  0  0  0  0  0  0  0  0  0  0  0
    5.4707   10.0245    0.0000 C   0  0  0  0  0  0  0  0  0  0  0  0
    6.7697    7.7745    0.0000 C   0  0  0  0  0  0  0  0  0  0  0  0
    6.7697   10.7745    0.0000 C   0  0  0  0  0  0  0  0  0  0  0  0
    8.0688    8.5245    0.0000 C   0  0  0  0  0  0  0  0  0  0  0  0
    8.0688   10.0245    0.0000 C   0  0  0  0  0  0  0  0  0  0  0  0
    4.1716    6.2745    0.0000 C   0  0  0  0  0  0  0  0  0  0  0  0
    5.4707    5.5245    0.0000 C   0  0  0  0  0  0  0  0  0  0  0  0
    2.8726    5.5245    0.0000 C   0  0  0  0  0  0  0  0  0  0  0  0
    5.4707    4.0245    0.0000 C   0  0  0  0  0  0  0  0  0  0  0  0
    2.8726    4.0245    0.0000 C   0  0  0  0  0  0  0  0  0  0  0  0
    4.1716    3.2745    0.0000 C   0  0  0  0  0  0  0  0  0  0  0  0
    6.7697    6.2745    0.0000 N   0  0  0  0  0  0  0  0  0  0  0  0
    1.5736    3.2745    0.0000 N   0  0  0  0  0  0  0  0  0  0  0  0
    0.2745    4.0245    0.0000 C   0  0  0  0  0  0  0  0  0  0  0  0
   -1.0245    3.2745    0.0000 O   0  0  0  0  0  0  0  0  0  0  0  0
    0.2745    5.5245    0.0000 N   0  0  0  0  0  0  0  0  0  0  0  0
  1  2  2  0  0  0  0
  1  3  1  0  0  0  0
  2  4  1  0  0  0  0
  3  5  2  0  0  0  0
  3 13  1  0  0  0  0
  4  6  2  0  0  0  0
  5  6  1  0  0  0  0
  7  9  2  0  0  0  0
  7  8  1  0  0  0  0
  8 10  2  0  0  0  0
  8 13  1  0  0  0  0
  9 11  1  0  0  0  0
 10 12  1  0  0  0  0
 11 12  2  0  0  0  0
 11 14  1  0  0  0  0
 14 15  1  0  0  0  0
 15 16  2  0  0  0  0
 15 17  1  0  0  0  0
M  END
