51936
 OpenBabel03021519512D

 15 16  0  0  0  0  0  0  0  0999 V2000
    9.7500    4.6471    0.0000 C   0  0  0  0  0  0  0  0  0  0  0  0
    8.2500    4.6471    0.0000 C   0  0  0  0  0  0  0  0  0  0  0  0
    3.0000    3.3481    0.0000 C   0  0  0  0  0  0  0  0  0  0  0  0
    1.5000    3.3481    0.0000 C   0  0  0  0  0  0  0  0  0  0  0  0
    9.7500    2.0490    0.0000 C   0  0  0  0  0  0  0  0  0  0  0  0
    8.2500    2.0490    0.0000 C   0  0  0  0  0  0  0  0  0  0  0  0
    3.0000    0.7500    0.0000 C   0  0  0  0  0  0  0  0  0  0  0  0
    1.5000    0.7500    0.0000 C   0  0  0  0  0  0  0  0  0  0  0  0
    0.7500    2.0490    0.0000 O   0  0  0  0  0  0  0  0  0  0  0  0
    3.7500    2.0490    0.0000 N   0  0  0  0  0  0  0  0  0  0  0  0
    6.0000    3.3481    0.0000 C   0  0  0  0  0  0  0  0  0  0  0  0
    5.2500    4.6471    0.0000 O   0  0  0  0  0  0  0  0  0  0  0  0
    7.5000    3.3481    0.0000 N   0  0  0  0  0  0  0  0  0  0  0  0
   10.5000    3.3481    0.0000 O   0  0  0  0  0  0  0  0  0  0  0  0
    5.2500    2.0490    0.0000 C   0  0  0  0  0  0  0  0  0  0  0  0
  1  2  1  0  0  0  0
  1 14  1  0  0  0  0
  2 13  1  0  0  0  0
  3  4  1  0  0  0  0
  3 10  1  0  0  0  0
  4  9  1  0  0  0  0
  5 14  1  0  0  0  0
  5  6  1  0  0  0  0
  6 13  1  0  0  0  0
  7 10  1  0  0  0  0
  7  8  1  0  0  0  0
  8  9  1  0  0  0  0
 10 15  1  0  0  0  0
 11 13  1  0  0  0  0
 11 12  2  0  0  0  0
 11 15  1  0  0  0  0
M  END
