69359
 OpenBabel03021519512D

 23 26  0  0  1  0  0  0  0  0999 V2000
   -5.2500   -4.9635    0.0000 N   0  0  0  0  0  0  0  0  0  0  0  0
   -5.6681   -7.6036    0.0000 O   0  0  0  0  0  0  0  0  0  0  0  0
   -0.8184   -5.7449    0.0000 N   0  0  0  0  0  0  0  0  0  0  0  0
   -2.6845   -0.8575    0.0000 C   0  0  0  0  0  0  0  0  0  0  0  0
   -4.0940   -0.3444    0.0000 C   0  0  0  0  0  0  0  0  0  0  0  0
   -2.4240   -2.3347    0.0000 C   0  0  0  0  0  0  0  0  0  0  0  0
   -3.5731   -3.2989    0.0000 C   0  0  0  0  0  0  0  0  0  0  0  0
   -5.2431   -1.3086    0.0000 C   0  0  0  0  0  0  0  0  0  0  0  0
   -4.9826   -2.7858    0.0000 C   0  0  0  0  0  0  0  0  0  0  0  0
   -6.1317   -3.7500    0.0000 C   0  0  3  0  0  0  0  0  0  0  0  0
   -7.5583   -4.2135    0.0000 C   0  0  0  0  0  0  0  0  0  0  0  0
   -8.8573   -3.4635    0.0000 C   0  0  0  0  0  0  0  0  0  0  0  0
  -10.1563   -4.2135    0.0000 C   0  0  0  0  0  0  0  0  0  0  0  0
   -7.5583   -5.7135    0.0000 C   0  0  0  0  0  0  0  0  0  0  0  0
  -10.1563   -5.7135    0.0000 C   0  0  0  0  0  0  0  0  0  0  0  0
   -8.8573   -6.4635    0.0000 C   0  0  0  0  0  0  0  0  0  0  0  0
   -6.1317   -6.1771    0.0000 C   0  0  0  0  0  0  0  0  0  0  0  0
   -2.8086   -4.0749    0.0000 C   0  0  0  0  0  0  0  0  0  0  0  0
   -3.7728   -5.2240    0.0000 C   0  0  0  0  0  0  0  0  0  0  0  0
   -1.3314   -4.3354    0.0000 C   0  0  0  0  0  0  0  0  0  0  0  0
   -3.2597   -6.6335    0.0000 C   0  0  0  0  0  0  0  0  0  0  0  0
   -1.7825   -6.8940    0.0000 C   0  0  0  0  0  0  0  0  0  0  0  0
   -6.7418   -2.3797    0.0000 O   0  0  0  0  0  0  0  0  0  0  0  0
  1 10  1  0  0  0  0
  1 17  1  0  0  0  0
  1 19  1  0  0  0  0
  2 17  2  0  0  0  0
  3 20  2  0  0  0  0
  3 22  1  0  0  0  0
  4  6  2  0  0  0  0
  4  5  1  0  0  0  0
  5  8  2  0  0  0  0
  6  7  1  0  0  0  0
  7  9  2  0  0  0  0
  8  9  1  0  0  0  0
  9 10  1  0  0  0  0
 10 11  1  0  0  0  0
 10 23  1  0  0  0  0
 11 14  2  0  0  0  0
 11 12  1  0  0  0  0
 12 13  2  0  0  0  0
 13 15  1  0  0  0  0
 14 16  1  0  0  0  0
 14 17  1  0  0  0  0
 15 16  2  0  0  0  0
 18 19  2  0  0  0  0
 18 20  1  0  0  0  0
 19 21  1  0  0  0  0
 21 22  2  0  0  0  0
M  END
