24113
 OpenBabel03021519512D

 25 28  0  0  0  0  0  0  0  0999 V2000
   -6.7697   -9.2745    0.0000 Cl  0  0  0  0  0  0  0  0  0  0  0  0
   -4.1716   -7.7745    0.0000 N   0  0  0  0  0  0  0  0  0  0  0  0
   -4.1716   -4.7745    0.0000 S   0  0  0  0  0  0  0  0  0  0  0  0
   -0.2745   -2.5245    0.0000 C   0  0  0  0  0  0  0  0  0  0  0  0
   -1.5736   -3.2745    0.0000 C   0  0  0  0  0  0  0  0  0  0  0  0
    1.0245   -3.2745    0.0000 C   0  0  0  0  0  0  0  0  0  0  0  0
    1.0245   -4.7745    0.0000 C   0  0  0  0  0  0  0  0  0  0  0  0
   -1.5736   -4.7745    0.0000 C   0  0  0  0  0  0  0  0  0  0  0  0
   -0.2745   -5.5245    0.0000 C   0  0  0  0  0  0  0  0  0  0  0  0
   -2.8726   -5.5245    0.0000 C   0  0  0  0  0  0  0  0  0  0  0  0
   -0.2745   -7.0245    0.0000 C   0  0  0  0  0  0  0  0  0  0  0  0
   -2.8726   -7.0245    0.0000 C   0  0  0  0  0  0  0  0  0  0  0  0
   -1.5735   -7.7745    0.0000 C   0  0  0  0  0  0  0  0  0  0  0  0
   -6.7697   -4.7745    0.0000 C   0  0  0  0  0  0  0  0  0  0  0  0
   -8.0687   -5.5245    0.0000 C   0  0  0  0  0  0  0  0  0  0  0  0
   -5.4707   -5.5245    0.0000 C   0  0  0  0  0  0  0  0  0  0  0  0
   -5.4707   -7.0245    0.0000 C   0  0  0  0  0  0  0  0  0  0  0  0
   -8.0687   -7.0245    0.0000 C   0  0  0  0  0  0  0  0  0  0  0  0
   -6.7697   -7.7745    0.0000 C   0  0  0  0  0  0  0  0  0  0  0  0
   -4.1716   -9.2745    0.0000 C   0  0  0  0  0  0  0  0  0  0  0  0
   -2.8726  -10.0245    0.0000 C   0  0  0  0  0  0  0  0  0  0  0  0
   -1.5736   -9.2745    0.0000 C   0  0  0  0  0  0  0  0  0  0  0  0
   -0.2745  -10.0245    0.0000 N   0  0  0  0  0  0  0  0  0  0  0  0
    1.0245   -9.2745    0.0000 C   0  0  0  0  0  0  0  0  0  0  0  0
   -0.2745  -11.5245    0.0000 C   0  0  0  0  0  0  0  0  0  0  0  0
  1 19  1  0  0  0  0
  2 12  1  0  0  0  0
  2 17  1  0  0  0  0
  2 20  1  0  0  0  0
  3 10  1  0  0  0  0
  3 16  1  0  0  0  0
  4  5  2  0  0  0  0
  4  6  1  0  0  0  0
  5  8  1  0  0  0  0
  6  7  2  0  0  0  0
  7  9  1  0  0  0  0
  8  9  2  0  0  0  0
  8 10  1  0  0  0  0
  9 11  1  0  0  0  0
 10 12  2  0  0  0  0
 11 13  2  0  0  0  0
 12 13  1  0  0  0  0
 14 15  2  0  0  0  0
 14 16  1  0  0  0  0
 15 18  1  0  0  0  0
 16 17  2  0  0  0  0
 17 19  1  0  0  0  0
 18 19  2  0  0  0  0
 20 21  1  0  0  0  0
 21 22  1  0  0  0  0
 22 23  1  0  0  0  0
 23 24  1  0  0  0  0
 23 25  1  0  0  0  0
M  END
