727038
 OpenBabel03021519512D

 43 48  0  0  1  0  0  0  0  0999 V2000
   -0.3750    6.6495    0.0000 C   0  0  0  0  0  0  0  0  0  0  0  0
   -0.3750    5.1495    0.0000 C   0  0  0  0  0  0  0  0  0  0  0  0
    0.9241    4.3995    0.0000 C   0  0  0  0  0  0  0  0  0  0  0  0
    2.2231    5.1495    0.0000 C   0  0  1  0  0  0  0  0  0  0  0  0
    2.2231    6.6495    0.0000 C   0  0  2  0  0  0  0  0  0  0  0  0
    0.9241    7.3995    0.0000 C   0  0  0  0  0  0  0  0  0  0  0  0
    3.5221    4.3995    0.0000 C   0  0  0  0  0  0  0  0  0  0  0  0
    4.8212    5.1495    0.0000 C   0  0  0  0  0  0  0  0  0  0  0  0
    4.8212    6.6495    0.0000 C   0  0  2  0  0  0  0  0  0  0  0  0
    3.5221    7.3995    0.0000 C   0  0  0  0  0  0  0  0  0  0  0  0
    6.1202    7.3995    0.0000 C   0  0  1  0  0  0  0  0  0  0  0  0
    6.1202    8.8995    0.0000 C   0  0  2  0  0  0  0  0  0  0  0  0
    4.8212    9.6495    0.0000 C   0  0  0  0  0  0  0  0  0  0  0  0
    3.5221    8.8995    0.0000 C   0  0  0  0  0  0  0  0  0  0  0  0
    7.4193    6.6495    0.0000 C   0  0  0  0  0  0  0  0  0  0  0  0
    8.7183    7.3995    0.0000 C   0  0  0  0  0  0  0  0  0  0  0  0
    8.7183    8.8995    0.0000 C   0  0  2  0  0  0  0  0  0  0  0  0
    7.4193    9.6495    0.0000 C   0  0  1  0  0  0  0  0  0  0  0  0
   10.0173    9.6495    0.0000 C   0  0  0  0  0  0  0  0  0  0  0  0
   10.0173   11.1495    0.0000 C   0  0  0  0  0  0  0  0  0  0  0  0
    8.7183   11.8995    0.0000 C   0  0  0  0  0  0  0  0  0  0  0  0
    7.4193   11.1495    0.0000 C   0  0  0  0  0  0  0  0  0  0  0  0
   10.0173    8.1495    0.0000 C   0  0  0  0  0  0  0  0  0  0  0  0
   10.0173    6.6495    0.0000 O   0  0  0  0  0  0  0  0  0  0  0  0
   -1.6740    7.3995    0.0000 C   0  0  0  0  0  0  0  0  0  0  0  0
   -2.9731    8.1495    0.0000 N   0  0  0  0  0  0  0  0  0  0  0  0
    7.4193    8.1495    0.0000 H   0  0  0  0  0  0  0  0  0  0  0  0
    6.1202   10.3995    0.0000 H   0  0  0  0  0  0  0  0  0  0  0  0
    2.2231    3.6495    0.0000 H   0  0  0  0  0  0  0  0  0  0  0  0
    6.1202    5.8995    0.0000 C   0  0  0  0  0  0  0  0  0  0  0  0
   -0.0401    3.2504    0.0000 C   0  0  0  0  0  0  0  0  0  0  0  0
    1.8882    3.2504    0.0000 C   0  0  0  0  0  0  0  0  0  0  0  0
    4.8212    8.1495    0.0000 C   0  0  0  0  0  0  0  0  0  0  0  0
    7.7541   13.0486    0.0000 C   0  0  0  0  0  0  0  0  0  0  0  0
    9.6825   13.0486    0.0000 C   0  0  0  0  0  0  0  0  0  0  0  0
   -1.6740    4.3995    0.0000 O   0  0  0  0  0  0  0  0  0  0  0  0
    4.8212   11.1495    0.0000 O   0  0  0  0  0  0  0  0  0  0  0  0
    2.2231    8.1495    0.0000 C   0  0  0  0  0  0  0  0  0  0  0  0
   11.3164    8.8995    0.0000 N   0  0  0  0  0  0  0  0  0  0  0  0
   12.6867    8.2894    0.0000 C   0  0  0  0  0  0  0  0  0  0  0  0
   13.6904    9.4041    0.0000 C   0  0  0  0  0  0  0  0  0  0  0  0
   12.9404   10.7031    0.0000 N   0  0  0  0  0  0  0  0  0  0  0  0
   11.4732   10.3913    0.0000 C   0  0  0  0  0  0  0  0  0  0  0  0
  1  2  1  0  0  0  0
  1  6  2  0  0  0  0
  1 25  1  0  0  0  0
  2  3  1  0  0  0  0
  2 36  2  0  0  0  0
  3  4  1  0  0  0  0
  3 31  1  0  0  0  0
  3 32  1  0  0  0  0
  4  5  1  0  0  0  0
  4  7  1  0  0  0  0
  4 29  1  6  0  0  0
  5  6  1  0  0  0  0
  5 10  1  0  0  0  0
  5 38  1  1  0  0  0
  7  8  1  0  0  0  0
  8  9  1  0  0  0  0
  9 10  1  0  0  0  0
  9 11  1  0  0  0  0
  9 33  1  1  0  0  0
 10 14  2  0  0  0  0
 11 12  1  0  0  0  0
 11 15  1  0  0  0  0
 11 30  1  6  0  0  0
 12 13  1  0  0  0  0
 12 18  1  0  0  0  0
 12 28  1  1  0  0  0
 13 14  1  0  0  0  0
 13 37  2  0  0  0  0
 15 16  1  0  0  0  0
 16 17  1  0  0  0  0
 17 18  1  0  0  0  0
 17 19  1  0  0  0  0
 17 23  1  1  0  0  0
 18 22  1  0  0  0  0
 18 27  1  1  0  0  0
 19 20  1  0  0  0  0
 20 21  1  0  0  0  0
 21 22  1  0  0  0  0
 21 34  1  0  0  0  0
 21 35  1  0  0  0  0
 23 24  2  0  0  0  0
 23 39  1  0  0  0  0
 25 26  3  0  0  0  0
 39 40  1  0  0  0  0
 39 43  1  0  0  0  0
 40 41  2  0  0  0  0
 41 42  1  0  0  0  0
 42 43  2  0  0  0  0
M  END
