156571
 OpenBabel03021519512D

 12 12  0  0  0  0  0  0  0  0999 V2000
    3.5263   -3.2784    0.0000 N   0  0  0  0  0  0  0  0  0  0  0  0
    3.5263   -7.7784    0.0000 O   0  0  0  0  0  0  0  0  0  0  0  0
    4.8253   -4.0284    0.0000 C   0  0  0  0  0  0  0  0  0  0  0  0
    4.8253   -5.5284    0.0000 C   0  0  0  0  0  0  0  0  0  0  0  0
    3.5263   -6.2784    0.0000 C   0  0  0  0  0  0  0  0  0  0  0  0
    2.2272   -5.5284    0.0000 C   0  0  0  0  0  0  0  0  0  0  0  0
    2.2272   -4.0284    0.0000 C   0  0  0  0  0  0  0  0  0  0  0  0
    0.7500   -4.2889    0.0000 C   0  0  0  0  0  0  0  0  0  0  0  0
    1.7142   -2.6188    0.0000 C   0  0  0  0  0  0  0  0  0  0  0  0
    3.5262   -1.7784    0.0000 O   0  0  0  0  0  0  0  0  0  0  0  0
    5.3383   -2.6188    0.0000 C   0  0  0  0  0  0  0  0  0  0  0  0
    6.3025   -4.2888    0.0000 C   0  0  0  0  0  0  0  0  0  0  0  0
  1  3  1  0  0  0  0
  1  7  1  0  0  0  0
  1 10  1  0  0  0  0
  2  5  2  0  0  0  0
  3  4  1  0  0  0  0
  3 11  1  0  0  0  0
  3 12  1  0  0  0  0
  4  5  1  0  0  0  0
  5  6  1  0  0  0  0
  6  7  1  0  0  0  0
  7  8  1  0  0  0  0
  7  9  1  0  0  0  0
M  END
