109086
 OpenBabel03021519512D

 17 19  0  0  0  0  0  0  0  0999 V2000
    0.6382    3.2064    0.0000 N   0  0  0  0  0  0  0  0  0  0  0  0
    0.3829   -1.2864    0.0000 O   0  0  0  0  0  0  0  0  0  0  0  0
    0.7354   -4.2656    0.0000 N   0  0  0  0  0  0  0  0  0  0  0  0
   -1.9556    3.3538    0.0000 C   0  0  0  0  0  0  0  0  0  0  0  0
   -0.7013    2.5313    0.0000 C   0  0  0  0  0  0  0  0  0  0  0  0
   -3.2951    2.6787    0.0000 C   0  0  0  0  0  0  0  0  0  0  0  0
   -0.7864    1.0337    0.0000 C   0  0  0  0  0  0  0  0  0  0  0  0
   -3.3802    1.1811    0.0000 C   0  0  0  0  0  0  0  0  0  0  0  0
    0.4680    0.2112    0.0000 C   0  0  0  0  0  0  0  0  0  0  0  0
    1.8926    2.3839    0.0000 C   0  0  0  0  0  0  0  0  0  0  0  0
    1.8075    0.8863    0.0000 C   0  0  0  0  0  0  0  0  0  0  0  0
   -2.1259    0.3586    0.0000 C   0  0  0  0  0  0  0  0  0  0  0  0
   -0.7542   -4.4418    0.0000 C   0  0  0  0  0  0  0  0  0  0  0  0
    0.1433   -5.6437    0.0000 C   0  0  0  0  0  0  0  0  0  0  0  0
    1.7611   -1.8785    0.0000 C   0  0  0  0  0  0  0  0  0  0  0  0
    1.9374   -3.3681    0.0000 C   0  0  0  0  0  0  0  0  0  0  0  0
    3.2321    3.0590    0.0000 C   0  0  0  0  0  0  0  0  0  0  0  0
  1 10  2  0  0  0  0
  1  5  1  0  0  0  0
  2  9  1  0  0  0  0
  2 15  1  0  0  0  0
  3 13  1  0  0  0  0
  3 14  1  0  0  0  0
  3 16  1  0  0  0  0
  4  6  2  0  0  0  0
  4  5  1  0  0  0  0
  5  7  2  0  0  0  0
  6  8  1  0  0  0  0
  7  9  1  0  0  0  0
  7 12  1  0  0  0  0
  8 12  2  0  0  0  0
  9 11  2  0  0  0  0
 10 11  1  0  0  0  0
 10 17  1  0  0  0  0
 13 14  1  0  0  0  0
 15 16  1  0  0  0  0
M  END
