89759
 OpenBabel03021519512D

 19 20  0  0  0  0  0  0  0  0999 V2000
   10.1178   -1.9755    0.0000 C   0  0  0  0  0  0  0  0  0  0  0  0
   11.4168   -2.7255    0.0000 C   0  0  0  0  0  0  0  0  0  0  0  0
    8.8188   -2.7255    0.0000 C   0  0  0  0  0  0  0  0  0  0  0  0
   11.4168   -4.2255    0.0000 C   0  0  0  0  0  0  0  0  0  0  0  0
    8.8188   -4.2255    0.0000 C   0  0  0  0  0  0  0  0  0  0  0  0
   10.1178   -4.9755    0.0000 C   0  0  0  0  0  0  0  0  0  0  0  0
    6.2207    1.7745    0.0000 C   0  0  0  0  0  0  0  0  0  0  0  0
    4.9216    2.5245    0.0000 C   0  0  0  0  0  0  0  0  0  0  0  0
    6.2207    0.2745    0.0000 C   0  0  0  0  0  0  0  0  0  0  0  0
    4.9216   -0.4755    0.0000 C   0  0  0  0  0  0  0  0  0  0  0  0
    3.6226    1.7745    0.0000 C   0  0  0  0  0  0  0  0  0  0  0  0
    3.6226    0.2745    0.0000 C   0  0  0  0  0  0  0  0  0  0  0  0
    2.3236    2.5245    0.0000 O   0  0  0  0  0  0  0  0  0  0  0  0
    4.9216   -1.9755    0.0000 O   0  0  0  0  0  0  0  0  0  0  0  0
    7.5197   -0.4755    0.0000 C   0  0  0  0  0  0  0  0  0  0  0  0
    8.8187    0.2745    0.0000 O   0  0  0  0  0  0  0  0  0  0  0  0
    7.5197   -1.9755    0.0000 C   0  0  0  0  0  0  0  0  0  0  0  0
   12.7159   -4.9755    0.0000 O   0  0  0  0  0  0  0  0  0  0  0  0
   14.0149   -4.2255    0.0000 C   0  0  0  0  0  0  0  0  0  0  0  0
  1  2  2  0  0  0  0
  1  3  1  0  0  0  0
  2  4  1  0  0  0  0
  3  5  2  0  0  0  0
  3 17  1  0  0  0  0
  4  6  2  0  0  0  0
  4 18  1  0  0  0  0
  5  6  1  0  0  0  0
  7  8  2  0  0  0  0
  7  9  1  0  0  0  0
  8 11  1  0  0  0  0
  9 10  2  0  0  0  0
  9 15  1  0  0  0  0
 10 12  1  0  0  0  0
 10 14  1  0  0  0  0
 11 12  2  0  0  0  0
 11 13  1  0  0  0  0
 15 16  2  0  0  0  0
 15 17  1  0  0  0  0
 18 19  1  0  0  0  0
M  END
