260594
 OpenBabel03021519512D

 38 42  0  0  0  0  0  0  0  0999 V2000
  -22.8337    0.7500    0.0000 N   0  0  0  0  0  0  0  0  0  0  0  0
  -18.9365   -1.5000    0.0000 N   0  0  0  0  0  0  0  0  0  0  0  0
   -7.2452    3.7500    0.0000 N   0  0  0  0  0  0  0  0  0  0  0  0
   -3.3481    1.5000    0.0000 N   0  0  0  0  0  0  0  0  0  0  0  0
  -24.1327   -1.5000    0.0000 C   0  0  0  0  0  0  0  0  0  0  0  0
  -24.1327   -3.0000    0.0000 C   0  0  0  0  0  0  0  0  0  0  0  0
  -22.8337   -0.7500    0.0000 C   0  0  0  0  0  0  0  0  0  0  0  0
  -22.8337   -3.7500    0.0000 C   0  0  0  0  0  0  0  0  0  0  0  0
  -21.5346   -1.5000    0.0000 C   0  0  0  0  0  0  0  0  0  0  0  0
  -21.5346   -3.0000    0.0000 C   0  0  0  0  0  0  0  0  0  0  0  0
  -20.2356   -0.7500    0.0000 C   0  0  0  0  0  0  0  0  0  0  0  0
  -20.2356    0.7500    0.0000 C   0  0  0  0  0  0  0  0  0  0  0  0
  -21.5346    1.5000    0.0000 C   0  0  0  0  0  0  0  0  0  0  0  0
  -16.3385    1.5000    0.0000 C   0  0  0  0  0  0  0  0  0  0  0  0
  -17.6375    0.7500    0.0000 C   0  0  0  0  0  0  0  0  0  0  0  0
  -15.0394    0.7500    0.0000 C   0  0  0  0  0  0  0  0  0  0  0  0
  -17.6375   -0.7500    0.0000 C   0  0  0  0  0  0  0  0  0  0  0  0
  -15.0394   -0.7500    0.0000 C   0  0  0  0  0  0  0  0  0  0  0  0
  -16.3385   -1.5000    0.0000 C   0  0  0  0  0  0  0  0  0  0  0  0
  -11.1423    3.0000    0.0000 C   0  0  0  0  0  0  0  0  0  0  0  0
  -11.1423    1.5000    0.0000 C   0  0  0  0  0  0  0  0  0  0  0  0
   -9.8433    3.7500    0.0000 C   0  0  0  0  0  0  0  0  0  0  0  0
   -9.8433    0.7500    0.0000 C   0  0  0  0  0  0  0  0  0  0  0  0
   -8.5442    3.0000    0.0000 C   0  0  0  0  0  0  0  0  0  0  0  0
   -8.5442    1.5000    0.0000 C   0  0  0  0  0  0  0  0  0  0  0  0
   -4.6471    3.7500    0.0000 C   0  0  0  0  0  0  0  0  0  0  0  0
   -5.9462    3.0000    0.0000 C   0  0  0  0  0  0  0  0  0  0  0  0
   -3.3481    3.0000    0.0000 C   0  0  0  0  0  0  0  0  0  0  0  0
   -5.9462    1.5000    0.0000 C   0  0  0  0  0  0  0  0  0  0  0  0
   -4.6471    0.7500    0.0000 C   0  0  0  0  0  0  0  0  0  0  0  0
  -22.8337   -5.2500    0.0000 N   0  3  0  0  0  0  0  0  0  0  0  0
  -24.1327   -6.0000    0.0000 O   0  5  0  0  0  0  0  0  0  0  0  0
  -21.5346   -6.0000    0.0000 O   0  0  0  0  0  0  0  0  0  0  0  0
  -24.1327    1.5000    0.0000 C   0  0  0  0  0  0  0  0  0  0  0  0
  -13.7404    1.5000    0.0000 C   0  0  0  0  0  0  0  0  0  0  0  0
  -13.7404    3.0000    0.0000 O   0  0  0  0  0  0  0  0  0  0  0  0
  -12.4413    0.7500    0.0000 N   0  0  0  0  0  0  0  0  0  0  0  0
   -2.0490    0.7500    0.0000 C   0  0  0  0  0  0  0  0  0  0  0  0
  1  7  1  0  0  0  0
  1 13  1  0  0  0  0
  1 34  1  0  0  0  0
  2 11  2  0  0  0  0
  2 17  1  0  0  0  0
  3 27  2  0  0  0  0
  3 24  1  0  0  0  0
  4 28  1  0  0  0  0
  4 30  1  0  0  0  0
  4 38  1  0  0  0  0
  5  6  2  0  0  0  0
  5  7  1  0  0  0  0
  6  8  1  0  0  0  0
  7  9  2  0  0  0  0
  8 10  2  0  0  0  0
  8 31  1  0  0  0  0
  9 10  1  0  0  0  0
  9 11  1  0  0  0  0
 11 12  1  0  0  0  0
 12 13  2  0  0  0  0
 14 16  2  0  0  0  0
 14 15  1  0  0  0  0
 15 17  2  0  0  0  0
 16 18  1  0  0  0  0
 16 35  1  0  0  0  0
 17 19  1  0  0  0  0
 18 19  2  0  0  0  0
 20 22  2  0  0  0  0
 20 21  1  0  0  0  0
 21 23  2  0  0  0  0
 21 37  1  0  0  0  0
 22 24  1  0  0  0  0
 23 25  1  0  0  0  0
 24 25  2  0  0  0  0
 26 28  2  0  0  0  0
 26 27  1  0  0  0  0
 27 29  1  0  0  0  0
 29 30  2  0  0  0  0
 31 32  1  0  0  0  0
 31 33  2  0  0  0  0
 35 36  2  0  0  0  0
 35 37  1  0  0  0  0
M  CHG  2  31   1  32  -1
M  END
