1847
 OpenBabel03021519512D

 18 19  0  0  0  0  0  0  0  0999 V2000
   -2.9730   -6.6495    0.0000 N   0  0  0  0  0  0  0  0  0  0  0  0
   -2.9730   -8.1495    0.0000 N   0  0  0  0  0  0  0  0  0  0  0  0
   -0.3750   -8.1495    0.0000 C   0  0  0  0  0  0  0  0  0  0  0  0
   -1.6740   -8.8995    0.0000 C   0  0  0  0  0  0  0  0  0  0  0  0
    0.9241   -8.8995    0.0000 C   0  0  0  0  0  0  0  0  0  0  0  0
    0.9241  -10.3995    0.0000 C   0  0  0  0  0  0  0  0  0  0  0  0
   -1.6740  -10.3995    0.0000 C   0  0  0  0  0  0  0  0  0  0  0  0
   -0.3750  -11.1495    0.0000 C   0  0  0  0  0  0  0  0  0  0  0  0
   -4.2721   -4.3995    0.0000 C   0  0  0  0  0  0  0  0  0  0  0  0
   -5.5711   -3.6495    0.0000 C   0  0  0  0  0  0  0  0  0  0  0  0
   -4.2721   -5.8995    0.0000 C   0  0  0  0  0  0  0  0  0  0  0  0
   -5.5711   -6.6495    0.0000 C   0  0  0  0  0  0  0  0  0  0  0  0
   -6.8702   -4.3995    0.0000 C   0  0  0  0  0  0  0  0  0  0  0  0
   -6.8702   -5.8995    0.0000 C   0  0  0  0  0  0  0  0  0  0  0  0
   -8.1692   -3.6496    0.0000 S   0  0  0  0  0  0  0  0  0  0  0  0
   -7.4192   -2.3505    0.0000 O   0  0  0  0  0  0  0  0  0  0  0  0
   -9.4682   -2.8996    0.0000 O   0  0  0  0  0  0  0  0  0  0  0  0
   -8.9192   -4.9486    0.0000 O   0  0  0  0  0  0  0  0  0  0  0  0
  1 11  1  0  0  0  0
  1  2  2  0  0  0  0
  2  4  1  0  0  0  0
  3  5  2  0  0  0  0
  3  4  1  0  0  0  0
  4  7  2  0  0  0  0
  5  6  1  0  0  0  0
  6  8  2  0  0  0  0
  7  8  1  0  0  0  0
  9 10  2  0  0  0  0
  9 11  1  0  0  0  0
 10 13  1  0  0  0  0
 11 12  2  0  0  0  0
 12 14  1  0  0  0  0
 13 14  2  0  0  0  0
 13 15  1  0  0  0  0
 15 16  2  0  0  0  0
 15 17  2  0  0  0  0
 15 18  1  0  0  0  0
M  END
