367416
 OpenBabel03021519512D

 21 24  0  0  0  0  0  0  0  0999 V2000
    2.0490    0.7500    0.0000 O   0  0  0  0  0  0  0  0  0  0  0  0
    3.3481    3.0000    0.0000 C   0  0  0  0  0  0  0  0  0  0  0  0
    3.3481    1.5000    0.0000 C   0  0  0  0  0  0  0  0  0  0  0  0
    4.6471    3.7500    0.0000 C   0  0  0  0  0  0  0  0  0  0  0  0
    4.6471    0.7500    0.0000 N   0  0  0  0  0  0  0  0  0  0  0  0
    5.9462    3.0000    0.0000 C   0  0  0  0  0  0  0  0  0  0  0  0
    5.9462    1.5000    0.0000 C   0  0  0  0  0  0  0  0  0  0  0  0
    7.2452    3.7500    0.0000 N   0  0  0  0  0  0  0  0  0  0  0  0
    7.2452    0.7500    0.0000 S   0  0  0  0  0  0  0  0  0  0  0  0
    7.2452    5.2500    0.0000 H   0  0  0  0  0  0  0  0  0  0  0  0
    8.5442    1.5000    0.0000 C   0  0  0  0  0  0  0  0  0  0  0  0
    8.5442    3.0000    0.0000 C   0  0  0  0  0  0  0  0  0  0  0  0
    9.8433    0.7500    0.0000 N   0  0  0  0  0  0  0  0  0  0  0  0
    9.8433    3.7500    0.0000 N   0  0  0  0  0  0  0  0  0  0  0  0
   11.1423    3.0000    0.0000 C   0  0  0  0  0  0  0  0  0  0  0  0
   11.1423    1.5000    0.0000 C   0  0  0  0  0  0  0  0  0  0  0  0
   12.4414    0.7500    0.0000 C   0  0  0  0  0  0  0  0  0  0  0  0
   12.4414    3.7500    0.0000 C   0  0  0  0  0  0  0  0  0  0  0  0
   13.7404    3.0000    0.0000 C   0  0  0  0  0  0  0  0  0  0  0  0
   13.7404    1.5000    0.0000 C   0  0  0  0  0  0  0  0  0  0  0  0
    0.7500    1.5000    0.0000 C   0  0  0  0  0  0  0  0  0  0  0  0
  1  3  1  0  0  0  0
  1 21  1  0  0  0  0
  2  4  1  0  0  0  0
  2  3  2  0  0  0  0
  3  5  1  0  0  0  0
  4  6  2  0  0  0  0
  5  7  2  0  0  0  0
  6  8  1  0  0  0  0
  6  7  1  0  0  0  0
  7  9  1  0  0  0  0
  8 10  1  0  0  0  0
  8 12  1  0  0  0  0
  9 11  1  0  0  0  0
 11 12  1  0  0  0  0
 11 13  2  0  0  0  0
 12 14  2  0  0  0  0
 13 16  1  0  0  0  0
 14 15  1  0  0  0  0
 15 18  1  0  0  0  0
 15 16  2  0  0  0  0
 16 17  1  0  0  0  0
 17 20  2  0  0  0  0
 18 19  2  0  0  0  0
 19 20  1  0  0  0  0
M  END
