73254
 OpenBabel03021519512D

 27 30  0  0  0  0  0  0  0  0999 V2000
   -7.4874   -6.3758    0.0000 C   0  0  0  0  0  0  0  0  0  0  0  0
   -6.8773   -7.7461    0.0000 C   0  0  0  0  0  0  0  0  0  0  0  0
   -6.3727   -5.3721    0.0000 N   0  0  0  0  0  0  0  0  0  0  0  0
   -6.5295   -3.8803    0.0000 H   0  0  0  0  0  0  0  0  0  0  0  0
   -5.0736   -6.1221    0.0000 N   0  0  0  0  0  0  0  0  0  0  0  0
   -5.3855   -7.5893    0.0000 C   0  0  0  0  0  0  0  0  0  0  0  0
   -4.3818   -8.7040    0.0000 O   0  0  0  0  0  0  0  0  0  0  0  0
   -3.7033   -5.5120    0.0000 C   0  0  0  0  0  0  0  0  0  0  0  0
   -3.5465   -4.0202    0.0000 C   0  0  0  0  0  0  0  0  0  0  0  0
   -2.4898   -6.3936    0.0000 C   0  0  0  0  0  0  0  0  0  0  0  0
   -2.1762   -3.4101    0.0000 C   0  0  0  0  0  0  0  0  0  0  0  0
   -1.1195   -5.7835    0.0000 C   0  0  0  0  0  0  0  0  0  0  0  0
   -0.9627   -4.2918    0.0000 N   0  0  0  0  0  0  0  0  0  0  0  0
   -9.6148   -9.8895    0.0000 C   0  0  0  0  0  0  0  0  0  0  0  0
   -8.8648   -8.5905    0.0000 C   0  0  0  0  0  0  0  0  0  0  0  0
   -7.3648   -8.5905    0.0000 C   0  0  0  0  0  0  0  0  0  0  0  0
   -6.6148   -9.8895    0.0000 C   0  0  0  0  0  0  0  0  0  0  0  0
   -7.3648  -11.1885    0.0000 C   0  0  0  0  0  0  0  0  0  0  0  0
   -8.8648  -11.1885    0.0000 C   0  0  0  0  0  0  0  0  0  0  0  0
   -8.1148   -9.8895    0.0000 C   0  0  0  0  0  0  0  0  0  0  0  0
   -8.9546   -6.0639    0.0000 C   0  0  0  0  0  0  0  0  0  0  0  0
   -9.9583   -7.1786    0.0000 C   0  0  0  0  0  0  0  0  0  0  0  0
  -11.4255   -6.8667    0.0000 C   0  0  0  0  0  0  0  0  0  0  0  0
  -11.8891   -5.4402    0.0000 C   0  0  0  0  0  0  0  0  0  0  0  0
  -10.8854   -4.3254    0.0000 C   0  0  0  0  0  0  0  0  0  0  0  0
   -9.4181   -4.6373    0.0000 C   0  0  0  0  0  0  0  0  0  0  0  0
    0.4076   -3.6816    0.0000 C   0  0  0  0  0  0  0  0  0  0  0  0
  1  3  1  0  0  0  0
  1  2  2  0  0  0  0
  1 21  1  0  0  0  0
  2  6  1  0  0  0  0
  2 20  1  0  0  0  0
  3  4  1  0  0  0  0
  3  5  1  0  0  0  0
  5  8  1  0  0  0  0
  5  6  1  0  0  0  0
  6  7  2  0  0  0  0
  8  9  1  0  0  0  0
  8 10  1  0  0  0  0
  9 11  1  0  0  0  0
 10 12  1  0  0  0  0
 11 13  1  0  0  0  0
 12 13  1  0  0  0  0
 13 27  1  0  0  0  0
 14 15  2  0  0  0  0
 14 19  1  0  0  0  0
 14 20  1  0  0  0  0
 15 16  1  0  0  0  0
 16 17  2  0  0  0  0
 17 18  1  0  0  0  0
 18 19  2  0  0  0  0
 21 22  2  0  0  0  0
 21 26  1  0  0  0  0
 22 23  1  0  0  0  0
 23 24  2  0  0  0  0
 24 25  1  0  0  0  0
 25 26  2  0  0  0  0
M  END
