62611
 OpenBabel03021519512D

 15 17  0  0  0  0  0  0  0  0999 V2000
   -6.1317   -1.0365    0.0000 S   0  0  0  0  0  0  0  0  0  0  0  0
   -6.1317   -3.4635    0.0000 N   0  0  0  0  0  0  0  0  0  0  0  0
   -3.0000   -0.9510    0.0000 N   0  0  0  0  0  0  0  0  0  0  0  0
   -8.8573   -0.7500    0.0000 C   0  0  0  0  0  0  0  0  0  0  0  0
   -7.5583   -1.5000    0.0000 C   0  0  0  0  0  0  0  0  0  0  0  0
  -10.1563   -1.5000    0.0000 C   0  0  0  0  0  0  0  0  0  0  0  0
   -7.5583   -3.0000    0.0000 C   0  0  0  0  0  0  0  0  0  0  0  0
  -10.1563   -3.0000    0.0000 C   0  0  0  0  0  0  0  0  0  0  0  0
   -8.8573   -3.7500    0.0000 C   0  0  0  0  0  0  0  0  0  0  0  0
   -1.5000   -0.9510    0.0000 C   0  0  0  0  0  0  0  0  0  0  0  0
   -0.7500   -2.2500    0.0000 C   0  0  0  0  0  0  0  0  0  0  0  0
   -1.5000   -3.5490    0.0000 C   0  0  0  0  0  0  0  0  0  0  0  0
   -3.0000   -3.5490    0.0000 C   0  0  0  0  0  0  0  0  0  0  0  0
   -3.7500   -2.2500    0.0000 C   0  0  0  0  0  0  0  0  0  0  0  0
   -5.2500   -2.2500    0.0000 C   0  0  0  0  0  0  0  0  0  0  0  0
  1  5  1  0  0  0  0
  1 15  1  0  0  0  0
  2 15  2  0  0  0  0
  2  7  1  0  0  0  0
  3 14  2  0  0  0  0
  3 10  1  0  0  0  0
  4  6  2  0  0  0  0
  4  5  1  0  0  0  0
  5  7  2  0  0  0  0
  6  8  1  0  0  0  0
  7  9  1  0  0  0  0
  8  9  2  0  0  0  0
 10 11  2  0  0  0  0
 11 12  1  0  0  0  0
 12 13  2  0  0  0  0
 13 14  1  0  0  0  0
 14 15  1  0  0  0  0
M  END
