369070
 OpenBabel03021519512D

 22 24  0  0  0  0  0  0  0  0999 V2000
   -8.7183   -7.3995    0.0000 C   0  0  0  0  0  0  0  0  0  0  0  0
   -8.7183   -8.8996    0.0000 C   0  0  0  0  0  0  0  0  0  0  0  0
   -7.4192   -6.6495    0.0000 C   0  0  0  0  0  0  0  0  0  0  0  0
   -7.4192   -9.6496    0.0000 C   0  0  0  0  0  0  0  0  0  0  0  0
   -6.1202   -7.3995    0.0000 C   0  0  0  0  0  0  0  0  0  0  0  0
   -6.1202   -8.8995    0.0000 C   0  0  0  0  0  0  0  0  0  0  0  0
   -4.8211   -6.6495    0.0000 N   0  0  0  0  0  0  0  0  0  0  0  0
   -4.8211   -9.6495    0.0000 S   0  0  0  0  0  0  0  0  0  0  0  0
   -4.8211   -5.1495    0.0000 H   0  0  0  0  0  0  0  0  0  0  0  0
   -3.5221   -7.3995    0.0000 C   0  0  0  0  0  0  0  0  0  0  0  0
   -3.5221   -8.8995    0.0000 C   0  0  0  0  0  0  0  0  0  0  0  0
   -2.2231   -6.6495    0.0000 C   0  0  0  0  0  0  0  0  0  0  0  0
   -2.2230   -9.6495    0.0000 N   0  0  0  0  0  0  0  0  0  0  0  0
   -0.9240   -7.3995    0.0000 C   0  0  0  0  0  0  0  0  0  0  0  0
   -2.2231   -5.1495    0.0000 C   0  0  0  0  0  0  0  0  0  0  0  0
   -0.9240   -8.8995    0.0000 O   0  0  0  0  0  0  0  0  0  0  0  0
    0.3750   -6.6495    0.0000 C   0  0  0  0  0  0  0  0  0  0  0  0
   -0.9240   -4.3995    0.0000 C   0  0  0  0  0  0  0  0  0  0  0  0
    0.3750   -5.1495    0.0000 C   0  0  0  0  0  0  0  0  0  0  0  0
   -0.9240   -2.8995    0.0000 N   0  3  0  0  0  0  0  0  0  0  0  0
    0.3750   -2.1495    0.0000 O   0  5  0  0  0  0  0  0  0  0  0  0
   -2.2231   -2.1495    0.0000 O   0  0  0  0  0  0  0  0  0  0  0  0
  1  3  2  0  0  0  0
  1  2  1  0  0  0  0
  2  4  2  0  0  0  0
  3  5  1  0  0  0  0
  4  6  1  0  0  0  0
  5  7  1  0  0  0  0
  5  6  2  0  0  0  0
  6  8  1  0  0  0  0
  7  9  1  0  0  0  0
  7 10  1  0  0  0  0
  8 11  1  0  0  0  0
 10 12  1  0  0  0  0
 10 11  2  0  0  0  0
 11 13  1  0  0  0  0
 12 15  2  0  0  0  0
 12 14  1  0  0  0  0
 13 16  2  0  0  0  0
 14 17  2  0  0  0  0
 15 18  1  0  0  0  0
 17 19  1  0  0  0  0
 18 19  2  0  0  0  0
 18 20  1  0  0  0  0
 20 21  1  0  0  0  0
 20 22  2  0  0  0  0
M  CHG  2  20   1  21  -1
M  END
