638134
 OpenBabel03021519512D

 15 15  0  0  0  0  0  0  0  0999 V2000
    0.7500    2.2500    0.0000 C   0  0  0  0  0  0  0  0  0  0  0  0
    0.7500    3.7500    0.0000 C   0  0  0  0  0  0  0  0  0  0  0  0
    2.0490    4.5000    0.0000 C   0  0  0  0  0  0  0  0  0  0  0  0
    3.3481    3.7500    0.0000 C   0  0  0  0  0  0  0  0  0  0  0  0
    3.3481    2.2500    0.0000 C   0  0  0  0  0  0  0  0  0  0  0  0
    2.0490    1.5000    0.0000 C   0  0  0  0  0  0  0  0  0  0  0  0
    4.6471    4.5000    0.0000 C   0  0  0  0  0  0  0  0  0  0  0  0
    5.9462    3.7500    0.0000 C   0  0  0  0  0  0  0  0  0  0  0  0
    7.2452    4.5000    0.0000 C   0  0  0  0  0  0  0  0  0  0  0  0
    7.2452    6.0000    0.0000 O   0  0  0  0  0  0  0  0  0  0  0  0
    8.5442    3.7500    0.0000 O   0  0  0  0  0  0  0  0  0  0  0  0
    5.9462    2.2500    0.0000 C   0  0  0  0  0  0  0  0  0  0  0  0
    5.9462    0.7500    0.0000 N   0  0  0  0  0  0  0  0  0  0  0  0
    2.0490    6.0000    0.0000 O   0  0  0  0  0  0  0  0  0  0  0  0
    3.3481    6.7500    0.0000 C   0  0  0  0  0  0  0  0  0  0  0  0
  1  2  1  0  0  0  0
  1  6  2  0  0  0  0
  2  3  2  0  0  0  0
  3  4  1  0  0  0  0
  3 14  1  0  0  0  0
  4  5  2  0  0  0  0
  4  7  1  0  0  0  0
  5  6  1  0  0  0  0
  7  8  2  0  0  0  0
  8  9  1  0  0  0  0
  8 12  1  0  0  0  0
  9 10  2  0  0  0  0
  9 11  1  0  0  0  0
 12 13  3  0  0  0  0
 14 15  1  0  0  0  0
M  END
