51787
 OpenBabel03021519512D

 11 12  0  0  0  0  0  0  0  0999 V2000
   -1.3095   -1.5000    0.0000 N   0  0  0  0  0  0  0  0  0  0  0  0
   -2.6085   -0.7500    0.0000 C   0  0  0  0  0  0  0  0  0  0  0  0
   -3.9075   -1.5000    0.0000 C   0  0  0  0  0  0  0  0  0  0  0  0
   -5.2066   -0.7500    0.0000 C   0  0  0  0  0  0  0  0  0  0  0  0
   -6.5056   -1.5000    0.0000 C   0  0  0  0  0  0  0  0  0  0  0  0
   -3.9075   -3.0000    0.0000 C   0  0  0  0  0  0  0  0  0  0  0  0
   -6.5056   -3.0000    0.0000 C   0  0  0  0  0  0  0  0  0  0  0  0
   -2.6085   -3.7500    0.0000 C   0  0  0  0  0  0  0  0  0  0  0  0
   -1.3095   -3.0000    0.0000 C   0  0  0  0  0  0  0  0  0  0  0  0
   -5.2066   -3.7500    0.0000 C   0  0  0  0  0  0  0  0  0  0  0  0
   -5.2066   -5.2500    0.0000 O   0  0  0  0  0  0  0  0  0  0  0  0
  1  2  2  0  0  0  0
  1  9  1  0  0  0  0
  2  3  1  0  0  0  0
  3  6  2  0  0  0  0
  3  4  1  0  0  0  0
  4  5  2  0  0  0  0
  5  7  1  0  0  0  0
  6  8  1  0  0  0  0
  6 10  1  0  0  0  0
  7 10  2  0  0  0  0
  8  9  2  0  0  0  0
 10 11  1  0  0  0  0
M  END
