87136
 OpenBabel03021519512D

 23 25  0  0  1  0  0  0  0  0999 V2000
    2.3236   -1.0245    0.0000 O   0  0  0  0  0  0  0  0  0  0  0  0
    4.9217   -5.5245    0.0000 N   0  0  0  0  0  0  0  0  0  0  0  0
    7.5197   -7.0245    0.0000 N   0  0  0  0  0  0  0  0  0  0  0  0
   10.1178   -7.0245    0.0000 C   0  0  0  0  0  0  0  0  0  0  0  0
   11.4169   -7.7745    0.0000 C   0  0  0  0  0  0  0  0  0  0  0  0
    8.8188   -7.7745    0.0000 C   0  0  0  0  0  0  0  0  0  0  0  0
   11.4169   -9.2745    0.0000 C   0  0  0  0  0  0  0  0  0  0  0  0
    8.8188   -9.2745    0.0000 C   0  0  0  0  0  0  0  0  0  0  0  0
   10.1178  -10.0245    0.0000 C   0  0  0  0  0  0  0  0  0  0  0  0
    7.5197   -5.5245    0.0000 C   0  0  0  0  0  0  0  0  0  0  0  0
    6.2207   -4.7745    0.0000 C   0  0  0  0  0  0  0  0  0  0  0  0
    6.2207   -7.7745    0.0000 C   0  0  0  0  0  0  0  0  0  0  0  0
    4.9217   -7.0245    0.0000 C   0  0  0  0  0  0  0  0  0  0  0  0
    4.9216   -1.0245    0.0000 C   0  0  0  0  0  0  0  0  0  0  0  0
    6.2207   -0.2745    0.0000 C   0  0  0  0  0  0  0  0  0  0  0  0
    3.6226   -0.2745    0.0000 C   0  0  0  0  0  0  0  0  0  0  0  0
    3.6226    1.2255    0.0000 C   0  0  0  0  0  0  0  0  0  0  0  0
    6.2207    1.2255    0.0000 C   0  0  0  0  0  0  0  0  0  0  0  0
    4.9216    1.9755    0.0000 C   0  0  0  0  0  0  0  0  0  0  0  0
    2.3236   -2.5245    0.0000 C   0  0  0  0  0  0  0  0  0  0  0  0
    3.6226   -3.2745    0.0000 C   0  0  3  0  0  0  0  0  0  0  0  0
    4.9216   -2.5245    0.0000 O   0  0  0  0  0  0  0  0  0  0  0  0
    3.6226   -4.7745    0.0000 C   0  0  0  0  0  0  0  0  0  0  0  0
  1 16  1  0  0  0  0
  1 20  1  0  0  0  0
  2 11  1  0  0  0  0
  2 13  1  0  0  0  0
  2 23  1  0  0  0  0
  3  6  1  0  0  0  0
  3 10  1  0  0  0  0
  3 12  1  0  0  0  0
  4  5  2  0  0  0  0
  4  6  1  0  0  0  0
  5  7  1  0  0  0  0
  6  8  2  0  0  0  0
  7  9  2  0  0  0  0
  8  9  1  0  0  0  0
 10 11  1  0  0  0  0
 12 13  1  0  0  0  0
 14 15  2  0  0  0  0
 14 16  1  0  0  0  0
 15 18  1  0  0  0  0
 16 17  2  0  0  0  0
 17 19  1  0  0  0  0
 18 19  2  0  0  0  0
 20 21  1  0  0  0  0
 21 22  1  0  0  0  0
 21 23  1  0  0  0  0
M  END
