135894
 OpenBabel03021519512D

 15 15  0  0  1  0  0  0  0  0999 V2000
   -4.6471   -0.7500    0.0000 C   0  0  0  0  0  0  0  0  0  0  0  0
   -3.3481   -1.5000    0.0000 C   0  0  0  0  0  0  0  0  0  0  0  0
   -5.9462   -1.5000    0.0000 C   0  0  0  0  0  0  0  0  0  0  0  0
   -3.3481   -3.0000    0.0000 C   0  0  0  0  0  0  0  0  0  0  0  0
   -5.9462   -3.0000    0.0000 C   0  0  3  0  0  0  0  0  0  0  0  0
   -4.6471   -3.7500    0.0000 C   0  0  0  0  0  0  0  0  0  0  0  0
   -8.3836   -2.5702    0.0000 C   0  0  0  0  0  0  0  0  0  0  0  0
   -8.1231   -1.0930    0.0000 Cl  0  0  0  0  0  0  0  0  0  0  0  0
   -9.8608   -2.3098    0.0000 Cl  0  0  0  0  0  0  0  0  0  0  0  0
   -8.6440   -4.0474    0.0000 Cl  0  0  0  0  0  0  0  0  0  0  0  0
   -7.2452   -0.7500    0.0000 C   0  0  0  0  0  0  0  0  0  0  0  0
   -6.4592   -4.4095    0.0000 C   0  0  0  0  0  0  0  0  0  0  0  0
   -2.0490   -0.7500    0.0000 N   0  0  0  0  0  0  0  0  0  0  0  0
   -0.7500   -1.5000    0.0000 O   0  0  0  0  0  0  0  0  0  0  0  0
   -2.0490   -3.7500    0.0000 C   0  0  0  0  0  0  0  0  0  0  0  0
  1  3  2  0  0  0  0
  1  2  1  0  0  0  0
  2  4  1  0  0  0  0
  2 13  2  0  0  0  0
  3  5  1  0  0  0  0
  3 11  1  0  0  0  0
  4  6  2  0  0  0  0
  4 15  1  0  0  0  0
  5  6  1  0  0  0  0
  5  7  1  0  0  0  0
  5 12  1  0  0  0  0
  7  8  1  0  0  0  0
  7  9  1  0  0  0  0
  7 10  1  0  0  0  0
 13 14  1  0  0  0  0
M  END
