71795
 OpenBabel03021519512D

 20 23  0  0  0  0  0  0  0  0999 V2000
  -10.3563   -4.5000    0.0000 N   0  0  0  0  0  0  0  0  0  0  0  0
   -3.7336   -2.5365    0.0000 N   0  0  0  0  0  0  0  0  0  0  0  0
   -3.2700   -1.1099    0.0000 H   0  0  0  0  0  0  0  0  0  0  0  0
   -6.4592   -2.2500    0.0000 C   0  0  0  0  0  0  0  0  0  0  0  0
   -5.1602   -3.0000    0.0000 C   0  0  0  0  0  0  0  0  0  0  0  0
   -7.7582   -3.0000    0.0000 C   0  0  0  0  0  0  0  0  0  0  0  0
   -9.0573   -2.2500    0.0000 C   0  0  0  0  0  0  0  0  0  0  0  0
  -10.3563   -3.0000    0.0000 C   0  0  0  0  0  0  0  0  0  0  0  0
   -5.1602   -4.5000    0.0000 C   0  0  0  0  0  0  0  0  0  0  0  0
   -7.7582   -4.5000    0.0000 C   0  0  0  0  0  0  0  0  0  0  0  0
   -3.7336   -4.9635    0.0000 C   0  0  0  0  0  0  0  0  0  0  0  0
   -1.3601   -3.9068    0.0000 C   0  0  0  0  0  0  0  0  0  0  0  0
   -0.7500   -5.2771    0.0000 C   0  0  0  0  0  0  0  0  0  0  0  0
   -2.8519   -3.7500    0.0000 C   0  0  0  0  0  0  0  0  0  0  0  0
   -1.6317   -6.4906    0.0000 C   0  0  0  0  0  0  0  0  0  0  0  0
   -3.1235   -6.3339    0.0000 C   0  0  0  0  0  0  0  0  0  0  0  0
   -6.4592   -5.2500    0.0000 C   0  0  0  0  0  0  0  0  0  0  0  0
   -9.0573   -5.2500    0.0000 C   0  0  0  0  0  0  0  0  0  0  0  0
   -6.4592   -0.7500    0.0000 C   0  0  0  0  0  0  0  0  0  0  0  0
   -6.4592   -6.7500    0.0000 C   0  0  0  0  0  0  0  0  0  0  0  0
  1 18  2  0  0  0  0
  1  8  1  0  0  0  0
  2  5  1  0  0  0  0
  2 14  1  0  0  0  0
  2  3  1  0  0  0  0
  4  6  2  0  0  0  0
  4  5  1  0  0  0  0
  4 19  1  0  0  0  0
  5  9  2  0  0  0  0
  6  7  1  0  0  0  0
  6 10  1  0  0  0  0
  7  8  2  0  0  0  0
  9 11  1  0  0  0  0
  9 17  1  0  0  0  0
 10 17  2  0  0  0  0
 10 18  1  0  0  0  0
 11 14  2  0  0  0  0
 11 16  1  0  0  0  0
 12 13  2  0  0  0  0
 12 14  1  0  0  0  0
 13 15  1  0  0  0  0
 15 16  2  0  0  0  0
 17 20  1  0  0  0  0
M  END
