202705
 OpenBabel03021519512D

 20 22  0  0  0  0  0  0  0  0999 V2000
    2.0491   -9.0000    0.0000 Cl  0  0  0  0  0  0  0  0  0  0  0  0
    9.6269   -2.3795    0.0000 N   0  0  0  0  0  0  0  0  0  0  0  0
    9.2640   -3.8350    0.0000 S   0  0  0  0  0  0  0  0  0  0  0  0
    7.7677   -3.9396    0.0000 N   0  0  0  0  0  0  0  0  0  0  0  0
    8.0943   -0.1074    0.0000 C   0  0  0  0  0  0  0  0  0  0  0  0
    8.3548   -1.5846    0.0000 C   0  0  0  0  0  0  0  0  0  0  0  0
    6.6848    0.4056    0.0000 C   0  0  0  0  0  0  0  0  0  0  0  0
    7.2057   -2.5488    0.0000 C   0  0  0  0  0  0  0  0  0  0  0  0
    5.5357   -0.5586    0.0000 C   0  0  0  0  0  0  0  0  0  0  0  0
    5.7962   -2.0358    0.0000 C   0  0  0  0  0  0  0  0  0  0  0  0
    2.0491   -4.5000    0.0000 C   0  0  0  0  0  0  0  0  0  0  0  0
    0.7500   -5.2500    0.0000 C   0  0  0  0  0  0  0  0  0  0  0  0
    3.3481   -5.2500    0.0000 C   0  0  0  0  0  0  0  0  0  0  0  0
    3.3481   -6.7500    0.0000 C   0  0  0  0  0  0  0  0  0  0  0  0
    0.7500   -6.7500    0.0000 C   0  0  0  0  0  0  0  0  0  0  0  0
    2.0491   -7.5000    0.0000 C   0  0  0  0  0  0  0  0  0  0  0  0
    4.6471   -3.0000    0.0000 N   0  0  0  0  0  0  0  0  0  0  0  0
    3.3481   -2.2500    0.0000 C   0  0  0  0  0  0  0  0  0  0  0  0
    3.3481   -0.7500    0.0000 O   0  0  0  0  0  0  0  0  0  0  0  0
    2.0491   -3.0000    0.0000 N   0  0  0  0  0  0  0  0  0  0  0  0
  1 16  1  0  0  0  0
  2  3  1  0  0  0  0
  2  6  2  0  0  0  0
  3  4  1  0  0  0  0
  4  8  2  0  0  0  0
  5  7  2  0  0  0  0
  5  6  1  0  0  0  0
  6  8  1  0  0  0  0
  7  9  1  0  0  0  0
  8 10  1  0  0  0  0
  9 10  2  0  0  0  0
 10 17  1  0  0  0  0
 11 13  2  0  0  0  0
 11 12  1  0  0  0  0
 11 20  1  0  0  0  0
 12 15  2  0  0  0  0
 13 14  1  0  0  0  0
 14 16  2  0  0  0  0
 15 16  1  0  0  0  0
 17 18  1  0  0  0  0
 18 19  2  0  0  0  0
 18 20  1  0  0  0  0
M  END
