106506
 OpenBabel03021519512D

 18 20  0  0  0  0  0  0  0  0999 V2000
   -8.3686   -2.5456    0.0000 H   0  0  0  0  0  0  0  0  0  0  0  0
   -7.9051   -3.9722    0.0000 N   0  0  0  0  0  0  0  0  0  0  0  0
   -5.1795   -3.6857    0.0000 C   0  0  0  0  0  0  0  0  0  0  0  0
   -3.8805   -4.4357    0.0000 C   0  0  0  0  0  0  0  0  0  0  0  0
   -6.4785   -4.4357    0.0000 C   0  0  0  0  0  0  0  0  0  0  0  0
   -3.8804   -5.9357    0.0000 C   0  0  0  0  0  0  0  0  0  0  0  0
   -6.4785   -5.9357    0.0000 C   0  0  0  0  0  0  0  0  0  0  0  0
   -5.1795   -6.6857    0.0000 C   0  0  0  0  0  0  0  0  0  0  0  0
   -7.9051   -6.3992    0.0000 C   0  0  0  0  0  0  0  0  0  0  0  0
  -10.2786   -5.3425    0.0000 C   0  0  0  0  0  0  0  0  0  0  0  0
  -10.8887   -6.7128    0.0000 C   0  0  0  0  0  0  0  0  0  0  0  0
   -8.7868   -5.1857    0.0000 C   0  0  0  0  0  0  0  0  0  0  0  0
  -10.0070   -7.9263    0.0000 C   0  0  0  0  0  0  0  0  0  0  0  0
   -8.5152   -7.7695    0.0000 C   0  0  0  0  0  0  0  0  0  0  0  0
   -2.5814   -3.6857    0.0000 C   0  0  0  0  0  0  0  0  0  0  0  0
   -1.2824   -4.4357    0.0000 C   0  0  0  0  0  0  0  0  0  0  0  0
    0.0167   -3.6857    0.0000 O   0  0  0  0  0  0  0  0  0  0  0  0
   -1.2824   -5.9357    0.0000 N   0  0  0  0  0  0  0  0  0  0  0  0
  1  2  1  0  0  0  0
  2  5  1  0  0  0  0
  2 12  1  0  0  0  0
  3  4  2  0  0  0  0
  3  5  1  0  0  0  0
  4  6  1  0  0  0  0
  4 15  1  0  0  0  0
  5  7  2  0  0  0  0
  6  8  2  0  0  0  0
  7  8  1  0  0  0  0
  7  9  1  0  0  0  0
  9 12  2  0  0  0  0
  9 14  1  0  0  0  0
 10 11  2  0  0  0  0
 10 12  1  0  0  0  0
 11 13  1  0  0  0  0
 13 14  2  0  0  0  0
 15 16  1  0  0  0  0
 16 17  2  0  0  0  0
 16 18  1  0  0  0  0
M  END
