21725
 OpenBabel03021519512D

 21 24  0  0  1  0  0  0  0  0999 V2000
    3.3481    5.0490    0.0000 H   0  0  0  0  0  0  0  0  0  0  0  0
    3.3481    2.0490    0.0000 N   0  0  3  0  0  0  0  0  0  0  0  0
    3.8971    5.5981    0.0000 H   0  0  0  0  0  0  0  0  0  0  0  0
    6.6962    0.7500    0.0000 H   0  0  0  0  0  0  0  0  0  0  0  0
    7.2452    4.2990    0.0000 N   0  0  0  0  0  0  0  0  0  0  0  0
    8.5442    6.5490    0.0000 O   0  0  0  0  0  0  0  0  0  0  0  0
    4.6471    4.2990    0.0000 C   0  0  2  0  0  0  0  0  0  0  0  0
    5.9462    5.0490    0.0000 C   0  0  0  0  0  0  0  0  0  0  0  0
    3.3481    3.5490    0.0000 C   0  0  2  0  0  0  0  0  0  0  0  0
    2.0490    4.2990    0.0000 C   0  0  0  0  0  0  0  0  0  0  0  0
    0.7500    3.5490    0.0000 C   0  0  0  0  0  0  0  0  0  0  0  0
    0.7500    2.0490    0.0000 C   0  0  0  0  0  0  0  0  0  0  0  0
    2.0490    1.2990    0.0000 C   0  0  0  0  0  0  0  0  0  0  0  0
    8.5442    5.0490    0.0000 C   0  0  0  0  0  0  0  0  0  0  0  0
    9.8433    4.2990    0.0000 C   0  0  0  0  0  0  0  0  0  0  0  0
    9.8433    2.7990    0.0000 C   0  0  0  0  0  0  0  0  0  0  0  0
    8.5442    2.0490    0.0000 C   0  0  0  0  0  0  0  0  0  0  0  0
    7.2452    2.7990    0.0000 C   0  0  0  0  0  0  0  0  0  0  0  0
    5.9462    2.0490    0.0000 C   0  0  1  0  0  0  0  0  0  0  0  0
    4.6471    1.2990    0.0000 C   0  0  0  0  0  0  0  0  0  0  0  0
    4.6471    2.7990    0.0000 C   0  0  0  0  0  0  0  0  0  0  0  0
  2  9  1  0  0  0  0
  2 13  1  0  0  0  0
  2 20  1  0  0  0  0
  5  8  1  0  0  0  0
  5 14  1  0  0  0  0
  5 18  1  0  0  0  0
  6 14  2  0  0  0  0
  7  3  1  6  0  0  0
  7 21  1  0  0  0  0
  7  8  1  0  0  0  0
  7  9  1  0  0  0  0
  9  1  1  6  0  0  0
  9 10  1  0  0  0  0
 10 11  1  0  0  0  0
 11 12  1  0  0  0  0
 12 13  1  0  0  0  0
 14 15  1  0  0  0  0
 15 16  2  0  0  0  0
 16 17  1  0  0  0  0
 17 18  2  0  0  0  0
 18 19  1  0  0  0  0
 19  4  1  6  0  0  0
 19 21  1  0  0  0  0
 19 20  1  0  0  0  0
M  END
