78623
 OpenBabel03021519512D

 21 22  0  0  1  0  0  0  0  0999 V2000
   -6.5856   -2.9284    0.0000 O   0  0  0  0  0  0  0  0  0  0  0  0
   -5.3720   -5.3101    0.0000 N   0  0  0  0  0  0  0  0  0  0  0  0
   -4.9539   -7.9502    0.0000 O   0  0  0  0  0  0  0  0  0  0  0  0
   -6.5856   -4.4284    0.0000 C   0  0  0  0  0  0  0  0  0  0  0  0
   -7.7991   -5.3101    0.0000 C   0  0  0  0  0  0  0  0  0  0  0  0
   -9.2663   -4.9982    0.0000 C   0  0  0  0  0  0  0  0  0  0  0  0
  -10.2700   -6.1129    0.0000 C   0  0  0  0  0  0  0  0  0  0  0  0
   -7.3356   -6.7366    0.0000 C   0  0  0  0  0  0  0  0  0  0  0  0
   -9.8065   -7.5395    0.0000 C   0  0  0  0  0  0  0  0  0  0  0  0
   -8.3392   -7.8514    0.0000 C   0  0  0  0  0  0  0  0  0  0  0  0
   -5.8356   -6.7366    0.0000 C   0  0  0  0  0  0  0  0  0  0  0  0
  -10.8102   -8.6542    0.0000 O   0  0  0  0  0  0  0  0  0  0  0  0
   -3.9454   -4.8465    0.0000 C   0  0  3  0  0  0  0  0  0  0  0  0
   -2.8307   -5.8502    0.0000 C   0  0  0  0  0  0  0  0  0  0  0  0
   -1.4041   -5.3867    0.0000 O   0  0  0  0  0  0  0  0  0  0  0  0
   -3.1426   -7.3174    0.0000 O   0  0  0  0  0  0  0  0  0  0  0  0
   -3.6336   -3.3793    0.0000 C   0  0  0  0  0  0  0  0  0  0  0  0
   -2.1482   -3.1705    0.0000 C   0  0  0  0  0  0  0  0  0  0  0  0
   -1.5863   -1.7798    0.0000 C   0  0  0  0  0  0  0  0  0  0  0  0
   -2.5098   -0.5977    0.0000 O   0  0  0  0  0  0  0  0  0  0  0  0
   -0.1009   -1.5710    0.0000 N   0  0  0  0  0  0  0  0  0  0  0  0
  1  4  2  0  0  0  0
  2  4  1  0  0  0  0
  2 11  1  0  0  0  0
  2 13  1  0  0  0  0
  3 11  2  0  0  0  0
  4  5  1  0  0  0  0
  5  8  2  0  0  0  0
  5  6  1  0  0  0  0
  6  7  2  0  0  0  0
  7  9  1  0  0  0  0
  8 10  1  0  0  0  0
  8 11  1  0  0  0  0
  9 10  2  0  0  0  0
  9 12  1  0  0  0  0
 13 14  1  0  0  0  0
 13 17  1  0  0  0  0
 14 15  2  0  0  0  0
 14 16  1  0  0  0  0
 17 18  1  0  0  0  0
 18 19  1  0  0  0  0
 19 20  2  0  0  0  0
 19 21  1  0  0  0  0
M  END
