333544
 OpenBabel03021519512D

 24 25  0  0  0  0  0  0  0  0999 V2000
   -9.5841    0.8111    0.0000 N   0  0  0  0  0  0  0  0  0  0  0  0
   -8.0841   -0.6889    0.0000 O   0  0  0  0  0  0  0  0  0  0  0  0
   -8.0841    2.3111    0.0000 O   0  0  0  0  0  0  0  0  0  0  0  0
   -8.0841    0.8111    0.0000 S   0  0  0  0  0  0  0  0  0  0  0  0
   -6.5841    0.8111    0.0000 C   0  0  0  0  0  0  0  0  0  0  0  0
   -5.7024    2.0247    0.0000 N   0  0  0  0  0  0  0  0  0  0  0  0
   -5.7024   -0.4024    0.0000 N   0  0  0  0  0  0  0  0  0  0  0  0
   -6.1660   -1.8290    0.0000 H   0  0  0  0  0  0  0  0  0  0  0  0
   -4.2759    1.5611    0.0000 N   0  0  0  0  0  0  0  0  0  0  0  0
   -4.2759    0.0611    0.0000 C   0  0  0  0  0  0  0  0  0  0  0  0
   -9.3699    3.2592    0.0000 C   0  0  0  0  0  0  0  0  0  0  0  0
  -10.8472    3.5197    0.0000 C   0  0  0  0  0  0  0  0  0  0  0  0
  -11.8113    2.3706    0.0000 C   0  0  0  0  0  0  0  0  0  0  0  0
  -11.2983    0.9611    0.0000 C   0  0  0  0  0  0  0  0  0  0  0  0
   -9.8211    0.7006    0.0000 C   0  0  0  0  0  0  0  0  0  0  0  0
   -8.8569    1.8497    0.0000 C   0  0  0  0  0  0  0  0  0  0  0  0
  -10.3341    2.1102    0.0000 C   0  0  0  0  0  0  0  0  0  0  0  0
  -10.3341   -0.4879    0.0000 C   0  0  0  0  0  0  0  0  0  0  0  0
  -11.8341   -0.4879    0.0000 C   0  0  0  0  0  0  0  0  0  0  0  0
   -9.5841   -1.7869    0.0000 C   0  0  0  0  0  0  0  0  0  0  0  0
   -3.0623   -0.8205    0.0000 C   0  0  0  0  0  0  0  0  0  0  0  0
   -3.9440   -2.0341    0.0000 C   0  0  0  0  0  0  0  0  0  0  0  0
   -2.1807    0.3930    0.0000 C   0  0  0  0  0  0  0  0  0  0  0  0
   -1.8488   -1.7022    0.0000 C   0  0  0  0  0  0  0  0  0  0  0  0
  1  4  1  0  0  0  0
  1 17  1  0  0  0  0
  1 18  1  0  0  0  0
  2  4  2  0  0  0  0
  3  4  2  0  0  0  0
  4  5  1  0  0  0  0
  5  6  2  0  0  0  0
  5  7  1  0  0  0  0
  6  9  1  0  0  0  0
  7 10  1  0  0  0  0
  7  8  1  0  0  0  0
  9 10  2  0  0  0  0
 10 21  1  0  0  0  0
 11 12  2  0  0  0  0
 11 16  1  0  0  0  0
 11 17  1  0  0  0  0
 12 13  1  0  0  0  0
 13 14  2  0  0  0  0
 14 15  1  0  0  0  0
 15 16  2  0  0  0  0
 18 19  1  0  0  0  0
 18 20  1  0  0  0  0
 21 22  1  0  0  0  0
 21 23  1  0  0  0  0
 21 24  1  0  0  0  0
M  END
