123797
 OpenBabel03021519512D

 11 11  0  0  0  0  0  0  0  0999 V2000
    4.0173    2.5336    0.0000 N   0  0  0  0  0  0  0  0  0  0  0  0
    4.4809    3.9602    0.0000 N   0  0  0  0  0  0  0  0  0  0  0  0
    3.2673    4.8418    0.0000 C   0  0  0  0  0  0  0  0  0  0  0  0
    2.0538    3.9602    0.0000 C   0  0  0  0  0  0  0  0  0  0  0  0
    2.5173    2.5336    0.0000 C   0  0  0  0  0  0  0  0  0  0  0  0
    0.6272    4.4237    0.0000 C   0  0  0  0  0  0  0  0  0  0  0  0
   -0.7994    4.8872    0.0000 N   0  0  0  0  0  0  0  0  0  0  0  0
    1.6357    1.3201    0.0000 N   0  0  0  0  0  0  0  0  0  0  0  0
    5.9074    4.4237    0.0000 C   0  0  0  0  0  0  0  0  0  0  0  0
    7.0222    3.4200    0.0000 C   0  0  0  0  0  0  0  0  0  0  0  0
    6.2193    5.8909    0.0000 C   0  0  0  0  0  0  0  0  0  0  0  0
  1  2  1  0  0  0  0
  1  5  2  0  0  0  0
  2  3  1  0  0  0  0
  2  9  1  0  0  0  0
  3  4  2  0  0  0  0
  4  5  1  0  0  0  0
  4  6  1  0  0  0  0
  5  8  1  0  0  0  0
  6  7  3  0  0  0  0
  9 10  1  0  0  0  0
  9 11  1  0  0  0  0
M  END
