350187
 OpenBabel03021519512D

 25 27  0  0  0  0  0  0  0  0999 V2000
    3.5196    2.2981    0.0000 C   0  0  0  0  0  0  0  0  0  0  0  0
    3.5196    0.7981    0.0000 C   0  0  0  0  0  0  0  0  0  0  0  0
    4.8187    3.0481    0.0000 C   0  0  0  0  0  0  0  0  0  0  0  0
    4.8187    0.0481    0.0000 O   0  0  0  0  0  0  0  0  0  0  0  0
    6.1177    2.2981    0.0000 O   0  0  0  0  0  0  0  0  0  0  0  0
    6.1177    0.7981    0.0000 P   0  0  0  0  0  0  0  0  0  0  0  0
    7.4167    1.5481    0.0000 S   0  0  0  0  0  0  0  0  0  0  0  0
    6.8677   -0.5010    0.0000 O   0  0  0  0  0  0  0  0  0  0  0  0
    8.3677   -0.5010    0.0000 C   0  0  0  0  0  0  0  0  0  0  0  0
    8.3677   -3.0990    0.0000 O   0  0  0  0  0  0  0  0  0  0  0  0
    9.1177    0.7981    0.0000 C   0  0  0  0  0  0  0  0  0  0  0  0
    9.1177   -1.8000    0.0000 C   0  0  0  0  0  0  0  0  0  0  0  0
   10.6177    0.7981    0.0000 N   0  0  0  0  0  0  0  0  0  0  0  0
   10.6177   -1.8000    0.0000 C   0  0  0  0  0  0  0  0  0  0  0  0
   11.3677   -3.0990    0.0000 O   0  0  0  0  0  0  0  0  0  0  0  0
   11.3677   -0.5010    0.0000 N   0  0  0  0  0  0  0  0  0  0  0  0
   12.8677   -0.5009    0.0000 C   0  0  0  0  0  0  0  0  0  0  0  0
   13.6177   -1.8000    0.0000 C   0  0  0  0  0  0  0  0  0  0  0  0
   13.6177    0.7981    0.0000 C   0  0  0  0  0  0  0  0  0  0  0  0
   15.1177   -1.8000    0.0000 C   0  0  0  0  0  0  0  0  0  0  0  0
   15.1177    0.7981    0.0000 C   0  0  0  0  0  0  0  0  0  0  0  0
   15.8677   -0.5009    0.0000 C   0  0  0  0  0  0  0  0  0  0  0  0
    3.0066    3.7076    0.0000 C   0  0  0  0  0  0  0  0  0  0  0  0
    2.0424    2.0376    0.0000 C   0  0  0  0  0  0  0  0  0  0  0  0
    6.8677   -3.0990    0.0000 C   0  0  0  0  0  0  0  0  0  0  0  0
  1  3  1  0  0  0  0
  1  2  1  0  0  0  0
  1 23  1  0  0  0  0
  1 24  1  0  0  0  0
  2  4  1  0  0  0  0
  3  5  1  0  0  0  0
  4  6  1  0  0  0  0
  5  6  1  0  0  0  0
  6  7  2  0  0  0  0
  6  8  1  0  0  0  0
  8  9  1  0  0  0  0
  9 11  1  0  0  0  0
  9 12  2  0  0  0  0
 10 12  1  0  0  0  0
 10 25  1  0  0  0  0
 11 13  2  0  0  0  0
 12 14  1  0  0  0  0
 13 16  1  0  0  0  0
 14 16  1  0  0  0  0
 14 15  2  0  0  0  0
 16 17  1  0  0  0  0
 17 19  1  0  0  0  0
 17 18  1  0  0  0  0
 18 20  1  0  0  0  0
 19 21  1  0  0  0  0
 20 22  1  0  0  0  0
 21 22  1  0  0  0  0
M  END
