47881
 OpenBabel03021519512D

 12 12  0  0  0  0  0  0  0  0999 V2000
    5.9462    3.0000    0.0000 C   0  0  0  0  0  0  0  0  0  0  0  0
    3.3481    3.0000    0.0000 C   0  0  0  0  0  0  0  0  0  0  0  0
    4.6471    0.7500    0.0000 C   0  0  0  0  0  0  0  0  0  0  0  0
    3.3481    1.5000    0.0000 N   0  0  0  0  0  0  0  0  0  0  0  0
    4.6471    5.2500    0.0000 H   0  0  0  0  0  0  0  0  0  0  0  0
    4.6471    3.7500    0.0000 N   0  0  0  0  0  0  0  0  0  0  0  0
    5.9462    1.5000    0.0000 N   0  0  0  0  0  0  0  0  0  0  0  0
    7.2452    3.7500    0.0000 O   0  0  0  0  0  0  0  0  0  0  0  0
    7.2452    0.7500    0.0000 H   0  0  0  0  0  0  0  0  0  0  0  0
    0.7500    3.0000    0.0000 O   0  0  0  0  0  0  0  0  0  0  0  0
    0.7500    1.5000    0.0000 C   0  0  0  0  0  0  0  0  0  0  0  0
    2.0490    0.7500    0.0000 C   0  0  0  0  0  0  0  0  0  0  0  0
  1  8  2  0  0  0  0
  1  6  1  0  0  0  0
  1  7  1  0  0  0  0
  2  6  1  0  0  0  0
  2  4  1  0  0  0  0
  3  7  1  0  0  0  0
  3  4  1  0  0  0  0
  4 12  1  0  0  0  0
  5  6  1  0  0  0  0
  7  9  1  0  0  0  0
 10 11  1  0  0  0  0
 11 12  1  0  0  0  0
M  END
