641396
 OpenBabel03021519512D

 22 25  0  0  0  0  0  0  0  0999 V2000
   -8.2574    3.0593    0.0000 C   0  0  0  0  0  0  0  0  0  0  0  0
   -9.7491    3.2161    0.0000 C   0  0  0  0  0  0  0  0  0  0  0  0
   -7.6473    1.6890    0.0000 C   0  0  0  0  0  0  0  0  0  0  0  0
   -8.5289    0.4755    0.0000 C   0  0  0  0  0  0  0  0  0  0  0  0
  -10.0207    0.6323    0.0000 C   0  0  0  0  0  0  0  0  0  0  0  0
  -10.6308    2.0026    0.0000 C   0  0  0  0  0  0  0  0  0  0  0  0
   -6.2207    1.2255    0.0000 C   0  0  0  0  0  0  0  0  0  0  0  0
   -6.2207   -0.2745    0.0000 C   0  0  0  0  0  0  0  0  0  0  0  0
   -7.6473   -0.7381    0.0000 N   0  0  0  0  0  0  0  0  0  0  0  0
   -8.1108   -2.1646    0.0000 C   0  0  0  0  0  0  0  0  0  0  0  0
   -4.9216    1.9755    0.0000 C   0  0  0  0  0  0  0  0  0  0  0  0
   -3.6226    1.2255    0.0000 C   0  0  0  0  0  0  0  0  0  0  0  0
   -3.6226   -0.2745    0.0000 C   0  0  0  0  0  0  0  0  0  0  0  0
   -4.9216   -1.0245    0.0000 C   0  0  0  0  0  0  0  0  0  0  0  0
   -4.9216   -2.5245    0.0000 C   0  0  0  0  0  0  0  0  0  0  0  0
   -6.2207   -3.2745    0.0000 O   0  0  0  0  0  0  0  0  0  0  0  0
   -3.6226   -3.2745    0.0000 C   0  0  0  0  0  0  0  0  0  0  0  0
   -2.3236   -2.5245    0.0000 C   0  0  0  0  0  0  0  0  0  0  0  0
   -2.3236   -1.0245    0.0000 C   0  0  0  0  0  0  0  0  0  0  0  0
   -1.0245   -0.2745    0.0000 O   0  0  0  0  0  0  0  0  0  0  0  0
  -10.3592    4.5864    0.0000 O   0  0  0  0  0  0  0  0  0  0  0  0
  -11.8510    4.7432    0.0000 C   0  0  0  0  0  0  0  0  0  0  0  0
  1  2  2  0  0  0  0
  1  3  1  0  0  0  0
  2  6  1  0  0  0  0
  2 21  1  0  0  0  0
  3  4  2  0  0  0  0
  3  7  1  0  0  0  0
  4  5  1  0  0  0  0
  4  9  1  0  0  0  0
  5  6  2  0  0  0  0
  7  8  2  0  0  0  0
  7 11  1  0  0  0  0
  8  9  1  0  0  0  0
  8 14  1  0  0  0  0
  9 10  1  0  0  0  0
 11 12  2  0  0  0  0
 12 13  1  0  0  0  0
 13 14  2  0  0  0  0
 13 19  1  0  0  0  0
 14 15  1  0  0  0  0
 15 16  2  0  0  0  0
 15 17  1  0  0  0  0
 17 18  2  0  0  0  0
 18 19  1  0  0  0  0
 19 20  2  0  0  0  0
 21 22  1  0  0  0  0
M  END
