236246
 OpenBabel03021519512D

 17 18  0  0  0  0  0  0  0  0999 V2000
   -1.0408   -2.7424    0.0000 O   0  5  0  0  0  0  0  0  0  0  0  0
   -0.2592   -0.1862    0.0000 C   0  0  0  0  0  0  0  0  0  0  0  0
    0.0012   -1.6634    0.0000 N   0  3  0  0  0  0  0  0  0  0  0  0
    1.0652    0.5180    0.0000 C   0  0  0  0  0  0  0  0  0  0  0  0
    1.2739    2.0034    0.0000 N   0  0  0  0  0  0  0  0  0  0  0  0
    2.1442   -0.5239    0.0000 C   0  0  0  0  0  0  0  0  0  0  0  0
    1.4866   -1.8721    0.0000 N   0  3  0  0  0  0  0  0  0  0  0  0
    2.1908   -3.1966    0.0000 O   0  5  0  0  0  0  0  0  0  0  0  0
   -1.6074    0.4714    0.0000 C   0  0  0  0  0  0  0  0  0  0  0  0
   -2.8510   -0.3674    0.0000 C   0  0  0  0  0  0  0  0  0  0  0  0
   -4.1992    0.2902    0.0000 C   0  0  0  0  0  0  0  0  0  0  0  0
   -4.3038    1.7865    0.0000 C   0  0  0  0  0  0  0  0  0  0  0  0
   -3.0603    2.6253    0.0000 C   0  0  0  0  0  0  0  0  0  0  0  0
   -1.7121    1.9677    0.0000 C   0  0  0  0  0  0  0  0  0  0  0  0
    2.6647    2.5654    0.0000 O   0  0  0  0  0  0  0  0  0  0  0  0
    3.6214   -0.2635    0.0000 C   0  0  0  0  0  0  0  0  0  0  0  0
    4.5856   -1.4125    0.0000 C   0  0  0  0  0  0  0  0  0  0  0  0
  1  3  1  0  0  0  0
  2  4  1  0  0  0  0
  2  3  2  0  0  0  0
  2  9  1  0  0  0  0
  3  7  1  0  0  0  0
  4  5  2  0  0  0  0
  4  6  1  0  0  0  0
  5 15  1  0  0  0  0
  6  7  2  0  0  0  0
  6 16  1  0  0  0  0
  7  8  1  0  0  0  0
  9 10  2  0  0  0  0
  9 14  1  0  0  0  0
 10 11  1  0  0  0  0
 11 12  2  0  0  0  0
 12 13  1  0  0  0  0
 13 14  2  0  0  0  0
 16 17  1  0  0  0  0
M  CHG  4   1  -1   3   1   7   1   8  -1
M  END
