63963
 OpenBabel03021519512D

 19 19  0  0  1  0  0  0  0  0999 V2000
   -8.4654    4.0215    0.0000 H   0  0  0  0  0  0  0  0  0  0  0  0
   -8.9289    2.5949    0.0000 N   0  0  0  0  0  0  0  0  0  0  0  0
  -11.6545    2.8813    0.0000 C   0  0  0  0  0  0  0  0  0  0  0  0
  -10.3555    2.1313    0.0000 C   0  0  0  0  0  0  0  0  0  0  0  0
  -12.9536    2.1313    0.0000 C   0  0  0  0  0  0  0  0  0  0  0  0
  -10.3555    0.6313    0.0000 C   0  0  0  0  0  0  0  0  0  0  0  0
  -12.9536    0.6313    0.0000 C   0  0  0  0  0  0  0  0  0  0  0  0
  -11.6545   -0.1187    0.0000 C   0  0  0  0  0  0  0  0  0  0  0  0
   -8.9289    0.1678    0.0000 C   0  0  0  0  0  0  0  0  0  0  0  0
   -8.0472    1.3813    0.0000 C   0  0  0  0  0  0  0  0  0  0  0  0
   -8.4654   -1.2588    0.0000 C   0  0  0  0  0  0  0  0  0  0  0  0
   -6.9982   -1.5706    0.0000 C   0  0  3  0  0  0  0  0  0  0  0  0
   -6.5346   -2.9972    0.0000 N   0  0  0  0  0  0  0  0  0  0  0  0
   -5.9945   -0.4559    0.0000 C   0  0  0  0  0  0  0  0  0  0  0  0
   -4.5272   -0.7678    0.0000 C   0  0  0  0  0  0  0  0  0  0  0  0
  -11.5398   -3.4169    0.0000 C   0  0  0  0  0  0  0  0  0  0  0  0
  -12.8389   -4.1669    0.0000 O   0  0  0  0  0  0  0  0  0  0  0  0
  -11.5398   -1.9169    0.0000 O   0  0  0  0  0  0  0  0  0  0  0  0
  -10.2408   -4.1669    0.0000 C   0  0  0  0  0  0  0  0  0  0  0  0
  1  2  1  0  0  0  0
  2  4  1  0  0  0  0
  2 10  1  0  0  0  0
  3  5  2  0  0  0  0
  3  4  1  0  0  0  0
  4  6  2  0  0  0  0
  5  7  1  0  0  0  0
  6  8  1  0  0  0  0
  6  9  1  0  0  0  0
  7  8  2  0  0  0  0
  9 10  2  0  0  0  0
  9 11  1  0  0  0  0
 11 12  1  0  0  0  0
 12 13  1  0  0  0  0
 12 14  1  0  0  0  0
 14 15  1  0  0  0  0
 16 17  1  0  0  0  0
 16 18  2  0  0  0  0
 16 19  1  0  0  0  0
M  END
