234945
 OpenBabel03021519512D

 18 20  0  0  0  0  0  0  0  0999 V2000
    1.3912    6.0617    0.0000 C   0  0  0  0  0  0  0  0  0  0  0  0
    2.7616    6.6719    0.0000 C   0  0  0  0  0  0  0  0  0  0  0  0
    1.2345    4.5700    0.0000 C   0  0  0  0  0  0  0  0  0  0  0  0
    3.9751    5.7902    0.0000 C   0  0  0  0  0  0  0  0  0  0  0  0
    2.4480    3.6883    0.0000 N   0  0  0  0  0  0  0  0  0  0  0  0
    3.8183    4.2984    0.0000 C   0  0  0  0  0  0  0  0  0  0  0  0
    5.0318    3.4167    0.0000 C   0  0  0  0  0  0  0  0  0  0  0  0
    5.0318    1.9167    0.0000 N   0  0  0  0  0  0  0  0  0  0  0  0
    6.4584    3.8802    0.0000 N   0  0  0  0  0  0  0  0  0  0  0  0
    6.4584    1.4532    0.0000 N   0  0  0  0  0  0  0  0  0  0  0  0
    6.9219    0.0266    0.0000 H   0  0  0  0  0  0  0  0  0  0  0  0
    7.3401    2.6667    0.0000 C   0  0  0  0  0  0  0  0  0  0  0  0
    8.8401    2.6667    0.0000 C   0  0  0  0  0  0  0  0  0  0  0  0
    9.5901    3.9658    0.0000 C   0  0  0  0  0  0  0  0  0  0  0  0
    9.5901    1.3677    0.0000 N   0  0  0  0  0  0  0  0  0  0  0  0
   11.0901    1.3677    0.0000 C   0  0  0  0  0  0  0  0  0  0  0  0
   11.0901    3.9658    0.0000 C   0  0  0  0  0  0  0  0  0  0  0  0
   11.8401    2.6667    0.0000 C   0  0  0  0  0  0  0  0  0  0  0  0
  1  2  2  0  0  0  0
  1  3  1  0  0  0  0
  2  4  1  0  0  0  0
  3  5  2  0  0  0  0
  4  6  2  0  0  0  0
  5  6  1  0  0  0  0
  6  7  1  0  0  0  0
  7  9  1  0  0  0  0
  7  8  2  0  0  0  0
  8 10  1  0  0  0  0
  9 12  2  0  0  0  0
 10 12  1  0  0  0  0
 10 11  1  0  0  0  0
 12 13  1  0  0  0  0
 13 14  2  0  0  0  0
 13 15  1  0  0  0  0
 14 17  1  0  0  0  0
 15 16  2  0  0  0  0
 16 18  1  0  0  0  0
 17 18  2  0  0  0  0
M  END
