68116
 OpenBabel03021519512D

 18 19  0  0  1  0  0  0  0  0999 V2000
   -3.3481    3.0000    0.0000 N   0  0  3  0  0  0  0  0  0  0  0  0
   -2.0491    3.7500    0.0000 P   0  0  3  0  0  0  0  0  0  0  0  0
   -1.0849    4.8991    0.0000 O   0  0  0  0  0  0  0  0  0  0  0  0
   -0.7500    3.0000    0.0000 O   0  0  0  0  0  0  0  0  0  0  0  0
   -4.6471    3.7500    0.0000 C   0  0  0  0  0  0  0  0  0  0  0  0
   -5.9462    3.0000    0.0000 C   0  0  0  0  0  0  0  0  0  0  0  0
   -5.9462    1.5000    0.0000 C   0  0  0  0  0  0  0  0  0  0  0  0
   -4.6471    0.7500    0.0000 C   0  0  0  0  0  0  0  0  0  0  0  0
   -0.7500    1.5000    0.0000 C   0  0  0  0  0  0  0  0  0  0  0  0
   -2.0490    0.7500    0.0000 C   0  0  0  0  0  0  0  0  0  0  0  0
   -3.3481    1.5000    0.0000 C   0  0  3  0  0  0  0  0  0  0  0  0
   -3.0132    4.8991    0.0000 N   0  0  0  0  0  0  0  0  0  0  0  0
   -2.5002    6.3086    0.0000 C   0  0  0  0  0  0  0  0  0  0  0  0
   -1.0230    6.5691    0.0000 C   0  0  0  0  0  0  0  0  0  0  0  0
   -0.5100    7.9786    0.0000 Cl  0  0  0  0  0  0  0  0  0  0  0  0
   -6.9318    5.5272    0.0000 Cl  0  0  0  0  0  0  0  0  0  0  0  0
   -5.4546    5.7877    0.0000 C   0  0  0  0  0  0  0  0  0  0  0  0
   -4.4904    4.6386    0.0000 C   0  0  0  0  0  0  0  0  0  0  0  0
  1  2  1  0  0  0  0
  1  5  1  0  0  0  0
  1 11  1  0  0  0  0
  2  3  2  0  0  0  0
  2  4  1  0  0  0  0
  2 12  1  0  0  0  0
  4  9  1  0  0  0  0
  5  6  1  0  0  0  0
  6  7  1  0  0  0  0
  7  8  1  0  0  0  0
  8 11  1  0  0  0  0
  9 10  1  0  0  0  0
 10 11  1  0  0  0  0
 12 13  1  0  0  0  0
 12 18  1  0  0  0  0
 13 14  1  0  0  0  0
 14 15  1  0  0  0  0
 16 17  1  0  0  0  0
 17 18  1  0  0  0  0
M  END
