228155
 OpenBabel03021519512D

 20 22  0  0  0  0  0  0  0  0999 V2000
    2.2941   -4.3376    0.0000 C   0  0  0  0  0  0  0  0  0  0  0  0
    0.8846   -4.8507    0.0000 C   0  0  0  0  0  0  0  0  0  0  0  0
   -2.9731   -6.6495    0.0000 C   0  0  0  0  0  0  0  0  0  0  0  0
   -2.9731   -8.1495    0.0000 C   0  0  0  0  0  0  0  0  0  0  0  0
   -0.2645   -3.8865    0.0000 C   0  0  0  0  0  0  0  0  0  0  0  0
   -1.6740   -4.3995    0.0000 S   0  0  0  0  0  0  0  0  0  0  0  0
   -1.6740   -5.8995    0.0000 C   0  0  0  0  0  0  0  0  0  0  0  0
    2.5546   -2.8604    0.0000 C   0  0  0  0  0  0  0  0  0  0  0  0
   -1.6740   -8.8995    0.0000 C   0  0  0  0  0  0  0  0  0  0  0  0
    1.4055   -1.8962    0.0000 C   0  0  0  0  0  0  0  0  0  0  0  0
   -0.3750   -8.1495    0.0000 C   0  0  0  0  0  0  0  0  0  0  0  0
   -0.3750   -6.6495    0.0000 C   0  0  0  0  0  0  0  0  0  0  0  0
   -0.0040   -2.4093    0.0000 N   0  3  0  0  0  0  0  0  0  0  0  0
    1.0516   -6.1860    0.0000 N   0  0  0  0  0  0  0  0  0  0  0  0
   -1.1531   -1.4451    0.0000 O   0  5  0  0  0  0  0  0  0  0  0  0
    1.9333   -7.3995    0.0000 O   0  0  0  0  0  0  0  0  0  0  0  0
    1.0516   -8.6130    0.0000 N   0  0  0  0  0  0  0  0  0  0  0  0
   -1.6740  -10.3995    0.0000 N   0  3  0  0  0  0  0  0  0  0  0  0
   -2.9731  -11.1495    0.0000 O   0  5  0  0  0  0  0  0  0  0  0  0
   -0.3750  -11.1495    0.0000 O   0  0  0  0  0  0  0  0  0  0  0  0
  1  8  1  0  0  0  0
  1  2  2  0  0  0  0
  2  5  1  0  0  0  0
  3  7  2  0  0  0  0
  3  4  1  0  0  0  0
  4  9  2  0  0  0  0
  5 13  2  0  0  0  0
  5  6  1  0  0  0  0
  6  7  1  0  0  0  0
  7 12  1  0  0  0  0
  8 10  2  0  0  0  0
  9 11  1  0  0  0  0
  9 18  1  0  0  0  0
 10 13  1  0  0  0  0
 11 12  1  0  0  0  0
 11 17  2  0  0  0  0
 12 14  2  0  0  0  0
 13 15  1  0  0  0  0
 14 16  1  0  0  0  0
 16 17  1  0  0  0  0
 18 19  1  0  0  0  0
 18 20  2  0  0  0  0
M  CHG  4  13   1  15  -1  18   1  19  -1
M  END
