117197
 OpenBabel03021519512D

 25 28  0  0  1  0  0  0  0  0999 V2000
    1.6924    1.3548    0.0000 O   0  0  0  0  0  0  0  0  0  0  0  0
    2.9914    3.6048    0.0000 N   0  0  0  0  0  0  0  0  0  0  0  0
    4.2905    5.8548    0.0000 O   0  0  0  0  0  0  0  0  0  0  0  0
    4.2905    1.3548    0.0000 N   0  0  0  0  0  0  0  0  0  0  0  0
    7.4796    5.4949    0.0000 H   0  0  0  0  0  0  0  0  0  0  0  0
    7.0161    4.0683    0.0000 N   0  0  0  0  0  0  0  0  0  0  0  0
    7.4796    0.2147    0.0000 H   0  0  0  0  0  0  0  0  0  0  0  0
    8.3159    5.4949    0.0000 O   0  0  0  0  0  0  0  0  0  0  0  0
    7.0161    1.6413    0.0000 N   0  0  0  0  0  0  0  0  0  0  0  0
   10.2060    3.6048    0.0000 N   0  0  0  0  0  0  0  0  0  0  0  0
   11.4196    4.4865    0.0000 H   0  0  0  0  0  0  0  0  0  0  0  0
    8.7794    4.0683    0.0000 C   0  0  0  0  0  0  0  0  0  0  0  0
    7.8978    2.8548    0.0000 C   0  0  3  0  0  0  0  0  0  0  0  0
    8.7795    1.6413    0.0000 C   0  0  0  0  0  0  0  0  0  0  0  0
   11.3208    1.1011    0.0000 C   0  0  0  0  0  0  0  0  0  0  0  0
   11.0089   -0.3661    0.0000 C   0  0  0  0  0  0  0  0  0  0  0  0
   10.2060    2.1048    0.0000 C   0  0  0  0  0  0  0  0  0  0  0  0
    9.5823   -0.8296    0.0000 C   0  0  0  0  0  0  0  0  0  0  0  0
    8.4676    0.1741    0.0000 C   0  0  0  0  0  0  0  0  0  0  0  0
    4.2905    4.3548    0.0000 C   0  0  0  0  0  0  0  0  0  0  0  0
    5.5895    3.6048    0.0000 C   0  0  0  0  0  0  0  0  0  0  0  0
    5.5895    2.1048    0.0000 C   0  0  0  0  0  0  0  0  0  0  0  0
    2.9914    2.1048    0.0000 C   0  0  0  0  0  0  0  0  0  0  0  0
    1.6924    4.3548    0.0000 C   0  0  0  0  0  0  0  0  0  0  0  0
    4.2905   -0.1452    0.0000 C   0  0  0  0  0  0  0  0  0  0  0  0
  1 23  2  0  0  0  0
  2 20  1  0  0  0  0
  2 23  1  0  0  0  0
  2 24  1  0  0  0  0
  3 20  2  0  0  0  0
  4 22  1  0  0  0  0
  4 23  1  0  0  0  0
  4 25  1  0  0  0  0
  5  6  1  0  0  0  0
  6 13  1  0  0  0  0
  6 21  1  0  0  0  0
  7  9  1  0  0  0  0
  8 12  2  0  0  0  0
  9 13  1  0  0  0  0
  9 22  1  0  0  0  0
 10 12  1  0  0  0  0
 10 17  1  0  0  0  0
 10 11  1  0  0  0  0
 12 13  1  0  0  0  0
 13 14  1  0  0  0  0
 14 17  2  0  0  0  0
 14 19  1  0  0  0  0
 15 16  2  0  0  0  0
 15 17  1  0  0  0  0
 16 18  1  0  0  0  0
 18 19  2  0  0  0  0
 20 21  1  0  0  0  0
 21 22  2  0  0  0  0
M  END
