178249
 OpenBabel03021519512D

 28 32  0  0  1  0  0  0  0  0999 V2000
   -2.1662    5.9852    0.0000 O   0  0  0  0  0  0  0  0  0  0  0  0
    0.6056    8.1618    0.0000 H   0  0  0  0  0  0  0  0  0  0  0  0
   -1.6213    4.3082    0.0000 H   0  0  0  0  0  0  0  0  0  0  0  0
    0.1420    4.3082    0.0000 O   0  0  0  0  0  0  0  0  0  0  0  0
    2.8677    8.5217    0.0000 O   0  0  0  0  0  0  0  0  0  0  0  0
    6.7648    6.2717    0.0000 O   0  0  0  0  0  0  0  0  0  0  0  0
    5.4657   11.5217    0.0000 C   0  0  0  0  0  0  0  0  0  0  0  0
    4.1667   10.7717    0.0000 C   0  0  0  0  0  0  0  0  0  0  0  0
    6.7648   10.7717    0.0000 C   0  0  0  0  0  0  0  0  0  0  0  0
    6.7648    9.2717    0.0000 C   0  0  0  0  0  0  0  0  0  0  0  0
    4.1667    9.2717    0.0000 C   0  0  0  0  0  0  0  0  0  0  0  0
    5.4657    8.5217    0.0000 C   0  0  0  0  0  0  0  0  0  0  0  0
    5.4657    7.0217    0.0000 C   0  0  0  0  0  0  0  0  0  0  0  0
    4.1667    6.2717    0.0000 C   0  0  0  0  0  0  0  0  0  0  0  0
    2.8677    7.0217    0.0000 C   0  0  0  0  0  0  0  0  0  0  0  0
    1.5686    6.2717    0.0000 C   0  0  0  0  0  0  0  0  0  0  0  0
    4.1667    4.7717    0.0000 C   0  0  0  0  0  0  0  0  0  0  0  0
    1.5686    4.7717    0.0000 C   0  0  0  0  0  0  0  0  0  0  0  0
    0.1420    6.7352    0.0000 C   0  0  1  0  0  0  0  0  0  0  0  0
   -0.7396    5.5217    0.0000 C   0  0  2  0  0  0  0  0  0  0  0  0
   -0.7396    7.9487    0.0000 C   0  0  0  0  0  0  0  0  0  0  0  0
   -2.1662    7.4852    0.0000 C   0  0  0  0  0  0  0  0  0  0  0  0
    2.8677    4.0217    0.0000 C   0  0  0  0  0  0  0  0  0  0  0  0
    2.8677   11.5217    0.0000 O   0  0  0  0  0  0  0  0  0  0  0  0
    1.5686   10.7717    0.0000 C   0  0  0  0  0  0  0  0  0  0  0  0
    5.4657    4.0217    0.0000 O   0  0  0  0  0  0  0  0  0  0  0  0
    6.7648    4.7717    0.0000 C   0  0  0  0  0  0  0  0  0  0  0  0
    8.0638    8.5217    0.0000 O   0  0  0  0  0  0  0  0  0  0  0  0
  1 20  1  0  0  0  0
  1 22  1  0  0  0  0
  4 18  1  0  0  0  0
  4 20  1  0  0  0  0
  5 11  1  0  0  0  0
  5 15  1  0  0  0  0
  6 13  2  0  0  0  0
  7  8  2  0  0  0  0
  7  9  1  0  0  0  0
  8 11  1  0  0  0  0
  8 24  1  0  0  0  0
  9 10  2  0  0  0  0
 10 12  1  0  0  0  0
 10 28  1  0  0  0  0
 11 12  2  0  0  0  0
 12 13  1  0  0  0  0
 13 14  1  0  0  0  0
 14 15  2  0  0  0  0
 14 17  1  0  0  0  0
 15 16  1  0  0  0  0
 16 18  2  0  0  0  0
 16 19  1  0  0  0  0
 17 23  2  0  0  0  0
 17 26  1  0  0  0  0
 18 23  1  0  0  0  0
 19  2  1  6  0  0  0
 19 20  1  0  0  0  0
 19 21  1  0  0  0  0
 20  3  1  6  0  0  0
 21 22  2  0  0  0  0
 24 25  1  0  0  0  0
 26 27  1  0  0  0  0
M  END
