100120
 OpenBabel03021519512D

 19 21  0  0  0  0  0  0  0  0999 V2000
  -11.4150   -0.2370    0.0000 N   0  0  0  0  0  0  0  0  0  0  0  0
  -11.6865    2.3468    0.0000 O   0  0  0  0  0  0  0  0  0  0  0  0
   -9.0415   -1.2937    0.0000 N   0  0  0  0  0  0  0  0  0  0  0  0
   -8.1598   -2.5073    0.0000 H   0  0  0  0  0  0  0  0  0  0  0  0
   -8.4314    2.5036    0.0000 N   0  0  0  0  0  0  0  0  0  0  0  0
   -7.0048    0.5401    0.0000 N   0  0  0  0  0  0  0  0  0  0  0  0
  -10.8049    1.1333    0.0000 C   0  0  0  0  0  0  0  0  0  0  0  0
   -9.3131    1.2901    0.0000 C   0  0  0  0  0  0  0  0  0  0  0  0
   -8.4314    0.0766    0.0000 C   0  0  0  0  0  0  0  0  0  0  0  0
   -7.0048    2.0401    0.0000 C   0  0  0  0  0  0  0  0  0  0  0  0
  -10.5333   -1.4505    0.0000 C   0  0  0  0  0  0  0  0  0  0  0  0
   -4.4210    0.2685    0.0000 C   0  0  0  0  0  0  0  0  0  0  0  0
   -3.2074   -0.6131    0.0000 C   0  0  0  0  0  0  0  0  0  0  0  0
   -5.7913   -0.3416    0.0000 C   0  0  0  0  0  0  0  0  0  0  0  0
   -3.3642   -2.1049    0.0000 C   0  0  0  0  0  0  0  0  0  0  0  0
   -5.9481   -1.8334    0.0000 C   0  0  0  0  0  0  0  0  0  0  0  0
   -4.7345   -2.7150    0.0000 C   0  0  0  0  0  0  0  0  0  0  0  0
   -1.8371   -0.0030    0.0000 C   0  0  0  0  0  0  0  0  0  0  0  0
   -2.1507   -2.9866    0.0000 N   0  0  0  0  0  0  0  0  0  0  0  0
  1 11  2  0  0  0  0
  1  7  1  0  0  0  0
  2  7  2  0  0  0  0
  3  9  1  0  0  0  0
  3 11  1  0  0  0  0
  3  4  1  0  0  0  0
  5 10  2  0  0  0  0
  5  8  1  0  0  0  0
  6  9  1  0  0  0  0
  6 10  1  0  0  0  0
  6 14  1  0  0  0  0
  7  8  1  0  0  0  0
  8  9  2  0  0  0  0
 12 14  2  0  0  0  0
 12 13  1  0  0  0  0
 13 15  2  0  0  0  0
 13 18  1  0  0  0  0
 14 16  1  0  0  0  0
 15 17  1  0  0  0  0
 15 19  1  0  0  0  0
 16 17  2  0  0  0  0
M  END
