58347
 OpenBabel03021519512D

 20 21  0  0  1  0  0  0  0  0999 V2000
   12.8310   -8.2500    0.0000 O   0  0  0  0  0  0  0  0  0  0  0  0
   10.2330   -9.7500    0.0000 H   0  0  0  0  0  0  0  0  0  0  0  0
   10.2330   -8.2500    0.0000 N   0  0  0  0  0  0  0  0  0  0  0  0
   11.5320   -6.0000    0.0000 N   0  0  0  0  0  0  0  0  0  0  0  0
    7.6349   -8.2500    0.0000 O   0  0  0  0  0  0  0  0  0  0  0  0
   10.2330   -3.7500    0.0000 O   0  0  0  0  0  0  0  0  0  0  0  0
    6.7905   -4.7625    0.0000 N   0  0  0  0  0  0  0  0  0  0  0  0
    6.7905   -3.2625    0.0000 N   0  0  0  0  0  0  0  0  0  0  0  0
    1.5944   -0.2625    0.0000 Cl  0  0  0  0  0  0  0  0  0  0  0  0
    8.9339   -7.5000    0.0000 C   0  0  0  0  0  0  0  0  0  0  0  0
    8.9339   -6.0000    0.0000 C   0  0  3  0  0  0  0  0  0  0  0  0
   10.2330   -5.2500    0.0000 C   0  0  0  0  0  0  0  0  0  0  0  0
    4.1924   -3.2625    0.0000 C   0  0  0  0  0  0  0  0  0  0  0  0
    2.8934   -2.5125    0.0000 C   0  0  0  0  0  0  0  0  0  0  0  0
    5.4915   -2.5125    0.0000 C   0  0  0  0  0  0  0  0  0  0  0  0
    2.8934   -1.0125    0.0000 C   0  0  0  0  0  0  0  0  0  0  0  0
    5.4915   -1.0125    0.0000 C   0  0  0  0  0  0  0  0  0  0  0  0
    4.1925   -0.2625    0.0000 C   0  0  0  0  0  0  0  0  0  0  0  0
   11.5320   -7.5000    0.0000 C   0  0  0  0  0  0  0  0  0  0  0  0
   12.8311   -5.2500    0.0000 C   0  0  0  0  0  0  0  0  0  0  0  0
  1 19  2  0  0  0  0
  2  3  1  0  0  0  0
  3 10  1  0  0  0  0
  3 19  1  0  0  0  0
  4 12  1  0  0  0  0
  4 19  1  0  0  0  0
  4 20  1  0  0  0  0
  5 10  2  0  0  0  0
  6 12  2  0  0  0  0
  7 11  1  0  0  0  0
  7  8  2  0  0  0  0
  8 15  1  0  0  0  0
  9 16  1  0  0  0  0
 10 11  1  0  0  0  0
 11 12  1  0  0  0  0
 13 14  2  0  0  0  0
 13 15  1  0  0  0  0
 14 16  1  0  0  0  0
 15 17  2  0  0  0  0
 16 18  2  0  0  0  0
 17 18  1  0  0  0  0
M  END
