205832
 OpenBabel03021519512D

 24 25  0  0  0  0  0  0  0  0999 V2000
    2.0491  -14.2500    0.0000 Cl  0  0  0  0  0  0  0  0  0  0  0  0
    5.9462   -7.5000    0.0000 O   0  0  0  0  0  0  0  0  0  0  0  0
    5.9462   -1.5000    0.0000 O   0  0  0  0  0  0  0  0  0  0  0  0
    2.0491   -9.7500    0.0000 C   0  0  0  0  0  0  0  0  0  0  0  0
    3.3481  -10.5000    0.0000 C   0  0  0  0  0  0  0  0  0  0  0  0
    0.7500  -10.5000    0.0000 C   0  0  0  0  0  0  0  0  0  0  0  0
    3.3481  -12.0000    0.0000 C   0  0  0  0  0  0  0  0  0  0  0  0
    0.7500  -12.0000    0.0000 C   0  0  0  0  0  0  0  0  0  0  0  0
    2.0491  -12.7500    0.0000 C   0  0  0  0  0  0  0  0  0  0  0  0
    4.6471   -5.2500    0.0000 C   0  0  0  0  0  0  0  0  0  0  0  0
    4.6471   -3.7500    0.0000 C   0  0  0  0  0  0  0  0  0  0  0  0
    5.9462   -6.0000    0.0000 C   0  0  0  0  0  0  0  0  0  0  0  0
    5.9462   -3.0000    0.0000 C   0  0  0  0  0  0  0  0  0  0  0  0
    7.2452   -5.2500    0.0000 C   0  0  0  0  0  0  0  0  0  0  0  0
    7.2452   -3.7500    0.0000 C   0  0  0  0  0  0  0  0  0  0  0  0
    2.0490   -8.2500    0.0000 O   0  0  0  0  0  0  0  0  0  0  0  0
    0.7500   -7.5000    0.0000 C   0  0  0  0  0  0  0  0  0  0  0  0
    4.6471   -9.7500    0.0000 N   0  0  0  0  0  0  0  0  0  0  0  0
    4.6471   -8.2500    0.0000 C   0  0  0  0  0  0  0  0  0  0  0  0
    3.3481   -7.5000    0.0000 O   0  0  0  0  0  0  0  0  0  0  0  0
    4.6471   -0.7500    0.0000 C   0  0  0  0  0  0  0  0  0  0  0  0
    3.3481   -1.5000    0.0000 C   0  0  0  0  0  0  0  0  0  0  0  0
    2.0490   -0.7500    0.0000 C   0  0  0  0  0  0  0  0  0  0  0  0
    0.7500   -1.5000    0.0000 C   0  0  0  0  0  0  0  0  0  0  0  0
  1  9  1  0  0  0  0
  2 12  1  0  0  0  0
  2 19  1  0  0  0  0
  3 13  1  0  0  0  0
  3 21  1  0  0  0  0
  4  5  2  0  0  0  0
  4  6  1  0  0  0  0
  4 16  1  0  0  0  0
  5  7  1  0  0  0  0
  5 18  1  0  0  0  0
  6  8  2  0  0  0  0
  7  9  2  0  0  0  0
  8  9  1  0  0  0  0
 10 11  2  0  0  0  0
 10 12  1  0  0  0  0
 11 13  1  0  0  0  0
 12 14  2  0  0  0  0
 13 15  2  0  0  0  0
 14 15  1  0  0  0  0
 16 17  1  0  0  0  0
 18 19  1  0  0  0  0
 19 20  2  0  0  0  0
 21 22  1  0  0  0  0
 22 23  1  0  0  0  0
 23 24  1  0  0  0  0
M  END
