246999
 OpenBabel03021519512D

 24 27  0  0  0  0  0  0  0  0999 V2000
    2.1101    5.7221    0.0000 F   0  0  0  0  0  0  0  0  0  0  0  0
    3.6101    5.7221    0.0000 C   0  0  0  0  0  0  0  0  0  0  0  0
    4.3601    7.0211    0.0000 C   0  0  0  0  0  0  0  0  0  0  0  0
    4.3601    4.4230    0.0000 C   0  0  0  0  0  0  0  0  0  0  0  0
    5.8601    7.0211    0.0000 C   0  0  0  0  0  0  0  0  0  0  0  0
    5.8601    4.4230    0.0000 C   0  0  0  0  0  0  0  0  0  0  0  0
    8.8601    7.0211    0.0000 N   0  0  0  0  0  0  0  0  0  0  0  0
    6.6101    5.7221    0.0000 C   0  0  0  0  0  0  0  0  0  0  0  0
    8.1101    5.7221    0.0000 C   0  0  0  0  0  0  0  0  0  0  0  0
   10.3601    7.0211    0.0000 C   0  0  0  0  0  0  0  0  0  0  0  0
   11.1101    5.7221    0.0000 C   0  0  0  0  0  0  0  0  0  0  0  0
    8.8601    4.4230    0.0000 C   0  0  0  0  0  0  0  0  0  0  0  0
   10.3601    4.4231    0.0000 C   0  0  0  0  0  0  0  0  0  0  0  0
   12.6019    2.9672    0.0000 C   0  0  0  0  0  0  0  0  0  0  0  0
   11.1101    3.1240    0.0000 C   0  0  0  0  0  0  0  0  0  0  0  0
   10.5000    1.7537    0.0000 S   0  0  0  0  0  0  0  0  0  0  0  0
   11.6147    0.7500    0.0000 C   0  0  0  0  0  0  0  0  0  0  0  0
   12.9137    1.5000    0.0000 C   0  0  0  0  0  0  0  0  0  0  0  0
   11.1101    8.3202    0.0000 C   0  0  0  0  0  0  0  0  0  0  0  0
   10.3601    9.6192    0.0000 C   0  0  0  0  0  0  0  0  0  0  0  0
   11.1101   10.9182    0.0000 C   0  0  0  0  0  0  0  0  0  0  0  0
   12.6101   10.9182    0.0000 C   0  0  0  0  0  0  0  0  0  0  0  0
   13.3601    9.6192    0.0000 C   0  0  0  0  0  0  0  0  0  0  0  0
   12.6101    8.3202    0.0000 C   0  0  0  0  0  0  0  0  0  0  0  0
  1  2  1  0  0  0  0
  2  3  2  0  0  0  0
  2  4  1  0  0  0  0
  3  5  1  0  0  0  0
  4  6  2  0  0  0  0
  5  8  2  0  0  0  0
  6  8  1  0  0  0  0
  7 10  2  0  0  0  0
  7  9  1  0  0  0  0
  8  9  1  0  0  0  0
  9 12  2  0  0  0  0
 10 11  1  0  0  0  0
 10 19  1  0  0  0  0
 11 13  2  0  0  0  0
 12 13  1  0  0  0  0
 13 15  1  0  0  0  0
 14 18  1  0  0  0  0
 14 15  2  0  0  0  0
 15 16  1  0  0  0  0
 16 17  1  0  0  0  0
 17 18  2  0  0  0  0
 19 20  2  0  0  0  0
 19 24  1  0  0  0  0
 20 21  1  0  0  0  0
 21 22  2  0  0  0  0
 22 23  1  0  0  0  0
 23 24  2  0  0  0  0
M  END
