103331
 OpenBabel03021519512D

 25 26  0  0  0  0  0  0  0  0999 V2000
  -15.6599    5.9927    0.0000 N   0  0  0  0  0  0  0  0  0  0  0  0
  -15.4062    3.5790    0.0000 S   0  0  0  0  0  0  0  0  0  0  0  0
  -14.1927    5.6809    0.0000 C   0  0  0  0  0  0  0  0  0  0  0  0
  -14.0359    4.1891    0.0000 C   0  0  0  0  0  0  0  0  0  0  0  0
   -7.5407    1.9391    0.0000 C   0  0  0  0  0  0  0  0  0  0  0  0
   -6.2417    1.1891    0.0000 C   0  0  0  0  0  0  0  0  0  0  0  0
   -8.8398    1.1891    0.0000 C   0  0  0  0  0  0  0  0  0  0  0  0
   -6.2417   -0.3109    0.0000 C   0  0  0  0  0  0  0  0  0  0  0  0
   -8.8398   -0.3109    0.0000 C   0  0  0  0  0  0  0  0  0  0  0  0
   -7.5407   -1.0609    0.0000 C   0  0  0  0  0  0  0  0  0  0  0  0
  -16.4099    4.6937    0.0000 C   0  0  0  0  0  0  0  0  0  0  0  0
  -17.9017    4.5369    0.0000 C   0  0  0  0  0  0  0  0  0  0  0  0
  -13.0780    6.6846    0.0000 C   0  0  0  0  0  0  0  0  0  0  0  0
  -12.7369    3.4391    0.0000 C   0  0  0  0  0  0  0  0  0  0  0  0
  -11.4378    4.1891    0.0000 O   0  0  0  0  0  0  0  0  0  0  0  0
  -12.7369    1.9391    0.0000 N   0  0  0  0  0  0  0  0  0  0  0  0
  -11.4378    1.1891    0.0000 N   0  0  0  0  0  0  0  0  0  0  0  0
  -10.1388    1.9391    0.0000 C   0  0  0  0  0  0  0  0  0  0  0  0
   -4.9426   -1.0609    0.0000 N   0  0  0  0  0  0  0  0  0  0  0  0
   -3.6436   -0.3109    0.0000 C   0  0  0  0  0  0  0  0  0  0  0  0
   -2.3446   -1.0609    0.0000 C   0  0  0  0  0  0  0  0  0  0  0  0
   -1.0455   -0.3109    0.0000 Cl  0  0  0  0  0  0  0  0  0  0  0  0
   -4.9426   -2.5609    0.0000 C   0  0  0  0  0  0  0  0  0  0  0  0
   -6.2417   -3.3109    0.0000 C   0  0  0  0  0  0  0  0  0  0  0  0
   -7.5407   -2.5609    0.0000 Cl  0  0  0  0  0  0  0  0  0  0  0  0
  1 11  2  0  0  0  0
  1  3  1  0  0  0  0
  2  4  1  0  0  0  0
  2 11  1  0  0  0  0
  3  4  2  0  0  0  0
  3 13  1  0  0  0  0
  4 14  1  0  0  0  0
  5  6  2  0  0  0  0
  5  7  1  0  0  0  0
  6  8  1  0  0  0  0
  7  9  2  0  0  0  0
  7 18  1  0  0  0  0
  8 10  2  0  0  0  0
  8 19  1  0  0  0  0
  9 10  1  0  0  0  0
 11 12  1  0  0  0  0
 14 15  2  0  0  0  0
 14 16  1  0  0  0  0
 16 17  1  0  0  0  0
 17 18  2  0  0  0  0
 19 20  1  0  0  0  0
 19 23  1  0  0  0  0
 20 21  1  0  0  0  0
 21 22  1  0  0  0  0
 23 24  1  0  0  0  0
 24 25  1  0  0  0  0
M  END
