100942
 OpenBabel03021519512D

 17 17  0  0  0  0  0  0  0  0999 V2000
   -4.8211   -5.1495    0.0000 C   0  0  0  0  0  0  0  0  0  0  0  0
   -3.5221   -5.8995    0.0000 C   0  0  0  0  0  0  0  0  0  0  0  0
   -6.1202   -5.8995    0.0000 C   0  0  0  0  0  0  0  0  0  0  0  0
   -3.5221   -7.3995    0.0000 C   0  0  0  0  0  0  0  0  0  0  0  0
   -6.1202   -7.3995    0.0000 C   0  0  0  0  0  0  0  0  0  0  0  0
   -4.8211   -8.1495    0.0000 C   0  0  0  0  0  0  0  0  0  0  0  0
   -7.4192   -8.1495    0.0000 N   0  0  0  0  0  0  0  0  0  0  0  0
   -8.7183   -7.3995    0.0000 C   0  0  0  0  0  0  0  0  0  0  0  0
  -10.0173   -8.1495    0.0000 O   0  0  0  0  0  0  0  0  0  0  0  0
   -8.7183   -5.8995    0.0000 C   0  0  0  0  0  0  0  0  0  0  0  0
   -2.2231   -5.1495    0.0000 S   0  0  0  0  0  0  0  0  0  0  0  0
   -2.9731   -3.8505    0.0000 O   0  0  0  0  0  0  0  0  0  0  0  0
   -1.4731   -6.4486    0.0000 O   0  0  0  0  0  0  0  0  0  0  0  0
   -0.9240   -4.3995    0.0000 N   0  0  0  0  0  0  0  0  0  0  0  0
    0.3750   -5.1495    0.0000 S   0  0  0  0  0  0  0  0  0  0  0  0
    1.6740   -4.3995    0.0000 C   0  0  0  0  0  0  0  0  0  0  0  0
    0.3750   -6.6495    0.0000 C   0  0  0  0  0  0  0  0  0  0  0  0
  1  3  2  0  0  0  0
  1  2  1  0  0  0  0
  2  4  2  0  0  0  0
  2 11  1  0  0  0  0
  3  5  1  0  0  0  0
  4  6  1  0  0  0  0
  5  6  2  0  0  0  0
  5  7  1  0  0  0  0
  7  8  1  0  0  0  0
  8  9  2  0  0  0  0
  8 10  1  0  0  0  0
 11 12  2  0  0  0  0
 11 13  2  0  0  0  0
 11 14  1  0  0  0  0
 14 15  2  0  0  0  0
 15 16  1  0  0  0  0
 15 17  1  0  0  0  0
M  END
