20619
 OpenBabel03021519512D

 18 19  0  0  0  0  0  0  0  0999 V2000
   -2.1495    0.3750    0.0000 C   0  0  0  0  0  0  0  0  0  0  0  0
   -8.8995    4.2721    0.0000 C   0  0  0  0  0  0  0  0  0  0  0  0
   -1.3995   -0.9240    0.0000 C   0  0  0  0  0  0  0  0  0  0  0  0
   -4.3995   -0.9240    0.0000 C   0  0  0  0  0  0  0  0  0  0  0  0
   -8.8995    1.6740    0.0000 C   0  0  0  0  0  0  0  0  0  0  0  0
  -10.3995    4.2721    0.0000 C   0  0  0  0  0  0  0  0  0  0  0  0
   -2.1495   -2.2231    0.0000 C   0  0  0  0  0  0  0  0  0  0  0  0
   -3.6495   -2.2231    0.0000 C   0  0  0  0  0  0  0  0  0  0  0  0
  -10.3995    1.6740    0.0000 C   0  0  0  0  0  0  0  0  0  0  0  0
  -11.1495    2.9731    0.0000 C   0  0  0  0  0  0  0  0  0  0  0  0
   -8.1495    2.9731    0.0000 N   0  0  0  0  0  0  0  0  0  0  0  0
   -6.6495    0.3750    0.0000 C   0  0  0  0  0  0  0  0  0  0  0  0
   -5.8995    1.6740    0.0000 S   0  0  0  0  0  0  0  0  0  0  0  0
   -3.6495    0.3750    0.0000 N   0  0  0  0  0  0  0  0  0  0  0  0
  -11.1495    0.3750    0.0000 C   0  0  0  0  0  0  0  0  0  0  0  0
   -8.1495    0.3750    0.0000 N   0  0  0  0  0  0  0  0  0  0  0  0
   -5.8995   -0.9240    0.0000 N   0  0  0  0  0  0  0  0  0  0  0  0
   -4.3995   -3.5221    0.0000 C   0  0  0  0  0  0  0  0  0  0  0  0
  1 14  1  0  0  0  0
  1  3  2  0  0  0  0
  2 11  1  0  0  0  0
  2  6  2  0  0  0  0
  3  7  1  0  0  0  0
  4 14  2  0  0  0  0
  4 17  1  0  0  0  0
  4  8  1  0  0  0  0
  5 11  2  0  0  0  0
  5  9  1  0  0  0  0
  5 16  1  0  0  0  0
  6 10  1  0  0  0  0
  7  8  2  0  0  0  0
  8 18  1  0  0  0  0
  9 10  2  0  0  0  0
  9 15  1  0  0  0  0
 12 13  2  0  0  0  0
 12 16  1  0  0  0  0
 12 17  1  0  0  0  0
M  END
