81018
 OpenBabel03021519512D

 18 19  0  0  0  0  0  0  0  0999 V2000
   -8.1192   -8.5536    0.0000 S   0  0  0  0  0  0  0  0  0  0  0  0
   -8.1192   -5.5536    0.0000 H   0  0  0  0  0  0  0  0  0  0  0  0
   -6.8202   -6.3036    0.0000 N   0  0  0  0  0  0  0  0  0  0  0  0
   -5.5211   -8.5536    0.0000 N   0  0  0  0  0  0  0  0  0  0  0  0
   -5.5211   -4.0536    0.0000 O   0  0  0  0  0  0  0  0  0  0  0  0
   -5.5211  -10.0536    0.0000 H   0  0  0  0  0  0  0  0  0  0  0  0
   -0.2537   -3.9138    0.0000 O   0  0  0  0  0  0  0  0  0  0  0  0
   -1.4672   -1.8119    0.0000 O   0  0  0  0  0  0  0  0  0  0  0  0
   -5.5211   -5.5536    0.0000 C   0  0  0  0  0  0  0  0  0  0  0  0
   -4.2221   -6.3036    0.0000 C   0  0  0  0  0  0  0  0  0  0  0  0
   -4.2221   -7.8036    0.0000 C   0  0  0  0  0  0  0  0  0  0  0  0
    0.0000   -1.5000    0.0000 C   0  0  0  0  0  0  0  0  0  0  0  0
    0.7500   -2.7990    0.0000 C   0  0  0  0  0  0  0  0  0  0  0  0
   -1.6240   -3.3036    0.0000 C   0  0  0  0  0  0  0  0  0  0  0  0
   -6.8202   -7.8036    0.0000 C   0  0  0  0  0  0  0  0  0  0  0  0
   -2.9231   -8.5536    0.0000 C   0  0  0  0  0  0  0  0  0  0  0  0
   -2.9231   -5.5536    0.0000 C   0  0  0  0  0  0  0  0  0  0  0  0
   -2.9231   -4.0536    0.0000 C   0  0  0  0  0  0  0  0  0  0  0  0
  1 15  2  0  0  0  0
  2  3  1  0  0  0  0
  3  9  1  0  0  0  0
  3 15  1  0  0  0  0
  4 11  1  0  0  0  0
  4 15  1  0  0  0  0
  4  6  1  0  0  0  0
  5  9  2  0  0  0  0
  7 13  1  0  0  0  0
  7 14  1  0  0  0  0
  8 12  1  0  0  0  0
  8 14  1  0  0  0  0
  9 10  1  0  0  0  0
 10 11  2  0  0  0  0
 10 17  1  0  0  0  0
 11 16  1  0  0  0  0
 12 13  1  0  0  0  0
 14 18  1  0  0  0  0
 17 18  1  0  0  0  0
M  END
