105584
 OpenBabel03021519512D

 30 31  0  0  1  0  0  0  0  0999 V2000
   -7.0609   -3.3869    0.0000 O   0  0  0  0  0  0  0  0  0  0  0  0
   -3.3481   -4.3906    0.0000 C   0  0  0  0  0  0  0  0  0  0  0  0
   -2.0490   -5.1406    0.0000 C   0  0  0  0  0  0  0  0  0  0  0  0
   -4.6471   -5.1406    0.0000 C   0  0  0  0  0  0  0  0  0  0  0  0
   -2.0490   -6.6406    0.0000 C   0  0  0  0  0  0  0  0  0  0  0  0
   -4.6471   -6.6406    0.0000 C   0  0  0  0  0  0  0  0  0  0  0  0
   -5.9462   -4.3906    0.0000 C   0  0  3  0  0  0  0  0  0  0  0  0
   -6.5563   -5.7609    0.0000 C   0  0  3  0  0  0  0  0  0  0  0  0
   -8.0480   -5.6041    0.0000 C   0  0  3  0  0  0  0  0  0  0  0  0
   -8.3599   -4.1369    0.0000 C   0  0  3  0  0  0  0  0  0  0  0  0
   -3.3481   -7.3906    0.0000 C   0  0  0  0  0  0  0  0  0  0  0  0
   -9.7302   -3.5268    0.0000 C   0  0  0  0  0  0  0  0  0  0  0  0
   -9.8870   -2.0350    0.0000 O   0  0  0  0  0  0  0  0  0  0  0  0
  -11.2574   -1.4249    0.0000 C   0  0  0  0  0  0  0  0  0  0  0  0
  -11.4141    0.0669    0.0000 O   0  0  0  0  0  0  0  0  0  0  0  0
  -12.4709   -2.3066    0.0000 C   0  0  0  0  0  0  0  0  0  0  0  0
   -9.0517   -6.7188    0.0000 O   0  0  0  0  0  0  0  0  0  0  0  0
  -10.5189   -6.4070    0.0000 C   0  0  0  0  0  0  0  0  0  0  0  0
  -11.5226   -7.5217    0.0000 O   0  0  0  0  0  0  0  0  0  0  0  0
  -10.9825   -4.9804    0.0000 C   0  0  0  0  0  0  0  0  0  0  0  0
   -5.8062   -7.0599    0.0000 O   0  0  0  0  0  0  0  0  0  0  0  0
   -6.5562   -8.3590    0.0000 C   0  0  0  0  0  0  0  0  0  0  0  0
   -8.0562   -8.3590    0.0000 O   0  0  0  0  0  0  0  0  0  0  0  0
   -5.8062   -9.6580    0.0000 C   0  0  0  0  0  0  0  0  0  0  0  0
   -5.0645   -3.1771    0.0000 C   0  0  0  0  0  0  0  0  0  0  0  0
   -3.5727   -3.3338    0.0000 O   0  0  0  0  0  0  0  0  0  0  0  0
   -2.6910   -2.1203    0.0000 C   0  0  0  0  0  0  0  0  0  0  0  0
   -1.1992   -2.2771    0.0000 O   0  0  0  0  0  0  0  0  0  0  0  0
   -3.3011   -0.7500    0.0000 C   0  0  0  0  0  0  0  0  0  0  0  0
   -0.7500   -7.3906    0.0000 C   0  0  0  0  0  0  0  0  0  0  0  0
  1  7  1  0  0  0  0
  1 10  1  0  0  0  0
  2  3  2  0  0  0  0
  2  4  1  0  0  0  0
  3  5  1  0  0  0  0
  4  6  2  0  0  0  0
  4  7  1  0  0  0  0
  5 11  2  0  0  0  0
  5 30  1  0  0  0  0
  6 11  1  0  0  0  0
  7  8  1  0  0  0  0
  7 25  1  0  0  0  0
  8  9  1  0  0  0  0
  8 21  1  0  0  0  0
  9 10  1  0  0  0  0
  9 17  1  0  0  0  0
 10 12  1  0  0  0  0
 12 13  1  0  0  0  0
 13 14  1  0  0  0  0
 14 15  2  0  0  0  0
 14 16  1  0  0  0  0
 17 18  1  0  0  0  0
 18 19  2  0  0  0  0
 18 20  1  0  0  0  0
 21 22  1  0  0  0  0
 22 23  2  0  0  0  0
 22 24  1  0  0  0  0
 25 26  1  0  0  0  0
 26 27  1  0  0  0  0
 27 28  2  0  0  0  0
 27 29  1  0  0  0  0
M  END
