14142
 OpenBabel03021519512D

 25 27  0  0  0  0  0  0  0  0999 V2000
  -10.9799  -10.3188    0.0000 O   0  0  0  0  0  0  0  0  0  0  0  0
   -9.6809   -8.0688    0.0000 N   0  0  0  0  0  0  0  0  0  0  0  0
   -8.3818   -5.8188    0.0000 O   0  0  0  0  0  0  0  0  0  0  0  0
   -8.3818  -10.3188    0.0000 N   0  0  0  0  0  0  0  0  0  0  0  0
   -5.6562   -7.6052    0.0000 N   0  0  0  0  0  0  0  0  0  0  0  0
   -5.1927   -6.1786    0.0000 H   0  0  0  0  0  0  0  0  0  0  0  0
   -5.6562  -10.0323    0.0000 N   0  0  0  0  0  0  0  0  0  0  0  0
   -8.3818   -7.3188    0.0000 C   0  0  0  0  0  0  0  0  0  0  0  0
   -7.0828   -8.0688    0.0000 C   0  0  0  0  0  0  0  0  0  0  0  0
   -7.0828   -9.5688    0.0000 C   0  0  0  0  0  0  0  0  0  0  0  0
   -3.2745   -6.2207    0.0000 C   0  0  0  0  0  0  0  0  0  0  0  0
   -2.5245   -4.9216    0.0000 C   0  0  0  0  0  0  0  0  0  0  0  0
   -2.5245   -7.5197    0.0000 C   0  0  0  0  0  0  0  0  0  0  0  0
   -1.0245   -4.9216    0.0000 C   0  0  0  0  0  0  0  0  0  0  0  0
   -1.0245   -7.5197    0.0000 C   0  0  0  0  0  0  0  0  0  0  0  0
   -0.2745   -6.2207    0.0000 C   0  0  0  0  0  0  0  0  0  0  0  0
   -4.7745   -8.8188    0.0000 C   0  0  0  0  0  0  0  0  0  0  0  0
   -9.6809   -9.5688    0.0000 C   0  0  0  0  0  0  0  0  0  0  0  0
  -10.9799   -7.3188    0.0000 C   0  0  0  0  0  0  0  0  0  0  0  0
   -8.3818  -11.8188    0.0000 C   0  0  0  0  0  0  0  0  0  0  0  0
   -3.2745   -8.8188    0.0000 C   0  0  0  0  0  0  0  0  0  0  0  0
   -0.2745   -3.6226    0.0000 N   0  0  0  0  0  0  0  0  0  0  0  0
   -1.0245   -2.3236    0.0000 C   0  0  0  0  0  0  0  0  0  0  0  0
   -0.2745   -1.0245    0.0000 O   0  0  0  0  0  0  0  0  0  0  0  0
   -2.5245   -2.3236    0.0000 C   0  0  0  0  0  0  0  0  0  0  0  0
  1 18  2  0  0  0  0
  2  8  1  0  0  0  0
  2 18  1  0  0  0  0
  2 19  1  0  0  0  0
  3  8  2  0  0  0  0
  4 10  1  0  0  0  0
  4 18  1  0  0  0  0
  4 20  1  0  0  0  0
  5  9  1  0  0  0  0
  5 17  1  0  0  0  0
  5  6  1  0  0  0  0
  7 17  2  0  0  0  0
  7 10  1  0  0  0  0
  8  9  1  0  0  0  0
  9 10  2  0  0  0  0
 11 12  2  0  0  0  0
 11 13  1  0  0  0  0
 12 14  1  0  0  0  0
 13 15  2  0  0  0  0
 13 21  1  0  0  0  0
 14 16  2  0  0  0  0
 14 22  1  0  0  0  0
 15 16  1  0  0  0  0
 17 21  1  0  0  0  0
 22 23  1  0  0  0  0
 23 24  2  0  0  0  0
 23 25  1  0  0  0  0
M  END
