292923
 OpenBabel03021519512D

 23 26  0  0  0  0  0  0  0  0999 V2000
   -0.7722    9.0856    0.0000 C   0  0  0  0  0  0  0  0  0  0  0  0
   -1.3823    7.7152    0.0000 O   0  0  0  0  0  0  0  0  0  0  0  0
    0.7196    8.9288    0.0000 O   0  0  0  0  0  0  0  0  0  0  0  0
   -0.2676    6.7115    0.0000 C   0  0  0  0  0  0  0  0  0  0  0  0
    1.0315    7.4615    0.0000 C   0  0  0  0  0  0  0  0  0  0  0  0
   -0.2676    5.2115    0.0000 C   0  0  0  0  0  0  0  0  0  0  0  0
    2.3305    6.7115    0.0000 C   0  0  0  0  0  0  0  0  0  0  0  0
    1.0315    4.4615    0.0000 C   0  0  0  0  0  0  0  0  0  0  0  0
    2.3305    5.2115    0.0000 C   0  0  0  0  0  0  0  0  0  0  0  0
    3.6295    4.4615    0.0000 C   0  0  0  0  0  0  0  0  0  0  0  0
    3.6295    2.9615    0.0000 O   0  0  0  0  0  0  0  0  0  0  0  0
    1.0315    2.9615    0.0000 Br  0  0  0  0  0  0  0  0  0  0  0  0
    3.6295    7.4615    0.0000 C   0  0  0  0  0  0  0  0  0  0  0  0
    3.6295    8.9615    0.0000 C   0  0  0  0  0  0  0  0  0  0  0  0
    4.9286    9.7115    0.0000 C   0  0  0  0  0  0  0  0  0  0  0  0
    4.9286    6.7115    0.0000 C   0  0  0  0  0  0  0  0  0  0  0  0
    6.2276    8.9615    0.0000 C   0  0  0  0  0  0  0  0  0  0  0  0
    6.2276    7.4615    0.0000 C   0  0  0  0  0  0  0  0  0  0  0  0
    7.5267    9.7115    0.0000 C   0  0  0  0  0  0  0  0  0  0  0  0
    7.5267    6.7115    0.0000 C   0  0  0  0  0  0  0  0  0  0  0  0
    8.8257    8.9615    0.0000 C   0  0  0  0  0  0  0  0  0  0  0  0
    8.8257    7.4615    0.0000 C   0  0  0  0  0  0  0  0  0  0  0  0
    4.9286    5.2115    0.0000 N   0  0  0  0  0  0  0  0  0  0  0  0
  1  2  1  0  0  0  0
  1  3  1  0  0  0  0
  2  4  1  0  0  0  0
  3  5  1  0  0  0  0
  4  6  2  0  0  0  0
  4  5  1  0  0  0  0
  5  7  2  0  0  0  0
  6  8  1  0  0  0  0
  7  9  1  0  0  0  0
  8 12  1  0  0  0  0
  8  9  2  0  0  0  0
  9 10  1  0  0  0  0
 10 11  2  0  0  0  0
 10 23  1  0  0  0  0
 13 14  1  0  0  0  0
 13 16  2  0  0  0  0
 14 15  2  0  0  0  0
 15 17  1  0  0  0  0
 16 18  1  0  0  0  0
 16 23  1  0  0  0  0
 17 19  1  0  0  0  0
 17 18  2  0  0  0  0
 18 20  1  0  0  0  0
 19 21  2  0  0  0  0
 20 22  2  0  0  0  0
 21 22  1  0  0  0  0
M  END
