70959
 OpenBabel03021519512D

 13 13  0  0  0  0  0  0  0  0999 V2000
   -3.5221    7.3995    0.0000 Cl  0  0  0  0  0  0  0  0  0  0  0  0
   -2.2231    5.1495    0.0000 N   0  0  0  0  0  0  0  0  0  0  0  0
   -0.9240    7.3995    0.0000 N   0  0  0  0  0  0  0  0  0  0  0  0
   -2.2231    6.6495    0.0000 C   0  0  0  0  0  0  0  0  0  0  0  0
    0.3750    6.6495    0.0000 C   0  0  0  0  0  0  0  0  0  0  0  0
    0.3750    5.1495    0.0000 C   0  0  0  0  0  0  0  0  0  0  0  0
   -0.9240    4.3995    0.0000 C   0  0  0  0  0  0  0  0  0  0  0  0
   -0.9240    2.8995    0.0000 C   0  0  0  0  0  0  0  0  0  0  0  0
   -2.2231    2.1495    0.0000 O   0  0  0  0  0  0  0  0  0  0  0  0
    0.3750    2.1495    0.0000 N   0  0  0  0  0  0  0  0  0  0  0  0
    1.6740    7.3995    0.0000 C   0  0  0  0  0  0  0  0  0  0  0  0
    2.9731    6.6495    0.0000 O   0  0  0  0  0  0  0  0  0  0  0  0
    1.6740    8.8995    0.0000 N   0  0  0  0  0  0  0  0  0  0  0  0
  1  4  1  0  0  0  0
  2  4  2  0  0  0  0
  2  7  1  0  0  0  0
  3  5  2  0  0  0  0
  3  4  1  0  0  0  0
  5  6  1  0  0  0  0
  5 11  1  0  0  0  0
  6  7  2  0  0  0  0
  7  8  1  0  0  0  0
  8  9  2  0  0  0  0
  8 10  1  0  0  0  0
 11 12  2  0  0  0  0
 11 13  1  0  0  0  0
M  END
