290307
 OpenBabel03021519512D

 16 17  0  0  0  0  0  0  0  0999 V2000
   -4.1969    1.1488    0.0000 H   0  0  0  0  0  0  0  0  0  0  0  0
   -3.0362    0.1987    0.0000 N   0  0  0  0  0  0  0  0  0  0  0  0
   -3.3886   -1.2593    0.0000 C   0  0  0  0  0  0  0  0  0  0  0  0
   -2.4685   -2.4439    0.0000 C   0  0  0  0  0  0  0  0  0  0  0  0
   -1.6573    2.3321    0.0000 O   0  0  0  0  0  0  0  0  0  0  0  0
   -1.6765    0.8322    0.0000 C   0  0  0  0  0  0  0  0  0  0  0  0
   -0.9686   -2.4631    0.0000 C   0  0  0  0  0  0  0  0  0  0  0  0
   -0.3335    0.1641    0.0000 C   0  0  0  0  0  0  0  0  0  0  0  0
   -0.0184   -1.3024    0.0000 C   0  0  0  0  0  0  0  0  0  0  0  0
    0.9639    0.9169    0.0000 C   0  0  0  0  0  0  0  0  0  0  0  0
    1.4737   -1.4560    0.0000 O   0  0  0  0  0  0  0  0  0  0  0  0
    2.0808   -0.0843    0.0000 C   0  0  0  0  0  0  0  0  0  0  0  0
    1.1175    2.4091    0.0000 C   0  0  0  0  0  0  0  0  0  0  0  0
    3.5474    0.2307    0.0000 N   0  3  0  0  0  0  0  0  0  0  0  0
    4.0078    1.6583    0.0000 O   0  5  0  0  0  0  0  0  0  0  0  0
    4.5535   -0.8818    0.0000 O   0  0  0  0  0  0  0  0  0  0  0  0
  1  2  1  0  0  0  0
  2  6  1  0  0  0  0
  2  3  1  0  0  0  0
  3  4  1  0  0  0  0
  4  7  1  0  0  0  0
  5  6  2  0  0  0  0
  6  8  1  0  0  0  0
  7  9  1  0  0  0  0
  8 10  1  0  0  0  0
  8  9  2  0  0  0  0
  9 11  1  0  0  0  0
 10 12  2  0  0  0  0
 10 13  1  0  0  0  0
 11 12  1  0  0  0  0
 12 14  1  0  0  0  0
 14 15  1  0  0  0  0
 14 16  2  0  0  0  0
M  CHG  2  14   1  15  -1
M  END
