40669
 OpenBabel03021519512D

 15 16  0  0  0  0  0  0  0  0999 V2000
   -9.3585    1.5371    0.0000 N   0  0  0  0  0  0  0  0  0  0  0  0
   -8.0595   -0.7129    0.0000 N   0  0  0  0  0  0  0  0  0  0  0  0
   -8.0595    3.7871    0.0000 S   0  0  0  0  0  0  0  0  0  0  0  0
   -8.0595   -2.2129    0.0000 H   0  0  0  0  0  0  0  0  0  0  0  0
   -5.3338    2.0006    0.0000 N   0  0  0  0  0  0  0  0  0  0  0  0
   -5.3338   -0.4264    0.0000 N   0  0  0  0  0  0  0  0  0  0  0  0
   -8.0595    2.2871    0.0000 C   0  0  0  0  0  0  0  0  0  0  0  0
   -6.7604    1.5371    0.0000 C   0  0  0  0  0  0  0  0  0  0  0  0
   -6.7604    0.0371    0.0000 C   0  0  0  0  0  0  0  0  0  0  0  0
   -4.4522    0.7871    0.0000 C   0  0  0  0  0  0  0  0  0  0  0  0
   -9.3585    0.0371    0.0000 C   0  0  0  0  0  0  0  0  0  0  0  0
  -10.6575   -0.7129    0.0000 N   0  0  0  0  0  0  0  0  0  0  0  0
   -4.8703   -1.8530    0.0000 C   0  0  0  0  0  0  0  0  0  0  0  0
   -3.4031   -2.1649    0.0000 C   0  0  0  0  0  0  0  0  0  0  0  0
   -2.9395   -3.5915    0.0000 C   0  0  0  0  0  0  0  0  0  0  0  0
  1 11  2  0  0  0  0
  1  7  1  0  0  0  0
  2  9  1  0  0  0  0
  2 11  1  0  0  0  0
  2  4  1  0  0  0  0
  3  7  2  0  0  0  0
  5 10  2  0  0  0  0
  5  8  1  0  0  0  0
  6  9  1  0  0  0  0
  6 10  1  0  0  0  0
  6 13  1  0  0  0  0
  7  8  1  0  0  0  0
  8  9  2  0  0  0  0
 11 12  1  0  0  0  0
 13 14  1  0  0  0  0
 14 15  1  0  0  0  0
M  END
