21333
 OpenBabel03021519512D

 19 20  0  0  0  0  0  0  0  0999 V2000
    2.0490    3.7391    0.0000 N   0  0  0  0  0  0  0  0  0  0  0  0
    4.6471    5.2391    0.0000 C   0  0  0  0  0  0  0  0  0  0  0  0
    3.3481    5.9891    0.0000 C   0  0  0  0  0  0  0  0  0  0  0  0
    2.0490    5.2391    0.0000 C   0  0  0  0  0  0  0  0  0  0  0  0
    4.6471    3.7391    0.0000 C   0  0  0  0  0  0  0  0  0  0  0  0
    6.1243    4.9786    0.0000 C   0  0  0  0  0  0  0  0  0  0  0  0
    7.0885    6.1277    0.0000 C   0  0  0  0  0  0  0  0  0  0  0  0
    8.5657    5.8672    0.0000 C   0  0  0  0  0  0  0  0  0  0  0  0
    9.0788    4.4577    0.0000 C   0  0  0  0  0  0  0  0  0  0  0  0
    6.6374    3.5691    0.0000 C   0  0  0  0  0  0  0  0  0  0  0  0
    8.1146    3.3086    0.0000 C   0  0  0  0  0  0  0  0  0  0  0  0
    3.3481    2.9891    0.0000 C   0  0  0  0  0  0  0  0  0  0  0  0
    0.7500    2.9891    0.0000 C   0  0  0  0  0  0  0  0  0  0  0  0
    5.1601    6.6486    0.0000 C   0  0  0  0  0  0  0  0  0  0  0  0
    5.6732    8.0582    0.0000 N   0  0  0  0  0  0  0  0  0  0  0  0
    8.6276    1.8991    0.0000 O   0  0  0  0  0  0  0  0  0  0  0  0
    7.6634    0.7500    0.0000 C   0  0  0  0  0  0  0  0  0  0  0  0
    9.5299    7.0163    0.0000 O   0  0  0  0  0  0  0  0  0  0  0  0
   11.0071    6.7558    0.0000 C   0  0  0  0  0  0  0  0  0  0  0  0
  1  4  1  0  0  0  0
  1 12  1  0  0  0  0
  1 13  1  0  0  0  0
  2  3  1  0  0  0  0
  2  5  1  0  0  0  0
  2  6  1  0  0  0  0
  2 14  1  0  0  0  0
  3  4  1  0  0  0  0
  5 12  1  0  0  0  0
  6 10  2  0  0  0  0
  6  7  1  0  0  0  0
  7  8  2  0  0  0  0
  8  9  1  0  0  0  0
  8 18  1  0  0  0  0
  9 11  2  0  0  0  0
 10 11  1  0  0  0  0
 11 16  1  0  0  0  0
 14 15  3  0  0  0  0
 16 17  1  0  0  0  0
 18 19  1  0  0  0  0
M  END
