202386
 OpenBabel03021519512D

 39 43  0  0  0  0  0  0  0  0999 V2000
  -17.2625    7.6005    0.0000 N   0  0  0  0  0  0  0  0  0  0  0  0
   -1.6740    0.1005    0.0000 N   0  0  0  0  0  0  0  0  0  0  0  0
  -19.8606    7.6005    0.0000 C   0  0  0  0  0  0  0  0  0  0  0  0
  -21.1596    6.8505    0.0000 C   0  0  0  0  0  0  0  0  0  0  0  0
  -18.5616    6.8505    0.0000 C   0  0  0  0  0  0  0  0  0  0  0  0
  -18.5615    5.3505    0.0000 C   0  0  0  0  0  0  0  0  0  0  0  0
  -21.1596    5.3505    0.0000 C   0  0  0  0  0  0  0  0  0  0  0  0
  -19.8606    4.6005    0.0000 C   0  0  0  0  0  0  0  0  0  0  0  0
  -17.2625    4.6005    0.0000 C   0  0  0  0  0  0  0  0  0  0  0  0
  -15.9635    6.8505    0.0000 C   0  0  0  0  0  0  0  0  0  0  0  0
  -15.9635    5.3505    0.0000 C   0  0  0  0  0  0  0  0  0  0  0  0
   -8.1692    0.8505    0.0000 C   0  0  0  0  0  0  0  0  0  0  0  0
   -9.4683    0.1005    0.0000 C   0  0  0  0  0  0  0  0  0  0  0  0
   -6.8702    0.1005    0.0000 C   0  0  0  0  0  0  0  0  0  0  0  0
   -6.8702   -1.3995    0.0000 C   0  0  0  0  0  0  0  0  0  0  0  0
   -9.4683   -1.3995    0.0000 C   0  0  0  0  0  0  0  0  0  0  0  0
   -8.1692   -2.1495    0.0000 C   0  0  0  0  0  0  0  0  0  0  0  0
  -13.3654    2.3505    0.0000 C   0  0  0  0  0  0  0  0  0  0  0  0
  -14.6644    3.1005    0.0000 C   0  0  0  0  0  0  0  0  0  0  0  0
  -13.3654    0.8505    0.0000 C   0  0  0  0  0  0  0  0  0  0  0  0
  -14.6644    0.1005    0.0000 C   0  0  0  0  0  0  0  0  0  0  0  0
  -15.9635    2.3505    0.0000 C   0  0  0  0  0  0  0  0  0  0  0  0
  -15.9635    0.8505    0.0000 C   0  0  0  0  0  0  0  0  0  0  0  0
   -4.2721    0.1005    0.0000 C   0  0  0  0  0  0  0  0  0  0  0  0
   -4.2721   -1.3995    0.0000 C   0  0  0  0  0  0  0  0  0  0  0  0
   -2.9731    0.8505    0.0000 C   0  0  0  0  0  0  0  0  0  0  0  0
   -2.9731   -2.1495    0.0000 C   0  0  0  0  0  0  0  0  0  0  0  0
   -1.6740   -1.3995    0.0000 C   0  0  0  0  0  0  0  0  0  0  0  0
  -22.4587    4.6005    0.0000 N   0  3  0  0  0  0  0  0  0  0  0  0
  -23.7577    5.3504    0.0000 O   0  5  0  0  0  0  0  0  0  0  0  0
  -22.4587    3.1005    0.0000 O   0  0  0  0  0  0  0  0  0  0  0  0
  -17.2625    3.1005    0.0000 N   0  0  0  0  0  0  0  0  0  0  0  0
  -14.6644   -1.3995    0.0000 N   0  3  0  0  0  0  0  0  0  0  0  0
  -13.3654   -2.1495    0.0000 O   0  5  0  0  0  0  0  0  0  0  0  0
  -15.9635   -2.1495    0.0000 O   0  0  0  0  0  0  0  0  0  0  0  0
  -12.0663    0.1005    0.0000 C   0  0  0  0  0  0  0  0  0  0  0  0
  -12.0663   -1.3995    0.0000 O   0  0  0  0  0  0  0  0  0  0  0  0
  -10.7673    0.8505    0.0000 N   0  0  0  0  0  0  0  0  0  0  0  0
   -5.5712   -2.1495    0.0000 N   0  0  0  0  0  0  0  0  0  0  0  0
  1 10  2  0  0  0  0
  1  5  1  0  0  0  0
  2 26  2  0  0  0  0
  2 28  1  0  0  0  0
  3  4  2  0  0  0  0
  3  5  1  0  0  0  0
  4  7  1  0  0  0  0
  5  6  2  0  0  0  0
  6  8  1  0  0  0  0
  6  9  1  0  0  0  0
  7  8  2  0  0  0  0
  7 29  1  0  0  0  0
  9 11  2  0  0  0  0
  9 32  1  0  0  0  0
 10 11  1  0  0  0  0
 12 14  2  0  0  0  0
 12 13  1  0  0  0  0
 13 16  2  0  0  0  0
 13 38  1  0  0  0  0
 14 15  1  0  0  0  0
 15 17  2  0  0  0  0
 15 39  1  0  0  0  0
 16 17  1  0  0  0  0
 18 19  2  0  0  0  0
 18 20  1  0  0  0  0
 19 22  1  0  0  0  0
 20 21  2  0  0  0  0
 20 36  1  0  0  0  0
 21 23  1  0  0  0  0
 21 33  1  0  0  0  0
 22 23  2  0  0  0  0
 22 32  1  0  0  0  0
 24 25  2  0  0  0  0
 24 26  1  0  0  0  0
 25 27  1  0  0  0  0
 25 39  1  0  0  0  0
 27 28  2  0  0  0  0
 29 30  1  0  0  0  0
 29 31  2  0  0  0  0
 33 34  1  0  0  0  0
 33 35  2  0  0  0  0
 36 37  2  0  0  0  0
 36 38  1  0  0  0  0
M  CHG  4  29   1  30  -1  33   1  34  -1
M  END
