121868
 OpenBabel03021519512D

 32 39  0  0  1  0  0  0  0  0999 V2000
    9.7711    4.7398    0.0000 O   0  0  0  0  0  0  0  0  0  0  0  0
    9.9439    7.2262    0.0000 N   0  0  0  0  0  0  0  0  0  0  0  0
    9.7971   11.8113    0.0000 N   0  0  3  0  0  0  0  0  0  0  0  0
   13.8981    6.9253    0.0000 O   0  0  0  0  0  0  0  0  0  0  0  0
   11.9246    5.9643    0.0000 C   0  0  0  0  0  0  0  0  0  0  0  0
   10.5748    6.0120    0.0000 C   0  0  0  0  0  0  0  0  0  0  0  0
   12.6326    7.1968    0.0000 C   0  0  3  0  0  0  0  0  0  0  0  0
   11.9834    8.3596    0.0000 C   0  0  3  0  0  0  0  0  0  0  0  0
   12.7133    9.5004    0.0000 C   0  0  3  0  0  0  0  0  0  0  0  0
   14.8849    7.7177    0.0000 C   0  0  0  0  0  0  0  0  0  0  0  0
   14.8885    8.9208    0.0000 C   0  0  0  0  0  0  0  0  0  0  0  0
   13.9531    9.6728    0.0000 C   0  0  0  0  0  0  0  0  0  0  0  0
   12.6840   12.1818    0.0000 C   0  0  0  0  0  0  0  0  0  0  0  0
   10.5931    8.4293    0.0000 C   0  0  3  0  0  0  0  0  0  0  0  0
   12.0201   10.7108    0.0000 C   0  0  0  0  0  0  0  0  0  0  0  0
    9.9989    9.5261    0.0000 C   0  0  3  0  0  0  0  0  0  0  0  0
   10.6775   10.7549    0.0000 C   0  0  3  0  0  0  0  0  0  0  0  0
    8.6417    9.8635    0.0000 C   0  0  0  0  0  0  0  0  0  0  0  0
    8.4400    9.2400    0.0000 C   0  0  0  0  0  0  0  0  0  0  0  0
    7.0645    6.8740    0.0000 C   0  0  0  0  0  0  0  0  0  0  0  0
    5.6889    7.6773    0.0000 C   0  0  0  0  0  0  0  0  0  0  0  0
    8.4400    7.6773    0.0000 C   0  0  0  0  0  0  0  0  0  0  0  0
    5.6889    9.2400    0.0000 C   0  0  0  0  0  0  0  0  0  0  0  0
    7.0645   10.0396    0.0000 C   0  0  0  0  0  0  0  0  0  0  0  0
    8.5206   11.2867    0.0000 C   0  0  0  0  0  0  0  0  0  0  0  0
   11.8814    3.3583    0.0000 C   0  0  0  0  0  0  0  0  0  0  0  0
   12.6121    2.0429    0.0000 C   0  0  0  0  0  0  0  0  0  0  0  0
   11.8383    0.7524    0.0000 C   0  0  0  0  0  0  0  0  0  0  0  0
   10.3337    0.7773    0.0000 C   0  0  0  0  0  0  0  0  0  0  0  0
    9.6030    2.0927    0.0000 C   0  0  0  0  0  0  0  0  0  0  0  0
   10.3769    3.3833    0.0000 C   0  0  0  0  0  0  0  0  0  0  0  0
   12.6553    4.6488    0.0000 C   0  0  0  0  0  0  0  0  0  0  0  0
  1  6  2  0  0  0  0
  2  6  1  0  0  0  0
  2 14  1  0  0  0  0
  2 22  1  0  0  0  0
  3 17  1  0  0  0  0
  3 13  1  0  0  0  0
  3 25  1  0  0  0  0
  4  7  1  0  0  0  0
  4 10  1  0  0  0  0
  5  6  1  0  0  0  0
  5  7  1  0  0  0  0
  5 32  2  0  0  0  0
  7  8  1  0  0  0  0
  8  9  1  0  0  0  0
  8 14  1  0  0  0  0
  9 12  1  0  0  0  0
  9 15  1  0  0  0  0
 10 11  1  0  0  0  0
 11 12  2  0  0  0  0
 12 13  1  0  0  0  0
 14 16  1  0  0  0  0
 15 17  1  0  0  0  0
 16 17  1  0  0  0  0
 16 18  1  0  0  0  0
 16 19  1  0  0  0  0
 18 25  1  0  0  0  0
 19 22  2  0  0  0  0
 19 24  1  0  0  0  0
 20 21  2  0  0  0  0
 20 22  1  0  0  0  0
 21 23  1  0  0  0  0
 23 24  2  0  0  0  0
 26 27  2  0  0  0  0
 26 31  1  0  0  0  0
 26 32  1  0  0  0  0
 27 28  1  0  0  0  0
 28 29  2  0  0  0  0
 29 30  1  0  0  0  0
 30 31  2  0  0  0  0
M  END
