215684
 OpenBabel03021519512D

 23 24  0  0  0  0  0  0  0  0999 V2000
    7.5197   -7.0245    0.0000 O   0  0  0  0  0  0  0  0  0  0  0  0
    7.5197   -2.5245    0.0000 C   0  0  0  0  0  0  0  0  0  0  0  0
    7.5197   -1.0245    0.0000 C   0  0  0  0  0  0  0  0  0  0  0  0
    6.2207   -3.2745    0.0000 C   0  0  0  0  0  0  0  0  0  0  0  0
    6.2207   -0.2745    0.0000 C   0  0  0  0  0  0  0  0  0  0  0  0
    4.9216   -2.5245    0.0000 C   0  0  0  0  0  0  0  0  0  0  0  0
    4.9216   -1.0245    0.0000 C   0  0  0  0  0  0  0  0  0  0  0  0
   10.1178   -7.0245    0.0000 C   0  0  0  0  0  0  0  0  0  0  0  0
    8.8188   -7.7745    0.0000 C   0  0  0  0  0  0  0  0  0  0  0  0
   11.4169   -7.7745    0.0000 C   0  0  0  0  0  0  0  0  0  0  0  0
    8.8188   -9.2745    0.0000 C   0  0  0  0  0  0  0  0  0  0  0  0
   11.4169   -9.2745    0.0000 C   0  0  0  0  0  0  0  0  0  0  0  0
   10.1178  -10.0245    0.0000 C   0  0  0  0  0  0  0  0  0  0  0  0
    6.2207    1.2255    0.0000 N   0  3  0  0  0  0  0  0  0  0  0  0
    7.5197    1.9755    0.0000 O   0  5  0  0  0  0  0  0  0  0  0  0
    4.9216    1.9755    0.0000 O   0  0  0  0  0  0  0  0  0  0  0  0
    6.2207   -4.7745    0.0000 N   0  0  0  0  0  0  0  0  0  0  0  0
    3.6226   -3.2745    0.0000 O   0  0  0  0  0  0  0  0  0  0  0  0
    3.6226   -4.7745    0.0000 C   0  0  0  0  0  0  0  0  0  0  0  0
    7.5197   -5.5245    0.0000 C   0  0  0  0  0  0  0  0  0  0  0  0
    8.8188   -4.7745    0.0000 O   0  0  0  0  0  0  0  0  0  0  0  0
   12.7159  -10.0245    0.0000 O   0  0  0  0  0  0  0  0  0  0  0  0
   14.0149   -9.2745    0.0000 C   0  0  0  0  0  0  0  0  0  0  0  0
  1  9  1  0  0  0  0
  1 20  1  0  0  0  0
  2  3  2  0  0  0  0
  2  4  1  0  0  0  0
  3  5  1  0  0  0  0
  4  6  2  0  0  0  0
  4 17  1  0  0  0  0
  5  7  2  0  0  0  0
  5 14  1  0  0  0  0
  6  7  1  0  0  0  0
  6 18  1  0  0  0  0
  8 10  2  0  0  0  0
  8  9  1  0  0  0  0
  9 11  2  0  0  0  0
 10 12  1  0  0  0  0
 11 13  1  0  0  0  0
 12 13  2  0  0  0  0
 12 22  1  0  0  0  0
 14 15  1  0  0  0  0
 14 16  2  0  0  0  0
 17 20  1  0  0  0  0
 18 19  1  0  0  0  0
 20 21  2  0  0  0  0
 22 23  1  0  0  0  0
M  CHG  2  14   1  15  -1
M  END
