164435
 OpenBabel03021519512D

 24 26  0  0  0  0  0  0  0  0999 V2000
    3.3481  -15.0000    0.0000 Cl  0  0  0  0  0  0  0  0  0  0  0  0
    5.9462  -12.0000    0.0000 C   0  0  0  0  0  0  0  0  0  0  0  0
    7.2452  -12.7500    0.0000 C   0  0  0  0  0  0  0  0  0  0  0  0
    4.6471  -12.7500    0.0000 C   0  0  0  0  0  0  0  0  0  0  0  0
    7.2452  -14.2500    0.0000 C   0  0  0  0  0  0  0  0  0  0  0  0
    4.6471  -14.2500    0.0000 C   0  0  0  0  0  0  0  0  0  0  0  0
    5.9462  -15.0000    0.0000 C   0  0  0  0  0  0  0  0  0  0  0  0
    3.3481   -7.5000    0.0000 C   0  0  0  0  0  0  0  0  0  0  0  0
    3.3481   -6.0000    0.0000 C   0  0  0  0  0  0  0  0  0  0  0  0
    2.0490   -8.2500    0.0000 C   0  0  0  0  0  0  0  0  0  0  0  0
    0.7500   -7.5000    0.0000 C   0  0  0  0  0  0  0  0  0  0  0  0
    2.0490   -5.2500    0.0000 C   0  0  0  0  0  0  0  0  0  0  0  0
    0.7500   -6.0000    0.0000 C   0  0  0  0  0  0  0  0  0  0  0  0
    4.6471   -3.7500    0.0000 C   0  0  0  0  0  0  0  0  0  0  0  0
    3.3481   -3.0000    0.0000 C   0  0  0  0  0  0  0  0  0  0  0  0
    5.9461   -3.0000    0.0000 C   0  0  0  0  0  0  0  0  0  0  0  0
    3.3481   -1.5000    0.0000 C   0  0  0  0  0  0  0  0  0  0  0  0
    5.9461   -1.5000    0.0000 C   0  0  0  0  0  0  0  0  0  0  0  0
    4.6471   -0.7500    0.0000 C   0  0  0  0  0  0  0  0  0  0  0  0
    2.0490   -3.7500    0.0000 N   0  0  0  0  0  0  0  0  0  0  0  0
    2.0491   -9.7500    0.0000 N   0  0  0  0  0  0  0  0  0  0  0  0
    3.3481  -10.5000    0.0000 C   0  0  0  0  0  0  0  0  0  0  0  0
    4.6471   -9.7500    0.0000 O   0  0  0  0  0  0  0  0  0  0  0  0
    3.3481  -12.0000    0.0000 N   0  0  0  0  0  0  0  0  0  0  0  0
  1  6  1  0  0  0  0
  2  3  2  0  0  0  0
  2  4  1  0  0  0  0
  3  5  1  0  0  0  0
  4  6  2  0  0  0  0
  4 24  1  0  0  0  0
  5  7  2  0  0  0  0
  6  7  1  0  0  0  0
  8 10  2  0  0  0  0
  8  9  1  0  0  0  0
  9 12  2  0  0  0  0
 10 11  1  0  0  0  0
 10 21  1  0  0  0  0
 11 13  2  0  0  0  0
 12 13  1  0  0  0  0
 12 20  1  0  0  0  0
 14 16  2  0  0  0  0
 14 15  1  0  0  0  0
 15 17  2  0  0  0  0
 15 20  1  0  0  0  0
 16 18  1  0  0  0  0
 17 19  1  0  0  0  0
 18 19  2  0  0  0  0
 21 22  1  0  0  0  0
 22 23  2  0  0  0  0
 22 24  1  0  0  0  0
M  END
