35676
 OpenBabel03021519512D

 16 17  0  0  0  0  0  0  0  0999 V2000
   -6.7156    0.7747    0.0000 O   0  0  0  0  0  0  0  0  0  0  0  0
   -4.5776   -0.8729    0.0000 C   0  0  0  0  0  0  0  0  0  0  0  0
   -5.8766   -1.6229    0.0000 C   0  0  0  0  0  0  0  0  0  0  0  0
   -3.2785   -1.6229    0.0000 C   0  0  0  0  0  0  0  0  0  0  0  0
   -7.0494   -0.6876    0.0000 C   0  0  0  0  0  0  0  0  0  0  0  0
   -8.5117   -1.0214    0.0000 C   0  0  0  0  0  0  0  0  0  0  0  0
   -3.2785   -3.1229    0.0000 C   0  0  0  0  0  0  0  0  0  0  0  0
   -5.8766   -3.1229    0.0000 C   0  0  0  0  0  0  0  0  0  0  0  0
   -9.1626   -2.3729    0.0000 C   0  0  0  0  0  0  0  0  0  0  0  0
   -4.5776   -3.8729    0.0000 C   0  0  0  0  0  0  0  0  0  0  0  0
   -7.0494   -4.0581    0.0000 C   0  0  0  0  0  0  0  0  0  0  0  0
   -8.5118   -3.7243    0.0000 C   0  0  0  0  0  0  0  0  0  0  0  0
   -9.4470    0.1513    0.0000 O   0  0  0  0  0  0  0  0  0  0  0  0
   -4.5776    0.6271    0.0000 O   0  0  0  0  0  0  0  0  0  0  0  0
   -1.9795   -0.8729    0.0000 O   0  0  0  0  0  0  0  0  0  0  0  0
   -1.9795   -3.8729    0.0000 O   0  0  0  0  0  0  0  0  0  0  0  0
  1  5  2  0  0  0  0
  2  4  2  0  0  0  0
  2  3  1  0  0  0  0
  2 14  1  0  0  0  0
  3  8  2  0  0  0  0
  3  5  1  0  0  0  0
  4  7  1  0  0  0  0
  4 15  1  0  0  0  0
  5  6  1  0  0  0  0
  6  9  2  0  0  0  0
  6 13  1  0  0  0  0
  7 10  2  0  0  0  0
  7 16  1  0  0  0  0
  8 10  1  0  0  0  0
  8 11  1  0  0  0  0
  9 12  1  0  0  0  0
 11 12  2  0  0  0  0
M  END
