62129
 OpenBabel03021519512D

 15 17  0  0  0  0  0  0  0  0999 V2000
   -1.0352   -2.8879    0.0000 N   0  0  0  0  0  0  0  0  0  0  0  0
   -1.9169   -1.6744    0.0000 H   0  0  0  0  0  0  0  0  0  0  0  0
    0.9283   -4.3145    0.0000 N   0  0  0  0  0  0  0  0  0  0  0  0
    0.4648   -2.8879    0.0000 C   0  0  0  0  0  0  0  0  0  0  0  0
   -1.4987   -4.3145    0.0000 C   0  0  0  0  0  0  0  0  0  0  0  0
   -0.2852   -5.1962    0.0000 C   0  0  0  0  0  0  0  0  0  0  0  0
   -2.8690   -4.9246    0.0000 C   0  0  0  0  0  0  0  0  0  0  0  0
   -4.0826   -4.0430    0.0000 C   0  0  0  0  0  0  0  0  0  0  0  0
   -5.4529   -4.6531    0.0000 C   0  0  0  0  0  0  0  0  0  0  0  0
   -0.4420   -6.6880    0.0000 C   0  0  0  0  0  0  0  0  0  0  0  0
   -3.0258   -6.4164    0.0000 C   0  0  0  0  0  0  0  0  0  0  0  0
   -5.6097   -6.1448    0.0000 C   0  0  0  0  0  0  0  0  0  0  0  0
   -1.8123   -7.2981    0.0000 C   0  0  0  0  0  0  0  0  0  0  0  0
   -4.3961   -7.0265    0.0000 C   0  0  0  0  0  0  0  0  0  0  0  0
   -6.9800   -6.7549    0.0000 O   0  0  0  0  0  0  0  0  0  0  0  0
  1  4  1  0  0  0  0
  1  5  1  0  0  0  0
  1  2  1  0  0  0  0
  3  4  2  0  0  0  0
  3  6  1  0  0  0  0
  5  6  2  0  0  0  0
  5  7  1  0  0  0  0
  6 10  1  0  0  0  0
  7 11  2  0  0  0  0
  7  8  1  0  0  0  0
  8  9  2  0  0  0  0
  9 12  1  0  0  0  0
 10 13  2  0  0  0  0
 11 13  1  0  0  0  0
 11 14  1  0  0  0  0
 12 14  2  0  0  0  0
 12 15  1  0  0  0  0
M  END
