45572
 OpenBabel03021519512D

 28 30  0  0  0  0  0  0  0  0999 V2000
   -6.0121   -3.0450    0.0000 H   0  0  0  0  0  0  0  0  0  0  0  0
   -4.5424   -3.3450    0.0000 N   0  0  0  0  0  0  0  0  0  0  0  0
   -4.0228   -0.7995    0.0000 O   0  0  0  0  0  0  0  0  0  0  0  0
   -1.0834   -1.3995    0.0000 N   0  0  0  0  0  0  0  0  0  0  0  0
    0.3863   -1.6995    0.0000 N   0  0  0  0  0  0  0  0  0  0  0  0
   -5.0620   -5.8906    0.0000 C   0  0  0  0  0  0  0  0  0  0  0  0
   -4.5870   -7.3134    0.0000 C   0  0  0  0  0  0  0  0  0  0  0  0
   -4.0674   -4.7678    0.0000 C   0  0  0  0  0  0  0  0  0  0  0  0
   -2.5977   -5.0679    0.0000 C   0  0  0  0  0  0  0  0  0  0  0  0
   -3.1173   -7.6134    0.0000 C   0  0  0  0  0  0  0  0  0  0  0  0
   -1.6030   -3.9451    0.0000 C   0  0  0  0  0  0  0  0  0  0  0  0
   -3.5477   -2.2223    0.0000 C   0  0  0  0  0  0  0  0  0  0  0  0
   -2.0780   -2.5223    0.0000 C   0  0  0  0  0  0  0  0  0  0  0  0
   -2.1226   -6.4906    0.0000 C   0  0  0  0  0  0  0  0  0  0  0  0
    1.3401    0.7172    0.0000 C   0  0  0  0  0  0  0  0  0  0  0  0
    2.5146    1.6502    0.0000 C   0  0  0  0  0  0  0  0  0  0  0  0
    1.5608   -0.7665    0.0000 C   0  0  0  0  0  0  0  0  0  0  0  0
    3.9099    1.0995    0.0000 C   0  0  0  0  0  0  0  0  0  0  0  0
    2.9561   -1.3171    0.0000 C   0  0  0  0  0  0  0  0  0  0  0  0
    4.1306   -0.3841    0.0000 C   0  0  0  0  0  0  0  0  0  0  0  0
   -0.1333   -4.2451    0.0000 O   0  0  0  0  0  0  0  0  0  0  0  0
    3.3976   -4.2845    0.0000 N   0  0  0  0  0  0  0  0  0  0  0  0
    2.2231   -5.2175    0.0000 C   0  0  0  0  0  0  0  0  0  0  0  0
    4.7929   -4.8351    0.0000 C   0  0  0  0  0  0  0  0  0  0  0  0
    3.1769   -2.8008    0.0000 S   0  0  0  0  0  0  0  0  0  0  0  0
    1.6932   -3.0216    0.0000 O   0  0  0  0  0  0  0  0  0  0  0  0
    4.6605   -2.5801    0.0000 O   0  0  0  0  0  0  0  0  0  0  0  0
    5.0844    2.0325    0.0000 C   0  0  0  0  0  0  0  0  0  0  0  0
  1  2  1  0  0  0  0
  2  8  1  0  0  0  0
  2 12  1  0  0  0  0
  3 12  2  0  0  0  0
  4 13  1  0  0  0  0
  4  5  2  0  0  0  0
  5 17  1  0  0  0  0
  6  7  2  0  0  0  0
  6  8  1  0  0  0  0
  7 10  1  0  0  0  0
  8  9  2  0  0  0  0
  9 11  1  0  0  0  0
  9 14  1  0  0  0  0
 10 14  2  0  0  0  0
 11 13  2  0  0  0  0
 11 21  1  0  0  0  0
 12 13  1  0  0  0  0
 15 16  2  0  0  0  0
 15 17  1  0  0  0  0
 16 18  1  0  0  0  0
 17 19  2  0  0  0  0
 18 20  2  0  0  0  0
 18 28  1  0  0  0  0
 19 20  1  0  0  0  0
 19 25  1  0  0  0  0
 22 23  1  0  0  0  0
 22 24  1  0  0  0  0
 22 25  1  0  0  0  0
 25 26  2  0  0  0  0
 25 27  2  0  0  0  0
M  END
