672441
 OpenBabel03021519512D

 11 10  0  0  0  0  0  0  0  0999 V2000
    1.5000    4.6471    0.0000 C   0  0  0  0  0  0  0  0  0  0  0  0
    0.7500    5.9462    0.0000 C   0  0  0  0  0  0  0  0  0  0  0  0
    0.7500    3.3481    0.0000 C   0  0  0  0  0  0  0  0  0  0  0  0
    3.0000    4.6471    0.0000 N   0  0  0  0  0  0  0  0  0  0  0  0
    3.7500    3.3481    0.0000 C   0  0  0  0  0  0  0  0  0  0  0  0
    5.2500    3.3481    0.0000 N   0  0  0  0  0  0  0  0  0  0  0  0
    3.0000    2.0490    0.0000 O   0  0  0  0  0  0  0  0  0  0  0  0
    3.7500    0.7500    0.0000 C   0  0  0  0  0  0  0  0  0  0  0  0
    6.0000    4.6471    0.0000 C   0  0  0  0  0  0  0  0  0  0  0  0
    5.2500    5.9462    0.0000 C   0  0  0  0  0  0  0  0  0  0  0  0
    7.5000    4.6471    0.0000 C   0  0  0  0  0  0  0  0  0  0  0  0
  1  2  1  0  0  0  0
  1  3  1  0  0  0  0
  1  4  1  0  0  0  0
  4  5  1  0  0  0  0
  5  6  2  0  0  0  0
  5  7  1  0  0  0  0
  6  9  1  0  0  0  0
  7  8  1  0  0  0  0
  9 10  1  0  0  0  0
  9 11  1  0  0  0  0
M  END
