11643
 OpenBabel03021519512D

 20 22  0  0  0  0  0  0  0  0999 V2000
    2.5372    2.1543    0.0000 Cl  0  0  0  0  0  0  0  0  0  0  0  0
    4.9106    1.0976    0.0000 N   0  0  0  0  0  0  0  0  0  0  0  0
    4.6390    3.6814    0.0000 N   0  0  0  0  0  0  0  0  0  0  0  0
    7.0125    5.0517    0.0000 N   0  0  0  0  0  0  0  0  0  0  0  0
    8.4391    4.5882    0.0000 N   0  0  0  0  0  0  0  0  0  0  0  0
    4.0289    2.3111    0.0000 C   0  0  0  0  0  0  0  0  0  0  0  0
    6.1308    3.8382    0.0000 C   0  0  0  0  0  0  0  0  0  0  0  0
    7.0125    2.6247    0.0000 C   0  0  0  0  0  0  0  0  0  0  0  0
    6.4024    1.2544    0.0000 C   0  0  0  0  0  0  0  0  0  0  0  0
    8.4391    3.0882    0.0000 C   0  0  0  0  0  0  0  0  0  0  0  0
    8.7759    0.1976    0.0000 C   0  0  0  0  0  0  0  0  0  0  0  0
    9.6575   -1.0159    0.0000 C   0  0  0  0  0  0  0  0  0  0  0  0
    9.3860    1.5680    0.0000 C   0  0  0  0  0  0  0  0  0  0  0  0
   10.8777    1.7248    0.0000 C   0  0  0  0  0  0  0  0  0  0  0  0
   11.1493   -0.8591    0.0000 C   0  0  0  0  0  0  0  0  0  0  0  0
   11.7594    0.5112    0.0000 C   0  0  0  0  0  0  0  0  0  0  0  0
    7.2841    0.0408    0.0000 N   0  0  0  0  0  0  0  0  0  0  0  0
    6.6740   -1.3295    0.0000 C   0  0  0  0  0  0  0  0  0  0  0  0
    5.1822   -1.4863    0.0000 C   0  0  0  0  0  0  0  0  0  0  0  0
    6.5490    6.4783    0.0000 C   0  0  0  0  0  0  0  0  0  0  0  0
  1  6  1  0  0  0  0
  2  9  2  0  0  0  0
  2  6  1  0  0  0  0
  3  6  2  0  0  0  0
  3  7  1  0  0  0  0
  4  5  1  0  0  0  0
  4  7  1  0  0  0  0
  4 20  1  0  0  0  0
  5 10  2  0  0  0  0
  7  8  2  0  0  0  0
  8  9  1  0  0  0  0
  8 10  1  0  0  0  0
  9 17  1  0  0  0  0
 11 13  2  0  0  0  0
 11 12  1  0  0  0  0
 11 17  1  0  0  0  0
 12 15  2  0  0  0  0
 13 14  1  0  0  0  0
 14 16  2  0  0  0  0
 15 16  1  0  0  0  0
 17 18  1  0  0  0  0
 18 19  1  0  0  0  0
M  END
