34983
 OpenBabel03021519512D

 14 14  0  0  1  0  0  0  0  0999 V2000
   -4.6471    5.2500    0.0000 C   0  0  0  0  0  0  0  0  0  0  0  0
   -3.3481    4.5000    0.0000 C   0  0  0  0  0  0  0  0  0  0  0  0
   -5.9462    4.5000    0.0000 C   0  0  0  0  0  0  0  0  0  0  0  0
   -3.3481    3.0000    0.0000 C   0  0  0  0  0  0  0  0  0  0  0  0
   -5.9462    3.0000    0.0000 C   0  0  0  0  0  0  0  0  0  0  0  0
   -4.6471    2.2500    0.0000 C   0  0  0  0  0  0  0  0  0  0  0  0
   -4.6471    0.7500    0.0000 C   0  0  0  0  0  0  0  0  0  0  0  0
   -2.0490    5.2500    0.0000 C   0  0  0  0  0  0  0  0  0  0  0  0
   -0.7500    4.5000    0.0000 O   0  0  0  0  0  0  0  0  0  0  0  0
   -2.0491    6.7500    0.0000 N   0  0  0  0  0  0  0  0  0  0  0  0
   -3.3481    7.5000    0.0000 C   0  0  3  0  0  0  0  0  0  0  0  0
   -4.6471    6.7500    0.0000 C   0  0  0  0  0  0  0  0  0  0  0  0
   -3.3481    9.0000    0.0000 C   0  0  0  0  0  0  0  0  0  0  0  0
   -5.9462    7.5000    0.0000 C   0  0  0  0  0  0  0  0  0  0  0  0
  1  3  2  0  0  0  0
  1  2  1  0  0  0  0
  2  4  2  0  0  0  0
  2  8  1  0  0  0  0
  3  5  1  0  0  0  0
  4  6  1  0  0  0  0
  5  6  2  0  0  0  0
  6  7  1  0  0  0  0
  8  9  2  0  0  0  0
  8 10  1  0  0  0  0
 10 11  1  0  0  0  0
 11 12  1  0  0  0  0
 11 13  1  0  0  0  0
 12 14  1  0  0  0  0
M  END
