351691
 OpenBabel03021519512D

 19 20  0  0  1  0  0  0  0  0999 V2000
    0.7500    2.0490    0.0000 N   0  0  0  0  0  0  0  0  0  0  0  0
    1.5000    0.7500    0.0000 C   0  0  0  0  0  0  0  0  0  0  0  0
    1.5000    3.3481    0.0000 C   0  0  0  0  0  0  0  0  0  0  0  0
    3.0000    0.7500    0.0000 C   0  0  0  0  0  0  0  0  0  0  0  0
    3.0000    3.3481    0.0000 C   0  0  0  0  0  0  0  0  0  0  0  0
    3.7500    2.0490    0.0000 C   0  0  0  0  0  0  0  0  0  0  0  0
    6.0000    0.7500    0.0000 O   0  0  0  0  0  0  0  0  0  0  0  0
    5.2500    2.0490    0.0000 C   0  0  0  0  0  0  0  0  0  0  0  0
    7.5000    3.3481    0.0000 C   0  0  3  0  0  0  0  0  0  0  0  0
    8.2500    4.6471    0.0000 C   0  0  3  0  0  0  0  0  0  0  0  0
    8.2500    2.0490    0.0000 C   0  0  0  0  0  0  0  0  0  0  0  0
    9.7500    2.0490    0.0000 C   0  0  3  0  0  0  0  0  0  0  0  0
    9.7500    4.6471    0.0000 C   0  0  0  0  0  0  0  0  0  0  0  0
   10.5000    3.3481    0.0000 C   0  0  0  0  0  0  0  0  0  0  0  0
    6.0000    3.3481    0.0000 N   0  0  0  0  0  0  0  0  0  0  0  0
    7.5000    5.9462    0.0000 C   0  0  0  0  0  0  0  0  0  0  0  0
    8.2500    7.2452    0.0000 C   0  0  0  0  0  0  0  0  0  0  0  0
    6.0000    5.9461    0.0000 C   0  0  0  0  0  0  0  0  0  0  0  0
   10.5000    0.7500    0.0000 C   0  0  0  0  0  0  0  0  0  0  0  0
  1  2  2  0  0  0  0
  1  3  1  0  0  0  0
  2  4  1  0  0  0  0
  3  5  2  0  0  0  0
  4  6  2  0  0  0  0
  5  6  1  0  0  0  0
  6  8  1  0  0  0  0
  7  8  2  0  0  0  0
  8 15  1  0  0  0  0
  9 10  1  0  0  0  0
  9 11  1  0  0  0  0
  9 15  1  0  0  0  0
 10 13  1  0  0  0  0
 10 16  1  0  0  0  0
 11 12  1  0  0  0  0
 12 14  1  0  0  0  0
 12 19  1  0  0  0  0
 13 14  1  0  0  0  0
 16 17  1  0  0  0  0
 16 18  1  0  0  0  0
M  END
