339161
 OpenBabel03021519512D

 29 32  0  0  0  0  0  0  0  0999 V2000
    1.6740    1.3995    0.0000 C   0  0  0  0  0  0  0  0  0  0  0  0
    1.6740   -0.1005    0.0000 C   0  0  0  0  0  0  0  0  0  0  0  0
    2.9731    2.1495    0.0000 C   0  0  0  0  0  0  0  0  0  0  0  0
    2.9731   -0.8505    0.0000 C   0  0  0  0  0  0  0  0  0  0  0  0
    4.2721    1.3995    0.0000 C   0  0  0  0  0  0  0  0  0  0  0  0
    4.2721   -0.1005    0.0000 C   0  0  0  0  0  0  0  0  0  0  0  0
    5.5712    3.6495    0.0000 H   0  0  0  0  0  0  0  0  0  0  0  0
    5.5712   -0.8505    0.0000 N   0  0  0  0  0  0  0  0  0  0  0  0
    5.5712    2.1495    0.0000 N   0  0  0  0  0  0  0  0  0  0  0  0
    6.8702   -0.1005    0.0000 C   0  0  0  0  0  0  0  0  0  0  0  0
    6.8702    1.3995    0.0000 C   0  0  0  0  0  0  0  0  0  0  0  0
    8.1692    2.1495    0.0000 O   0  0  0  0  0  0  0  0  0  0  0  0
    8.1692   -0.8505    0.0000 C   0  0  0  0  0  0  0  0  0  0  0  0
    8.3260   -2.3422    0.0000 C   0  0  0  0  0  0  0  0  0  0  0  0
    9.5396   -0.2403    0.0000 N   0  0  0  0  0  0  0  0  0  0  0  0
   10.5433   -1.3551    0.0000 N   0  0  0  0  0  0  0  0  0  0  0  0
    9.7933   -2.6541    0.0000 C   0  0  0  0  0  0  0  0  0  0  0  0
    9.5217   -5.2379    0.0000 O   0  0  0  0  0  0  0  0  0  0  0  0
   12.0350   -1.1983    0.0000 C   0  0  0  0  0  0  0  0  0  0  0  0
   12.6451    0.1721    0.0000 C   0  0  0  0  0  0  0  0  0  0  0  0
   12.9167   -2.4118    0.0000 C   0  0  0  0  0  0  0  0  0  0  0  0
   14.1369    0.3289    0.0000 C   0  0  0  0  0  0  0  0  0  0  0  0
   14.4085   -2.2550    0.0000 C   0  0  0  0  0  0  0  0  0  0  0  0
   15.0186   -0.8847    0.0000 C   0  0  0  0  0  0  0  0  0  0  0  0
   16.5104   -0.7279    0.0000 Cl  0  0  0  0  0  0  0  0  0  0  0  0
   10.4034   -4.0244    0.0000 C   0  0  0  0  0  0  0  0  0  0  0  0
    8.0299   -5.0812    0.0000 C   0  0  0  0  0  0  0  0  0  0  0  0
    7.4198   -3.7108    0.0000 O   0  0  0  0  0  0  0  0  0  0  0  0
    7.1483   -6.2947    0.0000 C   0  0  0  0  0  0  0  0  0  0  0  0
  1  3  2  0  0  0  0
  1  2  1  0  0  0  0
  2  4  2  0  0  0  0
  3  5  1  0  0  0  0
  4  6  1  0  0  0  0
  5  9  1  0  0  0  0
  5  6  2  0  0  0  0
  6  8  1  0  0  0  0
  7  9  1  0  0  0  0
  8 10  2  0  0  0  0
  9 11  1  0  0  0  0
 10 11  1  0  0  0  0
 10 13  1  0  0  0  0
 11 12  2  0  0  0  0
 13 15  2  0  0  0  0
 13 14  1  0  0  0  0
 14 17  2  0  0  0  0
 15 16  1  0  0  0  0
 16 19  1  0  0  0  0
 16 17  1  0  0  0  0
 17 26  1  0  0  0  0
 18 26  1  0  0  0  0
 18 27  1  0  0  0  0
 19 20  1  0  0  0  0
 19 21  2  0  0  0  0
 20 22  2  0  0  0  0
 21 23  1  0  0  0  0
 22 24  1  0  0  0  0
 23 24  2  0  0  0  0
 24 25  1  0  0  0  0
 27 28  2  0  0  0  0
 27 29  1  0  0  0  0
M  END
