34875
 OpenBabel03021519512D

 20 22  0  0  1  0  0  0  0  0999 V2000
    6.1202    8.8995    0.0000 C   0  0  0  0  0  0  0  0  0  0  0  0
    4.8211    8.1495    0.0000 C   0  0  0  0  0  0  0  0  0  0  0  0
   -0.3750    6.6495    0.0000 C   0  0  0  0  0  0  0  0  0  0  0  0
    7.4192    8.1495    0.0000 C   0  0  0  0  0  0  0  0  0  0  0  0
    4.8211    6.6495    0.0000 C   0  0  0  0  0  0  0  0  0  0  0  0
    3.5221    5.8995    0.0000 C   0  0  3  0  0  0  0  0  0  0  0  0
    0.9240    5.8995    0.0000 C   0  0  0  0  0  0  0  0  0  0  0  0
   -1.6741    5.8995    0.0000 C   0  0  0  0  0  0  0  0  0  0  0  0
    7.4192    6.6495    0.0000 C   0  0  0  0  0  0  0  0  0  0  0  0
    6.1202    5.8995    0.0000 C   0  0  0  0  0  0  0  0  0  0  0  0
    3.5221    4.3995    0.0000 C   0  0  0  0  0  0  0  0  0  0  0  0
    0.9240    4.3995    0.0000 C   0  0  0  0  0  0  0  0  0  0  0  0
   -1.6740    4.3995    0.0000 C   0  0  0  0  0  0  0  0  0  0  0  0
    2.2231    3.6495    0.0000 C   0  0  0  0  0  0  0  0  0  0  0  0
   -0.3750    3.6495    0.0000 C   0  0  0  0  0  0  0  0  0  0  0  0
    2.2231    6.6495    0.0000 O   0  0  0  0  0  0  0  0  0  0  0  0
    2.2231    2.1495    0.0000 O   0  0  0  0  0  0  0  0  0  0  0  0
   -2.9731    6.6495    0.0000 O   0  0  0  0  0  0  0  0  0  0  0  0
   -0.3750    2.1495    0.0000 O   0  0  0  0  0  0  0  0  0  0  0  0
    8.7183    8.8995    0.0000 O   0  0  0  0  0  0  0  0  0  0  0  0
  1  2  1  0  0  0  0
  1  4  2  0  0  0  0
  2  5  2  0  0  0  0
  3  8  2  0  0  0  0
  3  7  1  0  0  0  0
  4  9  1  0  0  0  0
  4 20  1  0  0  0  0
  5  6  1  0  0  0  0
  5 10  1  0  0  0  0
  6 16  1  0  0  0  0
  6 11  1  0  0  0  0
  7 16  1  0  0  0  0
  7 12  2  0  0  0  0
  8 13  1  0  0  0  0
  8 18  1  0  0  0  0
  9 10  2  0  0  0  0
 11 14  1  0  0  0  0
 12 14  1  0  0  0  0
 12 15  1  0  0  0  0
 13 15  2  0  0  0  0
 14 17  2  0  0  0  0
 15 19  1  0  0  0  0
M  END
