122276
 OpenBabel03021519512D

 12 13  0  0  0  0  0  0  0  0999 V2000
    1.6740    1.3995    0.0000 C   0  0  0  0  0  0  0  0  0  0  0  0
    1.6740   -0.1005    0.0000 C   0  0  0  0  0  0  0  0  0  0  0  0
    2.9731    2.1495    0.0000 C   0  0  0  0  0  0  0  0  0  0  0  0
    2.9731   -0.8505    0.0000 N   0  0  0  0  0  0  0  0  0  0  0  0
    4.2721   -0.1005    0.0000 C   0  0  0  0  0  0  0  0  0  0  0  0
    4.2721    1.3995    0.0000 C   0  0  0  0  0  0  0  0  0  0  0  0
    5.5712    2.1495    0.0000 O   0  0  0  0  0  0  0  0  0  0  0  0
    5.5712   -0.8505    0.0000 N   0  0  0  0  0  0  0  0  0  0  0  0
    5.5712   -2.3505    0.0000 H   0  0  0  0  0  0  0  0  0  0  0  0
    6.8702    1.3995    0.0000 C   0  0  0  0  0  0  0  0  0  0  0  0
    6.8702   -0.1005    0.0000 C   0  0  0  0  0  0  0  0  0  0  0  0
    8.1692   -0.8505    0.0000 O   0  0  0  0  0  0  0  0  0  0  0  0
  1  3  2  0  0  0  0
  1  2  1  0  0  0  0
  2  4  2  0  0  0  0
  3  6  1  0  0  0  0
  4  5  1  0  0  0  0
  5  6  2  0  0  0  0
  5  8  1  0  0  0  0
  6  7  1  0  0  0  0
  7 10  1  0  0  0  0
  8 11  1  0  0  0  0
  8  9  1  0  0  0  0
 10 11  1  0  0  0  0
 11 12  2  0  0  0  0
M  END
