158959
 OpenBabel03021519512D

 21 23  0  0  0  0  0  0  0  0999 V2000
   -6.8702   -1.3995    0.0000 Cl  0  0  0  0  0  0  0  0  0  0  0  0
   -1.6740   -1.3995    0.0000 Cl  0  0  0  0  0  0  0  0  0  0  0  0
   -4.2721    1.6005    0.0000 C   0  0  0  0  0  0  0  0  0  0  0  0
   -5.5712    0.8505    0.0000 C   0  0  0  0  0  0  0  0  0  0  0  0
   -2.9731    0.8505    0.0000 C   0  0  0  0  0  0  0  0  0  0  0  0
   -2.9731   -0.6495    0.0000 C   0  0  0  0  0  0  0  0  0  0  0  0
   -5.5712   -0.6495    0.0000 C   0  0  0  0  0  0  0  0  0  0  0  0
   -4.2721   -1.3995    0.0000 C   0  0  0  0  0  0  0  0  0  0  0  0
   -9.4683    3.1005    0.0000 C   0  0  0  0  0  0  0  0  0  0  0  0
  -10.7673    3.8505    0.0000 C   0  0  0  0  0  0  0  0  0  0  0  0
   -9.4683    1.6005    0.0000 C   0  0  0  0  0  0  0  0  0  0  0  0
  -10.7673    5.3505    0.0000 C   0  0  0  0  0  0  0  0  0  0  0  0
  -12.0664    6.1005    0.0000 C   0  0  0  0  0  0  0  0  0  0  0  0
  -10.7673    0.8505    0.0000 C   0  0  0  0  0  0  0  0  0  0  0  0
  -12.0664    3.1005    0.0000 C   0  0  0  0  0  0  0  0  0  0  0  0
  -13.3654    5.3505    0.0000 C   0  0  0  0  0  0  0  0  0  0  0  0
  -12.0663    1.6005    0.0000 C   0  0  0  0  0  0  0  0  0  0  0  0
  -13.3654    3.8505    0.0000 C   0  0  0  0  0  0  0  0  0  0  0  0
   -8.1692    0.8505    0.0000 N   0  0  0  0  0  0  0  0  0  0  0  0
   -6.8702    1.6005    0.0000 C   0  0  0  0  0  0  0  0  0  0  0  0
   -6.8702    3.1005    0.0000 O   0  0  0  0  0  0  0  0  0  0  0  0
  1  7  1  0  0  0  0
  2  6  1  0  0  0  0
  3  5  2  0  0  0  0
  3  4  1  0  0  0  0
  4  7  2  0  0  0  0
  4 20  1  0  0  0  0
  5  6  1  0  0  0  0
  6  8  2  0  0  0  0
  7  8  1  0  0  0  0
  9 11  2  0  0  0  0
  9 10  1  0  0  0  0
 10 15  2  0  0  0  0
 10 12  1  0  0  0  0
 11 14  1  0  0  0  0
 11 19  1  0  0  0  0
 12 13  2  0  0  0  0
 13 16  1  0  0  0  0
 14 17  2  0  0  0  0
 15 17  1  0  0  0  0
 15 18  1  0  0  0  0
 16 18  2  0  0  0  0
 19 20  1  0  0  0  0
 20 21  2  0  0  0  0
M  END
