25368
 OpenBabel03021519512D

 15 15  0  0  1  0  0  0  0  0999 V2000
   -6.1135   -0.7500    0.0000 C   0  0  0  0  0  0  0  0  0  0  0  0
   -7.4126   -1.5000    0.0000 C   0  0  0  0  0  0  0  0  0  0  0  0
   -4.8145   -1.5000    0.0000 C   0  0  3  0  0  0  0  0  0  0  0  0
   -4.8145   -3.0000    0.0000 C   0  0  3  0  0  0  0  0  0  0  0  0
   -7.4126   -3.0000    0.0000 C   0  0  0  0  0  0  0  0  0  0  0  0
   -6.1135   -3.7500    0.0000 C   0  0  3  0  0  0  0  0  0  0  0  0
   -6.1135   -5.2500    0.0000 O   0  0  0  0  0  0  0  0  0  0  0  0
   -3.5155   -0.7500    0.0000 O   0  0  0  0  0  0  0  0  0  0  0  0
   -2.2164   -1.5000    0.0000 C   0  0  0  0  0  0  0  0  0  0  0  0
   -0.9174   -0.7500    0.0000 C   0  0  0  0  0  0  0  0  0  0  0  0
   -2.2164   -3.0000    0.0000 C   0  0  0  0  0  0  0  0  0  0  0  0
   -3.5155   -3.7500    0.0000 C   0  0  0  0  0  0  0  0  0  0  0  0
   -3.5155   -5.2500    0.0000 C   0  0  0  0  0  0  0  0  0  0  0  0
   -4.8145   -6.0000    0.0000 O   0  0  0  0  0  0  0  0  0  0  0  0
   -2.2164   -6.0000    0.0000 O   0  0  0  0  0  0  0  0  0  0  0  0
  1  2  1  0  0  0  0
  1  3  1  0  0  0  0
  2  5  1  0  0  0  0
  3  4  1  0  0  0  0
  3  8  1  0  0  0  0
  4  6  1  0  0  0  0
  4 12  1  0  0  0  0
  5  6  1  0  0  0  0
  6  7  1  0  0  0  0
  8  9  1  0  0  0  0
  9 10  1  0  0  0  0
  9 11  1  0  0  0  0
 12 13  1  0  0  0  0
 13 14  2  0  0  0  0
 13 15  1  0  0  0  0
M  END
