10768
 OpenBabel03021519512D

 19 19  0  0  0  0  0  0  0  0999 V2000
   -5.1590   -3.9648    0.0000 N   0  0  0  0  0  0  0  0  0  0  0  0
   -5.1590   -2.4648    0.0000 H   0  0  0  0  0  0  0  0  0  0  0  0
   -3.9454   -4.8465    0.0000 C   0  0  0  0  0  0  0  0  0  0  0  0
   -4.4090   -6.2731    0.0000 C   0  0  0  0  0  0  0  0  0  0  0  0
   -5.9090   -6.2731    0.0000 C   0  0  0  0  0  0  0  0  0  0  0  0
   -6.3725   -4.8465    0.0000 C   0  0  0  0  0  0  0  0  0  0  0  0
   -7.7991   -4.3830    0.0000 C   0  0  0  0  0  0  0  0  0  0  0  0
   -8.9138   -5.3867    0.0000 O   0  0  0  0  0  0  0  0  0  0  0  0
   -9.1641   -8.5434    0.0000 C   0  0  0  0  0  0  0  0  0  0  0  0
  -10.6559   -8.3866    0.0000 C   0  0  0  0  0  0  0  0  0  0  0  0
   -8.2824   -7.3299    0.0000 O   0  0  0  0  0  0  0  0  0  0  0  0
   -6.7906   -7.4866    0.0000 C   0  0  0  0  0  0  0  0  0  0  0  0
   -6.1805   -8.8570    0.0000 O   0  0  0  0  0  0  0  0  0  0  0  0
   -3.5273   -7.4866    0.0000 C   0  0  0  0  0  0  0  0  0  0  0  0
   -2.5189   -4.3830    0.0000 C   0  0  0  0  0  0  0  0  0  0  0  0
   -1.4041   -5.3867    0.0000 O   0  0  0  0  0  0  0  0  0  0  0  0
   -2.2070   -2.9158    0.0000 O   0  0  0  0  0  0  0  0  0  0  0  0
   -0.7804   -2.4522    0.0000 C   0  0  0  0  0  0  0  0  0  0  0  0
    0.3343   -3.4559    0.0000 C   0  0  0  0  0  0  0  0  0  0  0  0
  1  3  1  0  0  0  0
  1  6  1  0  0  0  0
  1  2  1  0  0  0  0
  3  4  2  0  0  0  0
  3 15  1  0  0  0  0
  4  5  1  0  0  0  0
  4 14  1  0  0  0  0
  5  6  2  0  0  0  0
  5 12  1  0  0  0  0
  6  7  1  0  0  0  0
  7  8  1  0  0  0  0
  9 10  1  0  0  0  0
  9 11  1  0  0  0  0
 11 12  1  0  0  0  0
 12 13  2  0  0  0  0
 15 16  2  0  0  0  0
 15 17  1  0  0  0  0
 17 18  1  0  0  0  0
 18 19  1  0  0  0  0
M  END
