93427
 OpenBabel03021519512D

 22 25  0  0  0  0  0  0  0  0999 V2000
    3.2398    6.3885    0.0000 N   0  0  0  0  0  0  0  0  0  0  0  0
    3.7444    8.7626    0.0000 C   0  0  0  0  0  0  0  0  0  0  0  0
    4.3545    7.3922    0.0000 C   0  0  0  0  0  0  0  0  0  0  0  0
    2.2526    8.6058    0.0000 C   0  0  0  0  0  0  0  0  0  0  0  0
    1.9407    7.1385    0.0000 C   0  0  0  0  0  0  0  0  0  0  0  0
    5.8217    7.0804    0.0000 C   0  0  0  0  0  0  0  0  0  0  0  0
    6.8254    8.1951    0.0000 C   0  0  0  0  0  0  0  0  0  0  0  0
    8.2926    7.8832    0.0000 C   0  0  0  0  0  0  0  0  0  0  0  0
    8.7561    6.4566    0.0000 C   0  0  0  0  0  0  0  0  0  0  0  0
    6.2852    5.6538    0.0000 C   0  0  0  0  0  0  0  0  0  0  0  0
    0.6417    6.3885    0.0000 C   0  0  0  0  0  0  0  0  0  0  0  0
   -0.6573    7.1385    0.0000 C   0  0  0  0  0  0  0  0  0  0  0  0
   -1.9564    6.3885    0.0000 C   0  0  0  0  0  0  0  0  0  0  0  0
    0.6417    4.8885    0.0000 C   0  0  0  0  0  0  0  0  0  0  0  0
   -1.9564    4.8885    0.0000 C   0  0  0  0  0  0  0  0  0  0  0  0
    7.7525    5.3419    0.0000 C   0  0  0  0  0  0  0  0  0  0  0  0
   -0.6573    4.1385    0.0000 C   0  0  0  0  0  0  0  0  0  0  0  0
    1.9407    4.1385    0.0000 C   0  0  0  0  0  0  0  0  0  0  0  0
    3.2398    4.8885    0.0000 C   0  0  0  0  0  0  0  0  0  0  0  0
    4.4944   10.0616    0.0000 C   0  0  0  0  0  0  0  0  0  0  0  0
    3.7444   11.3606    0.0000 O   0  0  0  0  0  0  0  0  0  0  0  0
    5.9944   10.0616    0.0000 N   0  0  0  0  0  0  0  0  0  0  0  0
  1  3  1  0  0  0  0
  1  5  1  0  0  0  0
  1 19  1  0  0  0  0
  2  3  2  0  0  0  0
  2  4  1  0  0  0  0
  2 20  1  0  0  0  0
  3  6  1  0  0  0  0
  4  5  2  0  0  0  0
  5 11  1  0  0  0  0
  6 10  2  0  0  0  0
  6  7  1  0  0  0  0
  7  8  2  0  0  0  0
  8  9  1  0  0  0  0
  9 16  2  0  0  0  0
 10 16  1  0  0  0  0
 11 14  2  0  0  0  0
 11 12  1  0  0  0  0
 12 13  2  0  0  0  0
 13 15  1  0  0  0  0
 14 17  1  0  0  0  0
 14 18  1  0  0  0  0
 15 17  2  0  0  0  0
 18 19  2  0  0  0  0
 20 21  2  0  0  0  0
 20 22  1  0  0  0  0
M  END
