154585
 OpenBabel03021519512D

 25 27  0  0  0  0  0  0  0  0999 V2000
    4.6471    3.0000    0.0000 O   0  0  0  0  0  0  0  0  0  0  0  0
    5.9462    5.2500    0.0000 N   0  0  0  0  0  0  0  0  0  0  0  0
    7.2452    7.5000    0.0000 O   0  0  0  0  0  0  0  0  0  0  0  0
    8.5442    5.2500    0.0000 N   0  0  0  0  0  0  0  0  0  0  0  0
    9.8433    3.0000    0.0000 O   0  0  0  0  0  0  0  0  0  0  0  0
    7.2452    6.0000    0.0000 C   0  0  0  0  0  0  0  0  0  0  0  0
    9.8433    7.5000    0.0000 C   0  0  0  0  0  0  0  0  0  0  0  0
   11.1423    8.2500    0.0000 C   0  0  0  0  0  0  0  0  0  0  0  0
    9.8433    6.0000    0.0000 C   0  0  0  0  0  0  0  0  0  0  0  0
   12.4413    7.5000    0.0000 C   0  0  0  0  0  0  0  0  0  0  0  0
   11.1423    5.2500    0.0000 C   0  0  0  0  0  0  0  0  0  0  0  0
   12.4413    6.0000    0.0000 C   0  0  0  0  0  0  0  0  0  0  0  0
    4.6471    7.5000    0.0000 C   0  0  0  0  0  0  0  0  0  0  0  0
    3.3481    8.2500    0.0000 C   0  0  0  0  0  0  0  0  0  0  0  0
    4.6471    6.0000    0.0000 C   0  0  0  0  0  0  0  0  0  0  0  0
    3.3481    5.2500    0.0000 C   0  0  0  0  0  0  0  0  0  0  0  0
    2.0490    7.5000    0.0000 C   0  0  0  0  0  0  0  0  0  0  0  0
    2.0490    6.0000    0.0000 C   0  0  0  0  0  0  0  0  0  0  0  0
    8.5442    3.7500    0.0000 C   0  0  0  0  0  0  0  0  0  0  0  0
    7.2452    3.0000    0.0000 C   0  0  0  0  0  0  0  0  0  0  0  0
    5.9462    3.7500    0.0000 C   0  0  0  0  0  0  0  0  0  0  0  0
    0.7500    8.2500    0.0000 C   0  0  0  0  0  0  0  0  0  0  0  0
    7.2452    1.5000    0.0000 C   0  0  0  0  0  0  0  0  0  0  0  0
    5.9462    0.7500    0.0000 N   0  0  0  0  0  0  0  0  0  0  0  0
   13.7404    8.2500    0.0000 C   0  0  0  0  0  0  0  0  0  0  0  0
  1 21  2  0  0  0  0
  2  6  1  0  0  0  0
  2 15  1  0  0  0  0
  2 21  1  0  0  0  0
  3  6  2  0  0  0  0
  4  6  1  0  0  0  0
  4  9  1  0  0  0  0
  4 19  1  0  0  0  0
  5 19  2  0  0  0  0
  7  8  2  0  0  0  0
  7  9  1  0  0  0  0
  8 10  1  0  0  0  0
  9 11  2  0  0  0  0
 10 12  2  0  0  0  0
 10 25  1  0  0  0  0
 11 12  1  0  0  0  0
 13 14  2  0  0  0  0
 13 15  1  0  0  0  0
 14 17  1  0  0  0  0
 15 16  2  0  0  0  0
 16 18  1  0  0  0  0
 17 18  2  0  0  0  0
 17 22  1  0  0  0  0
 19 20  1  0  0  0  0
 20 21  1  0  0  0  0
 20 23  2  0  0  0  0
 23 24  1  0  0  0  0
M  END
