137399
 OpenBabel03021519512D

 21 24  0  0  0  0  0  0  0  0999 V2000
    6.2226   -5.2679    0.0000 C   0  0  0  0  0  0  0  0  0  0  0  0
    3.9972    0.2946    0.0000 C   0  0  0  0  0  0  0  0  0  0  0  0
    5.0579   -0.9212    0.0000 C   0  0  0  0  0  0  0  0  0  0  0  0
    2.5483   -0.0936    0.0000 C   0  0  0  0  0  0  0  0  0  0  0  0
    2.5483   -1.5936    0.0000 C   0  0  0  0  0  0  0  0  0  0  0  0
    6.5068   -1.3094    0.0000 C   0  0  0  0  0  0  0  0  0  0  0  0
    3.9972   -1.9819    0.0000 C   0  0  0  0  0  0  0  0  0  0  0  0
    1.4877   -2.6543    0.0000 C   0  0  0  0  0  0  0  0  0  0  0  0
    6.8950   -2.7583    0.0000 C   0  0  0  0  0  0  0  0  0  0  0  0
    4.3855   -3.4307    0.0000 C   0  0  0  0  0  0  0  0  0  0  0  0
    1.8759   -4.1032    0.0000 C   0  0  0  0  0  0  0  0  0  0  0  0
    5.8344   -3.8190    0.0000 C   0  0  0  0  0  0  0  0  0  0  0  0
    3.3248   -4.4914    0.0000 C   0  0  0  0  0  0  0  0  0  0  0  0
    5.1619   -6.3285    0.0000 C   0  0  0  0  0  0  0  0  0  0  0  0
    5.5502   -7.7774    0.0000 C   0  0  0  0  0  0  0  0  0  0  0  0
    3.7130   -5.9403    0.0000 C   0  0  0  0  0  0  0  0  0  0  0  0
    4.4895   -8.8381    0.0000 C   0  0  0  0  0  0  0  0  0  0  0  0
    2.6524   -7.0010    0.0000 C   0  0  0  0  0  0  0  0  0  0  0  0
    3.0406   -8.4499    0.0000 C   0  0  0  0  0  0  0  0  0  0  0  0
    7.6715   -5.6561    0.0000 N   0  0  0  0  0  0  0  0  0  0  0  0
    8.7321   -4.5954    0.0000 O   0  0  0  0  0  0  0  0  0  0  0  0
  1 12  1  0  0  0  0
  1 14  1  0  0  0  0
  1 20  2  0  0  0  0
  2  3  1  0  0  0  0
  2  4  1  0  0  0  0
  3  7  2  0  0  0  0
  3  6  1  0  0  0  0
  4  5  1  0  0  0  0
  5  8  2  0  0  0  0
  5  7  1  0  0  0  0
  6  9  2  0  0  0  0
  7 10  1  0  0  0  0
  8 11  1  0  0  0  0
  9 12  1  0  0  0  0
 10 12  2  0  0  0  0
 10 13  1  0  0  0  0
 11 13  2  0  0  0  0
 14 15  2  0  0  0  0
 14 16  1  0  0  0  0
 15 17  1  0  0  0  0
 16 18  2  0  0  0  0
 17 19  2  0  0  0  0
 18 19  1  0  0  0  0
 20 21  1  0  0  0  0
M  END
