321502
 OpenBabel03021519512D

 22 25  0  0  0  0  0  0  0  0999 V2000
    0.7500    3.7500    0.0000 Cl  0  0  0  0  0  0  0  0  0  0  0  0
    2.0490    3.0000    0.0000 C   0  0  0  0  0  0  0  0  0  0  0  0
    2.0490    1.5000    0.0000 C   0  0  0  0  0  0  0  0  0  0  0  0
    3.3481    3.7500    0.0000 C   0  0  0  0  0  0  0  0  0  0  0  0
    3.3481    0.7500    0.0000 C   0  0  0  0  0  0  0  0  0  0  0  0
    4.6471    3.0000    0.0000 C   0  0  0  0  0  0  0  0  0  0  0  0
    4.6471    1.5000    0.0000 C   0  0  0  0  0  0  0  0  0  0  0  0
    6.0737    3.4635    0.0000 C   0  0  0  0  0  0  0  0  0  0  0  0
    6.0737    1.0365    0.0000 O   0  0  0  0  0  0  0  0  0  0  0  0
    6.9554    2.2500    0.0000 C   0  0  0  0  0  0  0  0  0  0  0  0
    9.3371    1.0365    0.0000 C   0  0  0  0  0  0  0  0  0  0  0  0
    8.4554    2.2500    0.0000 C   0  0  0  0  0  0  0  0  0  0  0  0
    9.3371    3.4635    0.0000 N   0  0  0  0  0  0  0  0  0  0  0  0
   10.7636    1.5000    0.0000 S   0  0  0  0  0  0  0  0  0  0  0  0
   10.7636    3.0000    0.0000 C   0  0  0  0  0  0  0  0  0  0  0  0
   11.9772    3.8817    0.0000 C   0  0  0  0  0  0  0  0  0  0  0  0
   11.8204    5.3735    0.0000 C   0  0  0  0  0  0  0  0  0  0  0  0
   13.3475    3.2716    0.0000 C   0  0  0  0  0  0  0  0  0  0  0  0
   14.5610    4.1533    0.0000 C   0  0  0  0  0  0  0  0  0  0  0  0
   13.0339    6.2552    0.0000 C   0  0  0  0  0  0  0  0  0  0  0  0
   14.4042    5.6451    0.0000 C   0  0  0  0  0  0  0  0  0  0  0  0
   15.6177    6.5268    0.0000 Cl  0  0  0  0  0  0  0  0  0  0  0  0
  1  2  1  0  0  0  0
  2  4  2  0  0  0  0
  2  3  1  0  0  0  0
  3  5  2  0  0  0  0
  4  6  1  0  0  0  0
  5  7  1  0  0  0  0
  6  8  1  0  0  0  0
  6  7  2  0  0  0  0
  7  9  1  0  0  0  0
  8 10  2  0  0  0  0
  9 10  1  0  0  0  0
 10 12  1  0  0  0  0
 11 12  2  0  0  0  0
 11 14  1  0  0  0  0
 12 13  1  0  0  0  0
 13 15  2  0  0  0  0
 14 15  1  0  0  0  0
 15 16  1  0  0  0  0
 16 17  2  0  0  0  0
 16 18  1  0  0  0  0
 17 20  1  0  0  0  0
 18 19  2  0  0  0  0
 19 21  1  0  0  0  0
 20 21  2  0  0  0  0
 21 22  1  0  0  0  0
M  END
