622691
 OpenBabel03021519512D

 18 19  0  0  0  0  0  0  0  0999 V2000
   -0.4961    2.0705    0.0000 S   0  0  0  0  0  0  0  0  0  0  0  0
    1.0009    2.1649    0.0000 S   0  0  0  0  0  0  0  0  0  0  0  0
    1.5533    0.7704    0.0000 C   0  0  0  0  0  0  0  0  0  0  0  0
    0.3977   -0.1859    0.0000 N   0  0  0  0  0  0  0  0  0  0  0  0
   -0.8690    0.6176    0.0000 C   0  0  0  0  0  0  0  0  0  0  0  0
    3.0062    0.3975    0.0000 S   0  0  0  0  0  0  0  0  0  0  0  0
   -2.2635    0.0652    0.0000 N   0  0  0  0  0  0  0  0  0  0  0  0
   -3.4392    0.9968    0.0000 C   0  0  0  0  0  0  0  0  0  0  0  0
   -4.8338    0.4444    0.0000 S   0  0  0  0  0  0  0  0  0  0  0  0
   -3.2203    2.4807    0.0000 N   0  0  0  0  0  0  0  0  0  0  0  0
   -1.8257    3.0331    0.0000 C   0  0  0  0  0  0  0  0  0  0  0  0
   -4.3960    3.4122    0.0000 C   0  0  0  0  0  0  0  0  0  0  0  0
    0.4921   -1.6830    0.0000 C   0  0  0  0  0  0  0  0  0  0  0  0
    1.8357   -2.3497    0.0000 C   0  0  0  0  0  0  0  0  0  0  0  0
    2.0861   -3.8287    0.0000 C   0  0  0  0  0  0  0  0  0  0  0  0
    3.5700   -4.0476    0.0000 C   0  0  0  0  0  0  0  0  0  0  0  0
    4.2368   -2.7039    0.0000 C   0  0  0  0  0  0  0  0  0  0  0  0
    3.1649   -1.6546    0.0000 O   0  0  0  0  0  0  0  0  0  0  0  0
  1  2  1  0  0  0  0
  1  5  1  0  0  0  0
  2  3  1  0  0  0  0
  3  4  1  0  0  0  0
  3  6  2  0  0  0  0
  4  5  1  0  0  0  0
  4 13  1  0  0  0  0
  5  7  2  0  0  0  0
  7  8  1  0  0  0  0
  8  9  2  0  0  0  0
  8 10  1  0  0  0  0
 10 11  1  0  0  0  0
 10 12  1  0  0  0  0
 13 14  1  0  0  0  0
 14 15  2  0  0  0  0
 14 18  1  0  0  0  0
 15 16  1  0  0  0  0
 16 17  2  0  0  0  0
 17 18  1  0  0  0  0
M  END
