3323
 OpenBabel03021519512D

 28 30  0  0  1  0  0  0  0  0999 V2000
    0.4601   -5.2030    0.0000 C   0  0  0  0  0  0  0  0  0  0  0  0
    1.7592   -5.9530    0.0000 C   0  0  0  0  0  0  0  0  0  0  0  0
   -0.8389   -5.9531    0.0000 C   0  0  0  0  0  0  0  0  0  0  0  0
    1.7592   -7.4530    0.0000 C   0  0  0  0  0  0  0  0  0  0  0  0
   -0.8389   -7.4531    0.0000 C   0  0  0  0  0  0  0  0  0  0  0  0
    0.4601   -8.2030    0.0000 C   0  0  0  0  0  0  0  0  0  0  0  0
    3.0582   -9.7030    0.0000 C   0  0  0  0  0  0  0  0  0  0  0  0
    1.7592  -10.4530    0.0000 C   0  0  0  0  0  0  0  0  0  0  0  0
    4.3573  -10.4530    0.0000 C   0  0  0  0  0  0  0  0  0  0  0  0
    4.3573  -11.9530    0.0000 C   0  0  0  0  0  0  0  0  0  0  0  0
    1.7592  -11.9530    0.0000 C   0  0  0  0  0  0  0  0  0  0  0  0
    3.0582  -12.7030    0.0000 C   0  0  0  0  0  0  0  0  0  0  0  0
   -2.1379   -9.7031    0.0000 C   0  0  0  0  0  0  0  0  0  0  0  0
   -0.8389  -10.4531    0.0000 C   0  0  0  0  0  0  0  0  0  0  0  0
   -3.4370  -10.4531    0.0000 C   0  0  0  0  0  0  0  0  0  0  0  0
   -0.8389  -11.9531    0.0000 C   0  0  0  0  0  0  0  0  0  0  0  0
   -3.4370  -11.9531    0.0000 C   0  0  0  0  0  0  0  0  0  0  0  0
   -2.1379  -12.7031    0.0000 C   0  0  0  0  0  0  0  0  0  0  0  0
   -4.7360  -12.7031    0.0000 N   0  0  0  0  0  0  0  0  0  0  0  0
   -6.0350  -11.9531    0.0000 C   0  0  0  0  0  0  0  0  0  0  0  0
   -4.7360  -14.2031    0.0000 C   0  0  0  0  0  0  0  0  0  0  0  0
    0.4601   -9.7030    0.0000 C   0  0  3  0  0  0  0  0  0  0  0  0
    0.4601   -3.7030    0.0000 N   0  3  0  0  0  0  0  0  0  0  0  0
   -0.8389   -2.9531    0.0000 O   0  5  0  0  0  0  0  0  0  0  0  0
    1.7592   -2.9530    0.0000 O   0  0  0  0  0  0  0  0  0  0  0  0
    5.6563  -12.7030    0.0000 N   0  0  0  0  0  0  0  0  0  0  0  0
    6.9553  -11.9530    0.0000 C   0  0  0  0  0  0  0  0  0  0  0  0
    5.6563  -14.2030    0.0000 C   0  0  0  0  0  0  0  0  0  0  0  0
  1  2  2  0  0  0  0
  1  3  1  0  0  0  0
  1 23  1  0  0  0  0
  2  4  1  0  0  0  0
  3  5  2  0  0  0  0
  4  6  2  0  0  0  0
  5  6  1  0  0  0  0
  6 22  1  0  0  0  0
  7  9  2  0  0  0  0
  7  8  1  0  0  0  0
  8 11  2  0  0  0  0
  8 22  1  0  0  0  0
  9 10  1  0  0  0  0
 10 12  2  0  0  0  0
 10 26  1  0  0  0  0
 11 12  1  0  0  0  0
 13 15  2  0  0  0  0
 13 14  1  0  0  0  0
 14 16  2  0  0  0  0
 14 22  1  0  0  0  0
 15 17  1  0  0  0  0
 16 18  1  0  0  0  0
 17 18  2  0  0  0  0
 17 19  1  0  0  0  0
 19 20  1  0  0  0  0
 19 21  1  0  0  0  0
 23 24  1  0  0  0  0
 23 25  2  0  0  0  0
 26 27  1  0  0  0  0
 26 28  1  0  0  0  0
M  CHG  2  23   1  24  -1
M  END
