330796
 OpenBabel03021519512D

 21 23  0  0  0  0  0  0  0  0999 V2000
    3.4599    4.0176    0.0000 O   0  0  0  0  0  0  0  0  0  0  0  0
    2.5328    1.1644    0.0000 O   0  0  0  0  0  0  0  0  0  0  0  0
    4.0000    1.4763    0.0000 C   0  0  0  0  0  0  0  0  0  0  0  0
    4.4636    2.9029    0.0000 C   0  0  0  0  0  0  0  0  0  0  0  0
    5.9308    3.2148    0.0000 C   0  0  0  0  0  0  0  0  0  0  0  0
    5.0037    0.3616    0.0000 C   0  0  0  0  0  0  0  0  0  0  0  0
    6.4710    0.6735    0.0000 C   0  0  0  0  0  0  0  0  0  0  0  0
    6.9345    2.1000    0.0000 C   0  0  0  0  0  0  0  0  0  0  0  0
    8.4345    2.1000    0.0000 C   0  0  0  0  0  0  0  0  0  0  0  0
    7.6845   -0.2082    0.0000 N   0  3  0  0  0  0  0  0  0  0  0  0
    7.6845   -1.7082    0.0000 O   0  5  0  0  0  0  0  0  0  0  0  0
    9.3162    3.3136    0.0000 O   0  0  0  0  0  0  0  0  0  0  0  0
    8.8980    0.6735    0.0000 C   0  0  0  0  0  0  0  0  0  0  0  0
    3.9234    5.4442    0.0000 C   0  0  0  0  0  0  0  0  0  0  0  0
    1.5291    2.2791    0.0000 C   0  0  0  0  0  0  0  0  0  0  0  0
   10.3246    0.2099    0.0000 C   0  0  0  0  0  0  0  0  0  0  0  0
   11.4393    1.2136    0.0000 C   0  0  0  0  0  0  0  0  0  0  0  0
   12.8659    0.7501    0.0000 C   0  0  0  0  0  0  0  0  0  0  0  0
   13.1778   -0.7171    0.0000 C   0  0  0  0  0  0  0  0  0  0  0  0
   12.0631   -1.7208    0.0000 C   0  0  0  0  0  0  0  0  0  0  0  0
   10.6365   -1.2573    0.0000 C   0  0  0  0  0  0  0  0  0  0  0  0
  1  4  1  0  0  0  0
  1 14  1  0  0  0  0
  2  3  1  0  0  0  0
  2 15  1  0  0  0  0
  3  4  1  0  0  0  0
  3  6  2  0  0  0  0
  4  5  2  0  0  0  0
  5  8  1  0  0  0  0
  6  7  1  0  0  0  0
  7  8  2  0  0  0  0
  7 10  1  0  0  0  0
  8  9  1  0  0  0  0
  9 12  2  0  0  0  0
  9 13  1  0  0  0  0
 10 13  2  0  0  0  0
 10 11  1  0  0  0  0
 13 16  1  0  0  0  0
 16 17  2  0  0  0  0
 16 21  1  0  0  0  0
 17 18  1  0  0  0  0
 18 19  2  0  0  0  0
 19 20  1  0  0  0  0
 20 21  2  0  0  0  0
M  CHG  2  10   1  11  -1
M  END
