165599
 OpenBabel03021519512D

 18 18  0  0  0  0  0  0  0  0999 V2000
    4.0711    6.4486    0.0000 C   0  0  0  0  0  0  0  0  0  0  0  0
    2.7721    5.6986    0.0000 C   0  0  0  0  0  0  0  0  0  0  0  0
    5.3702    5.6986    0.0000 C   0  0  0  0  0  0  0  0  0  0  0  0
    5.3702    4.1986    0.0000 C   0  0  0  0  0  0  0  0  0  0  0  0
    2.7721    4.1986    0.0000 C   0  0  0  0  0  0  0  0  0  0  0  0
    4.0711    3.4486    0.0000 C   0  0  0  0  0  0  0  0  0  0  0  0
    0.1740    4.1986    0.0000 C   0  0  0  0  0  0  0  0  0  0  0  0
    0.1740    5.6986    0.0000 O   0  0  0  0  0  0  0  0  0  0  0  0
   -1.1250    3.4486    0.0000 C   0  0  0  0  0  0  0  0  0  0  0  0
    1.4731    3.4486    0.0000 N   0  0  0  0  0  0  0  0  0  0  0  0
    6.6692    6.4486    0.0000 S   0  0  0  0  0  0  0  0  0  0  0  0
    5.9192    7.7476    0.0000 O   0  0  0  0  0  0  0  0  0  0  0  0
    7.4192    5.1495    0.0000 O   0  0  0  0  0  0  0  0  0  0  0  0
    7.9683    7.1986    0.0000 N   0  0  0  0  0  0  0  0  0  0  0  0
    7.9683    8.6986    0.0000 C   0  0  0  0  0  0  0  0  0  0  0  0
    6.6692    9.4486    0.0000 S   0  0  0  0  0  0  0  0  0  0  0  0
    6.6692   10.9486    0.0000 C   0  0  0  0  0  0  0  0  0  0  0  0
    9.2673    9.4486    0.0000 N   0  0  0  0  0  0  0  0  0  0  0  0
  1  2  2  0  0  0  0
  1  3  1  0  0  0  0
  2  5  1  0  0  0  0
  3  4  2  0  0  0  0
  3 11  1  0  0  0  0
  4  6  1  0  0  0  0
  5  6  2  0  0  0  0
  5 10  1  0  0  0  0
  7  8  2  0  0  0  0
  7  9  1  0  0  0  0
  7 10  1  0  0  0  0
 11 12  2  0  0  0  0
 11 13  2  0  0  0  0
 11 14  1  0  0  0  0
 14 15  1  0  0  0  0
 15 16  1  0  0  0  0
 15 18  2  0  0  0  0
 16 17  1  0  0  0  0
M  END
