343783
 OpenBabel03021519512D

 15 16  0  0  0  0  0  0  0  0999 V2000
    4.2714   -4.3983    0.0000 N   0  0  0  0  0  0  0  0  0  0  0  0
    4.2714   -5.8983    0.0000 C   0  0  0  0  0  0  0  0  0  0  0  0
    5.5704   -3.6483    0.0000 C   0  0  0  0  0  0  0  0  0  0  0  0
    5.5704   -6.6483    0.0000 N   0  0  0  0  0  0  0  0  0  0  0  0
    6.8695   -4.3983    0.0000 C   0  0  0  0  0  0  0  0  0  0  0  0
    6.8695   -5.8983    0.0000 C   0  0  0  0  0  0  0  0  0  0  0  0
    8.2960   -3.9347    0.0000 N   0  0  0  0  0  0  0  0  0  0  0  0
    8.2960   -6.3618    0.0000 S   0  0  0  0  0  0  0  0  0  0  0  0
    9.1777   -5.1483    0.0000 C   0  0  0  0  0  0  0  0  0  0  0  0
   10.6777   -5.1483    0.0000 S   0  0  0  0  0  0  0  0  0  0  0  0
    5.5704   -2.1483    0.0000 N   0  0  0  0  0  0  0  0  0  0  0  0
    6.8695   -1.3983    0.0000 C   0  0  0  0  0  0  0  0  0  0  0  0
    6.8695    0.1017    0.0000 C   0  0  0  0  0  0  0  0  0  0  0  0
    5.5704    0.8517    0.0000 C   0  0  0  0  0  0  0  0  0  0  0  0
   11.4277   -3.8492    0.0000 C   0  0  0  0  0  0  0  0  0  0  0  0
  1  3  2  0  0  0  0
  1  2  1  0  0  0  0
  2  4  2  0  0  0  0
  3  5  1  0  0  0  0
  3 11  1  0  0  0  0
  4  6  1  0  0  0  0
  5  7  1  0  0  0  0
  5  6  2  0  0  0  0
  6  8  1  0  0  0  0
  7  9  2  0  0  0  0
  8  9  1  0  0  0  0
  9 10  1  0  0  0  0
 10 15  1  0  0  0  0
 11 12  1  0  0  0  0
 12 13  1  0  0  0  0
 13 14  2  0  0  0  0
M  END
