37553
 OpenBabel03021519512D

 36 40  0  0  0  0  0  0  0  0999 V2000
    9.8433    6.0000    0.0000 N   0  0  0  0  0  0  0  0  0  0  0  0
   12.4413    7.5000    0.0000 N   0  0  0  0  0  0  0  0  0  0  0  0
    0.7500    5.2500    0.0000 C   0  0  0  0  0  0  0  0  0  0  0  0
    0.7500    3.7500    0.0000 C   0  0  0  0  0  0  0  0  0  0  0  0
    2.0490    6.0000    0.0000 C   0  0  0  0  0  0  0  0  0  0  0  0
    3.3481    5.2500    0.0000 C   0  0  0  0  0  0  0  0  0  0  0  0
    2.0490    3.0000    0.0000 C   0  0  0  0  0  0  0  0  0  0  0  0
    3.3481    3.7500    0.0000 C   0  0  0  0  0  0  0  0  0  0  0  0
    4.6471    3.0000    0.0000 C   0  0  0  0  0  0  0  0  0  0  0  0
    5.9462    3.7500    0.0000 C   0  0  0  0  0  0  0  0  0  0  0  0
    4.6471    1.5000    0.0000 C   0  0  0  0  0  0  0  0  0  0  0  0
    7.2452    3.0000    0.0000 C   0  0  0  0  0  0  0  0  0  0  0  0
    5.9462    0.7500    0.0000 C   0  0  0  0  0  0  0  0  0  0  0  0
    7.2452    1.5000    0.0000 C   0  0  0  0  0  0  0  0  0  0  0  0
   16.3384    9.7500    0.0000 C   0  0  0  0  0  0  0  0  0  0  0  0
   17.6375   10.5000    0.0000 C   0  0  0  0  0  0  0  0  0  0  0  0
   16.3385    8.2500    0.0000 C   0  0  0  0  0  0  0  0  0  0  0  0
   18.9365    9.7500    0.0000 C   0  0  0  0  0  0  0  0  0  0  0  0
   17.6375    7.5000    0.0000 C   0  0  0  0  0  0  0  0  0  0  0  0
   18.9365    8.2500    0.0000 C   0  0  0  0  0  0  0  0  0  0  0  0
   20.2356    7.5000    0.0000 C   0  0  0  0  0  0  0  0  0  0  0  0
   20.2356    6.0000    0.0000 C   0  0  0  0  0  0  0  0  0  0  0  0
   21.5346    8.2500    0.0000 C   0  0  0  0  0  0  0  0  0  0  0  0
   22.8336    7.5000    0.0000 C   0  0  0  0  0  0  0  0  0  0  0  0
   21.5346    5.2500    0.0000 C   0  0  0  0  0  0  0  0  0  0  0  0
   22.8336    6.0000    0.0000 C   0  0  0  0  0  0  0  0  0  0  0  0
   11.1423    8.2500    0.0000 C   0  0  0  0  0  0  0  0  0  0  0  0
    9.8433    7.5000    0.0000 C   0  0  0  0  0  0  0  0  0  0  0  0
   12.4413    6.0000    0.0000 C   0  0  0  0  0  0  0  0  0  0  0  0
   11.1423    5.2500    0.0000 C   0  0  0  0  0  0  0  0  0  0  0  0
    8.5442    3.7500    0.0000 N   0  0  0  0  0  0  0  0  0  0  0  0
    8.5442    5.2500    0.0000 C   0  0  0  0  0  0  0  0  0  0  0  0
    7.2452    6.0000    0.0000 O   0  0  0  0  0  0  0  0  0  0  0  0
   13.7404    8.2500    0.0000 C   0  0  0  0  0  0  0  0  0  0  0  0
   13.7404    9.7500    0.0000 O   0  0  0  0  0  0  0  0  0  0  0  0
   15.0394    7.5000    0.0000 N   0  0  0  0  0  0  0  0  0  0  0  0
  1 28  1  0  0  0  0
  1 30  1  0  0  0  0
  1 32  1  0  0  0  0
  2 27  1  0  0  0  0
  2 29  1  0  0  0  0
  2 34  1  0  0  0  0
  3  5  2  0  0  0  0
  3  4  1  0  0  0  0
  4  7  2  0  0  0  0
  5  6  1  0  0  0  0
  6  8  2  0  0  0  0
  7  8  1  0  0  0  0
  8  9  1  0  0  0  0
  9 10  2  0  0  0  0
  9 11  1  0  0  0  0
 10 12  1  0  0  0  0
 11 13  2  0  0  0  0
 12 14  2  0  0  0  0
 12 31  1  0  0  0  0
 13 14  1  0  0  0  0
 15 16  2  0  0  0  0
 15 17  1  0  0  0  0
 16 18  1  0  0  0  0
 17 19  2  0  0  0  0
 17 36  1  0  0  0  0
 18 20  2  0  0  0  0
 19 20  1  0  0  0  0
 20 21  1  0  0  0  0
 21 23  2  0  0  0  0
 21 22  1  0  0  0  0
 22 25  2  0  0  0  0
 23 24  1  0  0  0  0
 24 26  2  0  0  0  0
 25 26  1  0  0  0  0
 27 28  1  0  0  0  0
 29 30  1  0  0  0  0
 31 32  1  0  0  0  0
 32 33  2  0  0  0  0
 34 35  2  0  0  0  0
 34 36  1  0  0  0  0
M  END
