92753
 OpenBabel03021519512D

 13 13  0  0  0  0  0  0  0  0999 V2000
    3.8178   -3.9788    0.0000 S   0  0  0  0  0  0  0  0  0  0  0  0
    5.4495   -0.4570    0.0000 N   0  0  0  0  0  0  0  0  0  0  0  0
    6.1995   -2.7652    0.0000 N   0  0  0  0  0  0  0  0  0  0  0  0
    7.0812   -3.9788    0.0000 H   0  0  0  0  0  0  0  0  0  0  0  0
    6.6630   -1.3386    0.0000 C   0  0  0  0  0  0  0  0  0  0  0  0
    4.2359   -1.3387    0.0000 C   0  0  0  0  0  0  0  0  0  0  0  0
    4.6995   -2.7652    0.0000 C   0  0  0  0  0  0  0  0  0  0  0  0
    2.8656   -1.9488    0.0000 C   0  0  0  0  0  0  0  0  0  0  0  0
    3.4859   -0.0396    0.0000 C   0  0  0  0  0  0  0  0  0  0  0  0
    5.4495    1.0430    0.0000 N   0  0  0  0  0  0  0  0  0  0  0  0
    4.1504    1.7930    0.0000 O   0  0  0  0  0  0  0  0  0  0  0  0
    7.4130   -0.0396    0.0000 C   0  0  0  0  0  0  0  0  0  0  0  0
    8.0333   -1.9488    0.0000 C   0  0  0  0  0  0  0  0  0  0  0  0
  1  7  2  0  0  0  0
  2  5  1  0  0  0  0
  2  6  1  0  0  0  0
  2 10  1  0  0  0  0
  3  5  1  0  0  0  0
  3  7  1  0  0  0  0
  3  4  1  0  0  0  0
  5 12  1  0  0  0  0
  5 13  1  0  0  0  0
  6  7  1  0  0  0  0
  6  8  1  0  0  0  0
  6  9  1  0  0  0  0
 10 11  2  0  0  0  0
M  END
