45527
 OpenBabel03021519512D

 21 22  0  0  0  0  0  0  0  0999 V2000
    2.0491   -5.0490    0.0000 N   0  0  0  0  0  0  0  0  0  0  0  0
    2.0491   -6.5490    0.0000 N   0  0  0  0  0  0  0  0  0  0  0  0
    4.6471   -6.5490    0.0000 C   0  0  0  0  0  0  0  0  0  0  0  0
    5.9462   -7.2990    0.0000 C   0  0  0  0  0  0  0  0  0  0  0  0
    3.3481   -7.2990    0.0000 C   0  0  0  0  0  0  0  0  0  0  0  0
    5.9462   -8.7990    0.0000 C   0  0  0  0  0  0  0  0  0  0  0  0
    3.3481   -8.7990    0.0000 C   0  0  0  0  0  0  0  0  0  0  0  0
    4.6472   -9.5490    0.0000 C   0  0  0  0  0  0  0  0  0  0  0  0
    0.7500   -2.7990    0.0000 C   0  0  0  0  0  0  0  0  0  0  0  0
    0.7500   -4.2990    0.0000 C   0  0  0  0  0  0  0  0  0  0  0  0
   -0.5490   -2.0490    0.0000 C   0  0  0  0  0  0  0  0  0  0  0  0
   -0.5490   -5.0490    0.0000 C   0  0  0  0  0  0  0  0  0  0  0  0
   -1.8481   -2.7990    0.0000 C   0  0  0  0  0  0  0  0  0  0  0  0
   -1.8481   -4.2990    0.0000 C   0  0  0  0  0  0  0  0  0  0  0  0
   -3.1471   -2.0491    0.0000 C   0  0  0  0  0  0  0  0  0  0  0  0
   -0.5490   -6.5490    0.0000 S   0  0  0  0  0  0  0  0  0  0  0  0
   -2.0490   -6.5490    0.0000 O   0  0  0  0  0  0  0  0  0  0  0  0
    0.9510   -6.5490    0.0000 O   0  0  0  0  0  0  0  0  0  0  0  0
   -0.5490   -8.0490    0.0000 N   0  0  0  0  0  0  0  0  0  0  0  0
    2.0491   -9.5490    0.0000 C   0  0  0  0  0  0  0  0  0  0  0  0
    7.2452   -9.5490    0.0000 N   0  0  0  0  0  0  0  0  0  0  0  0
  1 10  1  0  0  0  0
  1  2  2  0  0  0  0
  2  5  1  0  0  0  0
  3  4  2  0  0  0  0
  3  5  1  0  0  0  0
  4  6  1  0  0  0  0
  5  7  2  0  0  0  0
  6  8  2  0  0  0  0
  6 21  1  0  0  0  0
  7  8  1  0  0  0  0
  7 20  1  0  0  0  0
  9 11  2  0  0  0  0
  9 10  1  0  0  0  0
 10 12  2  0  0  0  0
 11 13  1  0  0  0  0
 12 14  1  0  0  0  0
 12 16  1  0  0  0  0
 13 14  2  0  0  0  0
 13 15  1  0  0  0  0
 16 17  2  0  0  0  0
 16 18  2  0  0  0  0
 16 19  1  0  0  0  0
M  END
