36693
 OpenBabel03021519512D

 26 29  0  0  1  0  0  0  0  0999 V2000
   -9.7721    5.0032    0.0000 C   0  0  0  0  0  0  0  0  0  0  0  0
   -9.7721    3.5032    0.0000 C   0  0  2  0  0  0  0  0  0  0  0  0
   -8.4730    2.7532    0.0000 C   0  0  1  0  0  0  0  0  0  0  0  0
   -7.1740    3.5032    0.0000 C   0  0  2  0  0  0  0  0  0  0  0  0
   -5.8750    2.7532    0.0000 C   0  0  0  0  0  0  0  0  0  0  0  0
   -4.5759    3.5032    0.0000 C   0  0  0  0  0  0  0  0  0  0  0  0
   -4.5759    5.0032    0.0000 C   0  0  0  0  0  0  0  0  0  0  0  0
   -6.8821    0.8573    0.0000 C   0  0  0  0  0  0  0  0  0  0  0  0
   -5.4049    1.1177    0.0000 C   0  0  0  0  0  0  0  0  0  0  0  0
   -4.4407   -0.0313    0.0000 C   0  0  0  0  0  0  0  0  0  0  0  0
   -4.8036   -1.4868    0.0000 C   0  0  0  0  0  0  0  0  0  0  0  0
   -3.5316   -2.2816    0.0000 C   0  0  0  0  0  0  0  0  0  0  0  0
   -2.3825   -1.3175    0.0000 O   0  0  0  0  0  0  0  0  0  0  0  0
   -2.9444    0.0733    0.0000 C   0  0  0  0  0  0  0  0  0  0  0  0
  -11.0711    2.7532    0.0000 C   0  0  0  0  0  0  0  0  0  0  0  0
   -7.1740    2.0032    0.0000 C   0  0  0  0  0  0  0  0  0  0  0  0
   -4.7788    6.7772    0.0000 C   0  0  0  0  0  0  0  0  0  0  0  0
   -5.8750    4.2532    0.0000 H   0  0  0  0  0  0  0  0  0  0  0  0
   -9.6631    6.6664    0.0000 H   0  0  0  0  0  0  0  0  0  0  0  0
   -9.4372    1.6042    0.0000 O   0  0  0  0  0  0  0  0  0  0  0  0
   -7.1740    5.0032    0.0000 C   0  0  1  0  0  0  0  0  0  0  0  0
   -8.4730    5.7532    0.0000 C   0  0  2  0  0  0  0  0  0  0  0  0
   -8.0848    7.2021    0.0000 O   0  0  0  0  0  0  0  0  0  0  0  0
   -6.5848    7.2021    0.0000 C   0  0  0  0  0  0  0  0  0  0  0  0
   -5.8750    5.7532    0.0000 C   0  0  1  0  0  0  0  0  0  0  0  0
   -5.7910    8.4749    0.0000 O   0  0  0  0  0  0  0  0  0  0  0  0
  1  2  1  0  0  0  0
  1 22  1  0  0  0  0
  2  3  1  0  0  0  0
  2 15  1  6  0  0  0
  3  4  1  0  0  0  0
  3  8  1  1  0  0  0
  3 20  1  0  0  0  0
  4  5  1  0  0  0  0
  4 16  1  1  0  0  0
  4 21  1  0  0  0  0
  5  6  1  0  0  0  0
  6  7  1  0  0  0  0
  7 25  1  0  0  0  0
  8  9  1  0  0  0  0
  9 10  1  0  0  0  0
 10 11  1  0  0  0  0
 10 14  2  0  0  0  0
 11 12  2  0  0  0  0
 12 13  1  0  0  0  0
 13 14  1  0  0  0  0
 21 18  1  6  0  0  0
 21 22  1  0  0  0  0
 21 25  1  0  0  0  0
 22 19  1  6  0  0  0
 22 23  1  0  0  0  0
 23 24  1  0  0  0  0
 24 25  1  0  0  0  0
 24 26  2  0  0  0  0
 25 17  1  6  0  0  0
M  END
