170637
 OpenBabel03021519512D

 19 20  0  0  0  0  0  0  0  0999 V2000
  -12.4414    8.9183    0.0000 O   0  5  0  0  0  0  0  0  0  0  0  0
  -11.1423    8.1683    0.0000 N   0  3  0  0  0  0  0  0  0  0  0  0
   -7.2452    5.9183    0.0000 N   0  0  0  0  0  0  0  0  0  0  0  0
   -7.2452    4.4183    0.0000 N   0  0  0  0  0  0  0  0  0  0  0  0
   -9.8433    5.9183    0.0000 C   0  0  0  0  0  0  0  0  0  0  0  0
  -11.1423    6.6683    0.0000 C   0  0  0  0  0  0  0  0  0  0  0  0
   -8.5442    6.6683    0.0000 C   0  0  0  0  0  0  0  0  0  0  0  0
   -8.5442    8.1683    0.0000 C   0  0  0  0  0  0  0  0  0  0  0  0
   -9.8433    8.9183    0.0000 C   0  0  0  0  0  0  0  0  0  0  0  0
   -4.6471    4.4183    0.0000 C   0  0  0  0  0  0  0  0  0  0  0  0
   -5.9462    3.6683    0.0000 C   0  0  0  0  0  0  0  0  0  0  0  0
   -3.3481    3.6683    0.0000 C   0  0  0  0  0  0  0  0  0  0  0  0
   -3.3481    2.1683    0.0000 C   0  0  0  0  0  0  0  0  0  0  0  0
   -5.9462    2.1683    0.0000 C   0  0  0  0  0  0  0  0  0  0  0  0
   -4.6471    1.4183    0.0000 C   0  0  0  0  0  0  0  0  0  0  0  0
   -9.8433    4.4183    0.0000 C   0  0  0  0  0  0  0  0  0  0  0  0
   -2.0490    1.4183    0.0000 N   0  0  0  0  0  0  0  0  0  0  0  0
   -0.7500    2.1683    0.0000 C   0  0  0  0  0  0  0  0  0  0  0  0
   -2.0490    4.4183    0.0000 C   0  0  0  0  0  0  0  0  0  0  0  0
  1  2  1  0  0  0  0
  2  6  2  0  0  0  0
  2  9  1  0  0  0  0
  3  4  2  0  0  0  0
  3  7  1  0  0  0  0
  4 11  1  0  0  0  0
  5  7  2  0  0  0  0
  5  6  1  0  0  0  0
  5 16  1  0  0  0  0
  7  8  1  0  0  0  0
  8  9  2  0  0  0  0
 10 11  2  0  0  0  0
 10 12  1  0  0  0  0
 11 14  1  0  0  0  0
 12 13  2  0  0  0  0
 12 19  1  0  0  0  0
 13 15  1  0  0  0  0
 13 17  1  0  0  0  0
 14 15  2  0  0  0  0
 17 18  1  0  0  0  0
M  CHG  2   1  -1   2   1
M  END
