54834
 OpenBabel03021519512D

 13 14  0  0  1  0  0  0  0  0999 V2000
   -7.0655   -1.0739    0.0000 N   0  0  0  0  0  0  0  0  0  0  0  0
   -7.0655    0.4261    0.0000 C   0  0  0  0  0  0  0  0  0  0  0  0
   -5.7665    1.1761    0.0000 C   0  0  0  0  0  0  0  0  0  0  0  0
   -3.0408    0.8896    0.0000 C   0  0  0  0  0  0  0  0  0  0  0  0
   -4.4674    0.4261    0.0000 C   0  0  3  0  0  0  0  0  0  0  0  0
   -2.1592   -0.3239    0.0000 C   0  0  0  0  0  0  0  0  0  0  0  0
   -3.0408   -1.5375    0.0000 C   0  0  3  0  0  0  0  0  0  0  0  0
   -4.4674   -1.0739    0.0000 C   0  0  3  0  0  0  0  0  0  0  0  0
   -5.7665   -1.8239    0.0000 C   0  0  0  0  0  0  0  0  0  0  0  0
   -8.5427    0.1656    0.0000 C   0  0  0  0  0  0  0  0  0  0  0  0
   -7.5785    1.8356    0.0000 C   0  0  0  0  0  0  0  0  0  0  0  0
   -5.7665   -3.3239    0.0000 C   0  0  0  0  0  0  0  0  0  0  0  0
   -2.5773   -2.9640    0.0000 O   0  0  0  0  0  0  0  0  0  0  0  0
  1  9  2  0  0  0  0
  1  2  1  0  0  0  0
  2  3  1  0  0  0  0
  2 10  1  0  0  0  0
  2 11  1  0  0  0  0
  3  5  1  0  0  0  0
  4  5  1  0  0  0  0
  4  6  1  0  0  0  0
  5  8  1  0  0  0  0
  6  7  1  0  0  0  0
  7  8  1  0  0  0  0
  7 13  1  0  0  0  0
  8  9  1  0  0  0  0
  9 12  1  0  0  0  0
M  END
