369066
 OpenBabel03021519512D

 20 22  0  0  0  0  0  0  0  0999 V2000
    0.7500    5.3971    0.0000 C   0  0  0  0  0  0  0  0  0  0  0  0
    0.7500    3.8971    0.0000 C   0  0  0  0  0  0  0  0  0  0  0  0
    2.0490    6.1471    0.0000 N   0  0  0  0  0  0  0  0  0  0  0  0
    2.0490    3.1471    0.0000 C   0  0  0  0  0  0  0  0  0  0  0  0
    3.3481    5.3971    0.0000 C   0  0  0  0  0  0  0  0  0  0  0  0
    3.3481    3.8971    0.0000 N   0  0  0  0  0  0  0  0  0  0  0  0
    4.7747    3.4336    0.0000 C   0  0  0  0  0  0  0  0  0  0  0  0
    5.2382    2.0070    0.0000 N   0  0  0  0  0  0  0  0  0  0  0  0
    4.7747    5.8606    0.0000 N   0  0  0  0  0  0  0  0  0  0  0  0
    6.7054    1.6951    0.0000 O   0  0  0  0  0  0  0  0  0  0  0  0
    5.6563    4.6471    0.0000 C   0  0  0  0  0  0  0  0  0  0  0  0
    7.1563    4.6471    0.0000 C   0  0  0  0  0  0  0  0  0  0  0  0
    7.9063    3.3481    0.0000 C   0  0  0  0  0  0  0  0  0  0  0  0
    7.9063    5.9461    0.0000 C   0  0  0  0  0  0  0  0  0  0  0  0
    9.4063    5.9462    0.0000 C   0  0  0  0  0  0  0  0  0  0  0  0
    9.4063    3.3481    0.0000 C   0  0  0  0  0  0  0  0  0  0  0  0
   10.1563    4.6471    0.0000 C   0  0  0  0  0  0  0  0  0  0  0  0
   10.1564    2.0490    0.0000 N   0  3  0  0  0  0  0  0  0  0  0  0
   11.6564    2.0490    0.0000 O   0  5  0  0  0  0  0  0  0  0  0  0
    9.4064    0.7500    0.0000 O   0  0  0  0  0  0  0  0  0  0  0  0
  1  3  2  0  0  0  0
  1  2  1  0  0  0  0
  2  4  2  0  0  0  0
  3  5  1  0  0  0  0
  4  6  1  0  0  0  0
  5  9  2  0  0  0  0
  5  6  1  0  0  0  0
  6  7  1  0  0  0  0
  7 11  2  0  0  0  0
  7  8  1  0  0  0  0
  8 10  2  0  0  0  0
  9 11  1  0  0  0  0
 11 12  1  0  0  0  0
 12 14  2  0  0  0  0
 12 13  1  0  0  0  0
 13 16  2  0  0  0  0
 14 15  1  0  0  0  0
 15 17  2  0  0  0  0
 16 17  1  0  0  0  0
 16 18  1  0  0  0  0
 18 19  1  0  0  0  0
 18 20  2  0  0  0  0
M  CHG  2  18   1  19  -1
M  END
