105781
 OpenBabel03021519512D

 24 27  0  0  0  0  0  0  0  0999 V2000
   -7.6216   -7.2135    0.0000 N   0  0  0  0  0  0  0  0  0  0  0  0
   -8.0851   -8.6401    0.0000 H   0  0  0  0  0  0  0  0  0  0  0  0
   -2.2979   -4.5000    0.0000 N   0  0  0  0  0  0  0  0  0  0  0  0
   -4.8960   -3.0000    0.0000 C   0  0  0  0  0  0  0  0  0  0  0  0
   -3.5970   -2.2500    0.0000 C   0  0  0  0  0  0  0  0  0  0  0  0
   -2.2979   -3.0000    0.0000 C   0  0  0  0  0  0  0  0  0  0  0  0
   -4.8960   -4.5000    0.0000 C   0  0  0  0  0  0  0  0  0  0  0  0
   -3.5970   -5.2500    0.0000 C   0  0  0  0  0  0  0  0  0  0  0  0
   -6.1950   -5.2500    0.0000 C   0  0  0  0  0  0  0  0  0  0  0  0
   -3.5970   -6.7500    0.0000 C   0  0  0  0  0  0  0  0  0  0  0  0
   -6.1950   -6.7500    0.0000 C   0  0  0  0  0  0  0  0  0  0  0  0
   -7.6216   -4.7865    0.0000 C   0  0  0  0  0  0  0  0  0  0  0  0
   -8.2317   -3.4162    0.0000 C   0  0  0  0  0  0  0  0  0  0  0  0
   -9.7235   -3.2594    0.0000 C   0  0  0  0  0  0  0  0  0  0  0  0
   -8.5033   -6.0000    0.0000 C   0  0  0  0  0  0  0  0  0  0  0  0
  -10.6052   -4.4729    0.0000 C   0  0  0  0  0  0  0  0  0  0  0  0
   -4.8960   -7.5000    0.0000 C   0  0  0  0  0  0  0  0  0  0  0  0
   -9.9951   -5.8432    0.0000 C   0  0  0  0  0  0  0  0  0  0  0  0
   -7.4941    0.0000    0.0000 C   0  0  0  0  0  0  0  0  0  0  0  0
   -6.1950   -0.7500    0.0000 O   0  0  0  0  0  0  0  0  0  0  0  0
   -6.1950   -2.2500    0.0000 C   0  0  0  0  0  0  0  0  0  0  0  0
   -7.4941   -3.0000    0.0000 O   0  0  0  0  0  0  0  0  0  0  0  0
   -2.2979   -7.5000    0.0000 C   0  0  0  0  0  0  0  0  0  0  0  0
   -0.9989   -2.2500    0.0000 C   0  0  0  0  0  0  0  0  0  0  0  0
  1 11  1  0  0  0  0
  1 15  1  0  0  0  0
  1  2  1  0  0  0  0
  3  6  2  0  0  0  0
  3  8  1  0  0  0  0
  4  5  2  0  0  0  0
  4  7  1  0  0  0  0
  4 21  1  0  0  0  0
  5  6  1  0  0  0  0
  6 24  1  0  0  0  0
  7  8  2  0  0  0  0
  7  9  1  0  0  0  0
  8 10  1  0  0  0  0
  9 11  2  0  0  0  0
  9 12  1  0  0  0  0
 10 17  2  0  0  0  0
 10 23  1  0  0  0  0
 11 17  1  0  0  0  0
 12 15  2  0  0  0  0
 12 13  1  0  0  0  0
 13 14  2  0  0  0  0
 14 16  1  0  0  0  0
 15 18  1  0  0  0  0
 16 18  2  0  0  0  0
 19 20  1  0  0  0  0
 20 21  1  0  0  0  0
 21 22  2  0  0  0  0
M  END
