59984
 OpenBabel03021519512D

 19 20  0  0  0  0  0  0  0  0999 V2000
    2.0490    1.5000    0.0000 N   0  0  0  0  0  0  0  0  0  0  0  0
    4.6471    3.0000    0.0000 N   0  0  0  0  0  0  0  0  0  0  0  0
   11.2136    3.6101    0.0000 O   0  0  0  0  0  0  0  0  0  0  0  0
    3.3481    3.7500    0.0000 C   0  0  0  0  0  0  0  0  0  0  0  0
    2.0490    3.0000    0.0000 C   0  0  0  0  0  0  0  0  0  0  0  0
    9.8433    3.0000    0.0000 C   0  0  0  0  0  0  0  0  0  0  0  0
   10.0001    1.5082    0.0000 C   0  0  0  0  0  0  0  0  0  0  0  0
   11.4673    1.1964    0.0000 C   0  0  0  0  0  0  0  0  0  0  0  0
   12.2173    2.4954    0.0000 C   0  0  0  0  0  0  0  0  0  0  0  0
    4.6471    1.5000    0.0000 C   0  0  0  0  0  0  0  0  0  0  0  0
    3.3481    0.7500    0.0000 C   0  0  0  0  0  0  0  0  0  0  0  0
    0.7500    0.7500    0.0000 C   0  0  0  0  0  0  0  0  0  0  0  0
    5.9462    3.7500    0.0000 C   0  0  0  0  0  0  0  0  0  0  0  0
    5.9461    5.2500    0.0000 O   0  0  0  0  0  0  0  0  0  0  0  0
    7.2452    3.0000    0.0000 C   0  0  0  0  0  0  0  0  0  0  0  0
    8.5442    3.7500    0.0000 C   0  0  0  0  0  0  0  0  0  0  0  0
   13.7091    2.6522    0.0000 N   0  3  0  0  0  0  0  0  0  0  0  0
   14.5907    1.4387    0.0000 O   0  5  0  0  0  0  0  0  0  0  0  0
   14.3192    4.0225    0.0000 O   0  0  0  0  0  0  0  0  0  0  0  0
  1  5  1  0  0  0  0
  1 11  1  0  0  0  0
  1 12  1  0  0  0  0
  2  4  1  0  0  0  0
  2 10  1  0  0  0  0
  2 13  1  0  0  0  0
  3  6  1  0  0  0  0
  3  9  1  0  0  0  0
  4  5  1  0  0  0  0
  6  7  2  0  0  0  0
  6 16  1  0  0  0  0
  7  8  1  0  0  0  0
  8  9  2  0  0  0  0
  9 17  1  0  0  0  0
 10 11  1  0  0  0  0
 13 14  2  0  0  0  0
 13 15  1  0  0  0  0
 15 16  2  0  0  0  0
 17 18  1  0  0  0  0
 17 19  2  0  0  0  0
M  CHG  2  17   1  18  -1
M  END
