203912
 OpenBabel03021519512D

 24 25  0  0  0  0  0  0  0  0999 V2000
    9.4683   -1.3995    0.0000 Cl  0  0  0  0  0  0  0  0  0  0  0  0
    9.4683    1.6005    0.0000 Cl  0  0  0  0  0  0  0  0  0  0  0  0
    4.2721   -1.3995    0.0000 O   0  0  0  0  0  0  0  0  0  0  0  0
    4.2721    1.6005    0.0000 Cl  0  0  0  0  0  0  0  0  0  0  0  0
    5.5712   -8.1495    0.0000 Cl  0  0  0  0  0  0  0  0  0  0  0  0
    8.1692   -5.1495    0.0000 C   0  0  0  0  0  0  0  0  0  0  0  0
    9.4683   -5.8995    0.0000 C   0  0  0  0  0  0  0  0  0  0  0  0
    6.8702   -5.8995    0.0000 C   0  0  0  0  0  0  0  0  0  0  0  0
    9.4683   -7.3995    0.0000 C   0  0  0  0  0  0  0  0  0  0  0  0
    6.8702   -7.3995    0.0000 C   0  0  0  0  0  0  0  0  0  0  0  0
    8.1692   -8.1495    0.0000 C   0  0  0  0  0  0  0  0  0  0  0  0
    6.8702   -1.3995    0.0000 C   0  0  0  0  0  0  0  0  0  0  0  0
    5.5711   -0.6495    0.0000 C   0  0  0  0  0  0  0  0  0  0  0  0
    8.1692   -0.6495    0.0000 C   0  0  0  0  0  0  0  0  0  0  0  0
    5.5711    0.8505    0.0000 C   0  0  0  0  0  0  0  0  0  0  0  0
    8.1692    0.8505    0.0000 C   0  0  0  0  0  0  0  0  0  0  0  0
    6.8702    1.6005    0.0000 C   0  0  0  0  0  0  0  0  0  0  0  0
    4.2721   -2.8995    0.0000 C   0  0  0  0  0  0  0  0  0  0  0  0
    5.5712   -3.6495    0.0000 C   0  0  0  0  0  0  0  0  0  0  0  0
    6.8702   -2.8995    0.0000 O   0  0  0  0  0  0  0  0  0  0  0  0
    5.5712   -5.1495    0.0000 N   0  0  0  0  0  0  0  0  0  0  0  0
   10.7673   -8.1495    0.0000 N   0  3  0  0  0  0  0  0  0  0  0  0
   12.0664   -7.3995    0.0000 O   0  5  0  0  0  0  0  0  0  0  0  0
   10.7673   -9.6495    0.0000 O   0  0  0  0  0  0  0  0  0  0  0  0
  1 14  1  0  0  0  0
  2 16  1  0  0  0  0
  3 13  1  0  0  0  0
  3 18  1  0  0  0  0
  4 15  1  0  0  0  0
  5 10  1  0  0  0  0
  6  7  2  0  0  0  0
  6  8  1  0  0  0  0
  7  9  1  0  0  0  0
  8 10  2  0  0  0  0
  8 21  1  0  0  0  0
  9 11  2  0  0  0  0
  9 22  1  0  0  0  0
 10 11  1  0  0  0  0
 12 14  2  0  0  0  0
 12 13  1  0  0  0  0
 13 15  2  0  0  0  0
 14 16  1  0  0  0  0
 15 17  1  0  0  0  0
 16 17  2  0  0  0  0
 18 19  1  0  0  0  0
 19 20  2  0  0  0  0
 19 21  1  0  0  0  0
 22 23  1  0  0  0  0
 22 24  2  0  0  0  0
M  CHG  2  22   1  23  -1
M  END
