81750
 OpenBabel03021519512D

 25 27  0  0  0  0  0  0  0  0999 V2000
    0.7500    2.2500    0.0000 O   0  0  0  0  0  0  0  0  0  0  0  0
    2.0490    4.5000    0.0000 N   0  0  0  0  0  0  0  0  0  0  0  0
    3.3481    6.7500    0.0000 O   0  0  0  0  0  0  0  0  0  0  0  0
    3.3481    2.2500    0.0000 N   0  0  0  0  0  0  0  0  0  0  0  0
    6.0737    4.9635    0.0000 N   0  0  0  0  0  0  0  0  0  0  0  0
    6.5372    6.3901    0.0000 H   0  0  0  0  0  0  0  0  0  0  0  0
    6.0737    2.5365    0.0000 N   0  0  0  0  0  0  0  0  0  0  0  0
    3.3481    5.2500    0.0000 C   0  0  0  0  0  0  0  0  0  0  0  0
    4.6471    4.5000    0.0000 C   0  0  0  0  0  0  0  0  0  0  0  0
    4.6471    3.0000    0.0000 C   0  0  0  0  0  0  0  0  0  0  0  0
   11.4554    6.3481    0.0000 C   0  0  0  0  0  0  0  0  0  0  0  0
   12.9554    6.3481    0.0000 C   0  0  0  0  0  0  0  0  0  0  0  0
   10.7054    5.0491    0.0000 C   0  0  0  0  0  0  0  0  0  0  0  0
   13.7054    5.0491    0.0000 C   0  0  0  0  0  0  0  0  0  0  0  0
   11.4554    3.7500    0.0000 C   0  0  0  0  0  0  0  0  0  0  0  0
   12.9554    3.7500    0.0000 C   0  0  0  0  0  0  0  0  0  0  0  0
    6.9554    3.7500    0.0000 C   0  0  0  0  0  0  0  0  0  0  0  0
    2.0490    3.0000    0.0000 C   0  0  0  0  0  0  0  0  0  0  0  0
    0.7500    5.2500    0.0000 C   0  0  0  0  0  0  0  0  0  0  0  0
    3.3481    0.7500    0.0000 C   0  0  0  0  0  0  0  0  0  0  0  0
    8.4554    3.7500    0.0000 C   0  0  0  0  0  0  0  0  0  0  0  0
    9.2054    5.0491    0.0000 N   0  0  0  0  0  0  0  0  0  0  0  0
   15.2054    5.0491    0.0000 C   0  0  0  0  0  0  0  0  0  0  0  0
   15.9554    6.3481    0.0000 O   0  0  0  0  0  0  0  0  0  0  0  0
   15.9554    3.7500    0.0000 O   0  0  0  0  0  0  0  0  0  0  0  0
  1 18  2  0  0  0  0
  2  8  1  0  0  0  0
  2 18  1  0  0  0  0
  2 19  1  0  0  0  0
  3  8  2  0  0  0  0
  4 10  1  0  0  0  0
  4 18  1  0  0  0  0
  4 20  1  0  0  0  0
  5  9  1  0  0  0  0
  5 17  1  0  0  0  0
  5  6  1  0  0  0  0
  7 17  2  0  0  0  0
  7 10  1  0  0  0  0
  8  9  1  0  0  0  0
  9 10  2  0  0  0  0
 11 12  2  0  0  0  0
 11 13  1  0  0  0  0
 12 14  1  0  0  0  0
 13 15  2  0  0  0  0
 13 22  1  0  0  0  0
 14 16  2  0  0  0  0
 14 23  1  0  0  0  0
 15 16  1  0  0  0  0
 17 21  1  0  0  0  0
 21 22  1  0  0  0  0
 23 24  2  0  0  0  0
 23 25  1  0  0  0  0
M  END
