5784
 OpenBabel03021519512D

 12 12  0  0  0  0  0  0  0  0999 V2000
   -3.7500   -2.0490    0.0000 C   0  0  0  0  0  0  0  0  0  0  0  0
   -3.0000   -0.7500    0.0000 O   0  0  0  0  0  0  0  0  0  0  0  0
   -1.5000   -3.3481    0.0000 C   0  0  0  0  0  0  0  0  0  0  0  0
   -0.7500   -2.0490    0.0000 S   0  0  0  0  0  0  0  0  0  0  0  0
   -5.2500   -2.0490    0.0000 C   0  0  0  0  0  0  0  0  0  0  0  0
   -6.0000   -3.3481    0.0000 C   0  0  0  0  0  0  0  0  0  0  0  0
   -7.5000   -3.3481    0.0000 C   0  0  0  0  0  0  0  0  0  0  0  0
   -8.2500   -2.0491    0.0000 C   0  0  0  0  0  0  0  0  0  0  0  0
   -7.5000   -0.7500    0.0000 C   0  0  0  0  0  0  0  0  0  0  0  0
   -6.0000   -0.7500    0.0000 C   0  0  0  0  0  0  0  0  0  0  0  0
   -3.0000   -3.3481    0.0000 N   0  0  0  0  0  0  0  0  0  0  0  0
   -0.7500   -4.6471    0.0000 N   0  0  0  0  0  0  0  0  0  0  0  0
  1  2  2  0  0  0  0
  1  5  1  0  0  0  0
  1 11  1  0  0  0  0
  3  4  2  0  0  0  0
  3 11  1  0  0  0  0
  3 12  1  0  0  0  0
  5  6  2  0  0  0  0
  5 10  1  0  0  0  0
  6  7  1  0  0  0  0
  7  8  2  0  0  0  0
  8  9  1  0  0  0  0
  9 10  2  0  0  0  0
M  END
