330497
 OpenBabel03021519512D

 15 16  0  0  0  0  0  0  0  0999 V2000
   -3.2265    1.9055    0.0000 C   0  0  0  0  0  0  0  0  0  0  0  0
   -4.4908    1.0982    0.0000 C   0  0  0  0  0  0  0  0  0  0  0  0
   -2.0681    0.9525    0.0000 C   0  0  0  0  0  0  0  0  0  0  0  0
   -4.1137   -0.3536    0.0000 C   0  0  0  0  0  0  0  0  0  0  0  0
   -2.6164   -0.4436    0.0000 N   0  0  0  0  0  0  0  0  0  0  0  0
   -5.0667   -1.5120    0.0000 O   0  0  0  0  0  0  0  0  0  0  0  0
   -0.3107   -1.6410    0.0000 C   0  0  0  0  0  0  0  0  0  0  0  0
    1.1878   -1.5740    0.0000 C   0  0  0  0  0  0  0  0  0  0  0  0
    3.3776   -0.1758    0.0000 N   0  0  0  0  0  0  0  0  0  0  0  0
    2.7069    1.1659    0.0000 C   0  0  0  0  0  0  0  0  0  0  0  0
    4.8609    0.0474    0.0000 C   0  0  0  0  0  0  0  0  0  0  0  0
    5.1069    1.5271    0.0000 C   0  0  0  0  0  0  0  0  0  0  0  0
    3.7757    2.2183    0.0000 C   0  0  0  0  0  0  0  0  0  0  0  0
   -1.8092   -1.7079    0.0000 C   0  0  0  0  0  0  0  0  0  0  0  0
    2.6863   -1.5070    0.0000 C   0  0  0  0  0  0  0  0  0  0  0  0
  1  3  1  0  0  0  0
  1  2  1  0  0  0  0
  2  4  1  0  0  0  0
  3  5  1  0  0  0  0
  4  5  1  0  0  0  0
  4  6  2  0  0  0  0
  5 14  1  0  0  0  0
  7  8  3  0  0  0  0
  7 14  1  0  0  0  0
  8 15  1  0  0  0  0
  9 10  1  0  0  0  0
  9 11  1  0  0  0  0
  9 15  1  0  0  0  0
 10 13  1  0  0  0  0
 11 12  1  0  0  0  0
 12 13  1  0  0  0  0
M  END
