197008
 OpenBabel03021519512D

 24 25  0  0  0  0  0  0  0  0999 V2000
   12.0745  -14.7552    0.0000 O   0  0  0  0  0  0  0  0  0  0  0  0
   13.8975  -12.8003    0.0000 O   0  0  0  0  0  0  0  0  0  0  0  0
    0.1981  -14.9661    0.0000 O   0  0  0  0  0  0  0  0  0  0  0  0
    1.6539  -12.7243    0.0000 O   0  0  0  0  0  0  0  0  0  0  0  0
    1.4971  -14.2161    0.0000 C   0  0  0  0  0  0  0  0  0  0  0  0
    2.8674  -14.8262    0.0000 C   0  0  0  0  0  0  0  0  0  0  0  0
    3.8711  -13.7115    0.0000 C   0  0  0  0  0  0  0  0  0  0  0  0
    3.1211  -12.4124    0.0000 C   0  0  0  0  0  0  0  0  0  0  0  0
   12.4880  -13.3133    0.0000 C   0  0  0  0  0  0  0  0  0  0  0  0
   11.2444  -12.4745    0.0000 C   0  0  0  0  0  0  0  0  0  0  0  0
   10.0624  -13.3980    0.0000 C   0  0  0  0  0  0  0  0  0  0  0  0
   10.5754  -14.8075    0.0000 C   0  0  0  0  0  0  0  0  0  0  0  0
   11.1920  -10.9754    0.0000 C   0  0  0  0  0  0  0  0  0  0  0  0
    9.8676  -10.2712    0.0000 N   0  0  0  0  0  0  0  0  0  0  0  0
    8.7529  -11.2749    0.0000 C   0  0  0  0  0  0  0  0  0  0  0  0
    9.0648  -12.7421    0.0000 C   0  0  0  0  0  0  0  0  0  0  0  0
    7.9501  -13.7458    0.0000 C   0  0  0  0  0  0  0  0  0  0  0  0
    8.2619  -15.2131    0.0000 C   0  0  0  0  0  0  0  0  0  0  0  0
    7.1472  -16.2167    0.0000 C   0  0  0  0  0  0  0  0  0  0  0  0
    7.4591  -17.6840    0.0000 C   0  0  0  0  0  0  0  0  0  0  0  0
    6.3444  -18.6877    0.0000 C   0  0  0  0  0  0  0  0  0  0  0  0
    4.9178  -18.2241    0.0000 C   0  0  0  0  0  0  0  0  0  0  0  0
    4.6059  -16.7569    0.0000 N   0  0  0  0  0  0  0  0  0  0  0  0
    3.1793  -16.2934    0.0000 C   0  0  0  0  0  0  0  0  0  0  0  0
  1  9  1  0  0  0  0
  1 12  1  0  0  0  0
  2  9  2  0  0  0  0
  3  5  2  0  0  0  0
  4  5  1  0  0  0  0
  4  8  1  0  0  0  0
  5  6  1  0  0  0  0
  6  7  1  0  0  0  0
  6 24  2  0  0  0  0
  7  8  1  0  0  0  0
  9 10  1  0  0  0  0
 10 11  1  0  0  0  0
 10 13  2  0  0  0  0
 11 12  1  0  0  0  0
 13 14  1  0  0  0  0
 14 15  1  0  0  0  0
 15 16  1  0  0  0  0
 16 17  1  0  0  0  0
 17 18  1  0  0  0  0
 18 19  1  0  0  0  0
 19 20  1  0  0  0  0
 20 21  1  0  0  0  0
 21 22  1  0  0  0  0
 22 23  1  0  0  0  0
 23 24  1  0  0  0  0
M  END
