294150
 OpenBabel03021519512D

 21 23  0  0  0  0  0  0  0  0999 V2000
    3.2769    1.5777    0.0000 C   0  0  0  0  0  0  0  0  0  0  0  0
    2.5269    2.8768    0.0000 C   0  0  0  0  0  0  0  0  0  0  0  0
    4.7769    1.5777    0.0000 N   0  0  0  0  0  0  0  0  0  0  0  0
    5.7806    0.4630    0.0000 C   0  0  0  0  0  0  0  0  0  0  0  0
    3.2769    4.1758    0.0000 C   0  0  0  0  0  0  0  0  0  0  0  0
    7.1509    1.0731    0.0000 C   0  0  0  0  0  0  0  0  0  0  0  0
    5.5269    2.8768    0.0000 C   0  0  0  0  0  0  0  0  0  0  0  0
    4.7769    4.1758    0.0000 C   0  0  0  0  0  0  0  0  0  0  0  0
    8.4500    0.3231    0.0000 N   0  0  0  0  0  0  0  0  0  0  0  0
    6.9942    2.5649    0.0000 N   0  0  0  0  0  0  0  0  0  0  0  0
    8.4500   -1.1769    0.0000 C   0  0  0  0  0  0  0  0  0  0  0  0
    9.7490    1.0731    0.0000 C   0  0  0  0  0  0  0  0  0  0  0  0
    9.7490   -1.9269    0.0000 C   0  0  0  0  0  0  0  0  0  0  0  0
   11.0481   -1.1769    0.0000 N   0  0  0  0  0  0  0  0  0  0  0  0
   11.0481    0.3231    0.0000 C   0  0  0  0  0  0  0  0  0  0  0  0
    5.4688   -1.0042    0.0000 N   0  3  0  0  0  0  0  0  0  0  0  0
    4.0422   -1.4677    0.0000 O   0  5  0  0  0  0  0  0  0  0  0  0
    6.5835   -2.0079    0.0000 O   0  0  0  0  0  0  0  0  0  0  0  0
   12.3471   -1.9269    0.0000 C   0  0  0  0  0  0  0  0  0  0  0  0
   13.6461   -1.1769    0.0000 C   0  0  0  0  0  0  0  0  0  0  0  0
   14.9452   -1.9269    0.0000 O   0  0  0  0  0  0  0  0  0  0  0  0
  1  2  2  0  0  0  0
  1  3  1  0  0  0  0
  2  5  1  0  0  0  0
  3  7  1  0  0  0  0
  3  4  1  0  0  0  0
  4  6  2  0  0  0  0
  4 16  1  0  0  0  0
  5  8  2  0  0  0  0
  6 10  1  0  0  0  0
  6  9  1  0  0  0  0
  7  8  1  0  0  0  0
  7 10  2  0  0  0  0
  9 12  1  0  0  0  0
  9 11  1  0  0  0  0
 11 13  1  0  0  0  0
 12 15  1  0  0  0  0
 13 14  1  0  0  0  0
 14 15  1  0  0  0  0
 14 19  1  0  0  0  0
 16 17  1  0  0  0  0
 16 18  2  0  0  0  0
 19 20  1  0  0  0  0
 20 21  1  0  0  0  0
M  CHG  2  16   1  17  -1
M  END
