156957
 OpenBabel03021519512D

 19 20  0  0  1  0  0  0  0  0999 V2000
    3.3901   -3.0583    0.0000 N   0  0  0  0  0  0  0  0  0  0  0  0
    0.7500   -2.6401    0.0000 O   0  0  0  0  0  0  0  0  0  0  0  0
    2.0911   -5.3083    0.0000 O   0  0  0  0  0  0  0  0  0  0  0  0
    4.6036   -2.1766    0.0000 C   0  0  3  0  0  0  0  0  0  0  0  0
    4.1401   -0.7500    0.0000 C   0  0  0  0  0  0  0  0  0  0  0  0
    2.6401   -0.7500    0.0000 C   0  0  0  0  0  0  0  0  0  0  0  0
    2.1766   -2.1766    0.0000 C   0  0  0  0  0  0  0  0  0  0  0  0
    4.6892   -6.8083    0.0000 C   0  0  0  0  0  0  0  0  0  0  0  0
    3.3901   -7.5583    0.0000 C   0  0  0  0  0  0  0  0  0  0  0  0
    5.9882   -7.5583    0.0000 C   0  0  0  0  0  0  0  0  0  0  0  0
    5.9882   -9.0583    0.0000 C   0  0  0  0  0  0  0  0  0  0  0  0
    3.3901   -9.0583    0.0000 C   0  0  0  0  0  0  0  0  0  0  0  0
    4.6892   -9.8083    0.0000 C   0  0  0  0  0  0  0  0  0  0  0  0
    6.0302   -2.6401    0.0000 C   0  0  0  0  0  0  0  0  0  0  0  0
    7.1449   -1.6364    0.0000 O   0  0  0  0  0  0  0  0  0  0  0  0
    6.3421   -4.1073    0.0000 O   0  0  0  0  0  0  0  0  0  0  0  0
    3.3901   -4.5583    0.0000 C   0  0  0  0  0  0  0  0  0  0  0  0
    4.6892   -5.3083    0.0000 O   0  0  0  0  0  0  0  0  0  0  0  0
    2.0911   -6.8083    0.0000 C   0  0  0  0  0  0  0  0  0  0  0  0
  1  4  1  0  0  0  0
  1  7  1  0  0  0  0
  1 17  1  0  0  0  0
  2  7  2  0  0  0  0
  3 17  1  0  0  0  0
  3 19  1  0  0  0  0
  4  5  1  0  0  0  0
  4 14  1  0  0  0  0
  5  6  1  0  0  0  0
  6  7  1  0  0  0  0
  8 10  2  0  0  0  0
  8  9  1  0  0  0  0
  9 12  2  0  0  0  0
  9 19  1  0  0  0  0
 10 11  1  0  0  0  0
 11 13  2  0  0  0  0
 12 13  1  0  0  0  0
 14 15  2  0  0  0  0
 14 16  1  0  0  0  0
 17 18  2  0  0  0  0
M  END
