83715
 OpenBabel03021519512D

 21 24  0  0  1  0  0  0  0  0999 V2000
    0.7500   -5.2500    0.0000 H   0  0  0  0  0  0  0  0  0  0  0  0
    2.0490   -6.0000    0.0000 N   0  0  0  0  0  0  0  0  0  0  0  0
    4.6471   -6.0000    0.0000 N   0  0  0  0  0  0  0  0  0  0  0  0
    4.6471   -1.5000    0.0000 N   0  0  0  0  0  0  0  0  0  0  0  0
    5.9462   -5.2500    0.0000 H   0  0  0  0  0  0  0  0  0  0  0  0
    3.3481   -0.7500    0.0000 C   0  0  0  0  0  0  0  0  0  0  0  0
    2.0490   -1.5000    0.0000 C   0  0  0  0  0  0  0  0  0  0  0  0
    2.0490   -3.0000    0.0000 C   0  0  0  0  0  0  0  0  0  0  0  0
    3.3481   -3.7500    0.0000 C   0  0  0  0  0  0  0  0  0  0  0  0
    4.6471   -3.0000    0.0000 C   0  0  0  0  0  0  0  0  0  0  0  0
    3.3481   -5.2500    0.0000 C   0  0  3  0  0  0  0  0  0  0  0  0
    4.6471   -7.5000    0.0000 C   0  0  0  0  0  0  0  0  0  0  0  0
    3.3481   -8.2500    0.0000 C   0  0  0  0  0  0  0  0  0  0  0  0
    5.9462   -8.2500    0.0000 C   0  0  0  0  0  0  0  0  0  0  0  0
    2.0491   -7.5000    0.0000 C   0  0  0  0  0  0  0  0  0  0  0  0
    0.7500   -8.2500    0.0000 C   0  0  0  0  0  0  0  0  0  0  0  0
    5.9462   -9.7500    0.0000 C   0  0  0  0  0  0  0  0  0  0  0  0
    3.3481   -9.7500    0.0000 C   0  0  0  0  0  0  0  0  0  0  0  0
    0.7500   -9.7500    0.0000 C   0  0  0  0  0  0  0  0  0  0  0  0
    4.6471  -10.5000    0.0000 C   0  0  0  0  0  0  0  0  0  0  0  0
    2.0491  -10.5000    0.0000 C   0  0  0  0  0  0  0  0  0  0  0  0
  1  2  1  0  0  0  0
  2 11  1  0  0  0  0
  2 15  1  0  0  0  0
  3 11  1  0  0  0  0
  3 12  1  0  0  0  0
  3  5  1  0  0  0  0
  4 10  2  0  0  0  0
  4  6  1  0  0  0  0
  6  7  2  0  0  0  0
  7  8  1  0  0  0  0
  8  9  2  0  0  0  0
  9 10  1  0  0  0  0
  9 11  1  0  0  0  0
 12 13  2  0  0  0  0
 12 14  1  0  0  0  0
 13 15  1  0  0  0  0
 13 18  1  0  0  0  0
 14 17  2  0  0  0  0
 15 16  2  0  0  0  0
 16 19  1  0  0  0  0
 17 20  1  0  0  0  0
 18 20  2  0  0  0  0
 18 21  1  0  0  0  0
 19 21  2  0  0  0  0
M  END
