284701
 OpenBabel03021519512D

 11 12  0  0  1  0  0  0  0  0999 V2000
    2.6401   -3.4566    0.0000 C   0  0  0  0  0  0  0  0  0  0  0  0
    2.1766   -4.8832    0.0000 C   0  0  3  0  0  0  0  0  0  0  0  0
    3.3901   -5.7649    0.0000 N   0  0  0  0  0  0  0  0  0  0  0  0
    4.6036   -4.8832    0.0000 C   0  0  0  0  0  0  0  0  0  0  0  0
    4.1401   -3.4566    0.0000 C   0  0  0  0  0  0  0  0  0  0  0  0
    3.8537   -7.1915    0.0000 C   0  0  0  0  0  0  0  0  0  0  0  0
    5.8172   -5.7649    0.0000 N   0  0  0  0  0  0  0  0  0  0  0  0
    5.3537   -7.1915    0.0000 C   0  0  0  0  0  0  0  0  0  0  0  0
    0.7500   -5.3467    0.0000 C   0  0  0  0  0  0  0  0  0  0  0  0
    3.9833   -1.9648    0.0000 C   0  0  0  0  0  0  0  0  0  0  0  0
    5.6073   -3.1448    0.0000 C   0  0  0  0  0  0  0  0  0  0  0  0
  1  5  1  0  0  0  0
  1  2  1  0  0  0  0
  2  3  1  0  0  0  0
  2  9  1  0  0  0  0
  3  4  1  0  0  0  0
  3  6  1  0  0  0  0
  4  5  1  0  0  0  0
  4  7  2  0  0  0  0
  5 10  1  0  0  0  0
  5 11  1  0  0  0  0
  6  8  1  0  0  0  0
  7  8  1  0  0  0  0
M  END
