128737
 OpenBabel03021519512D

 17 19  0  0  0  0  0  0  0  0999 V2000
  -10.8657    1.4927    0.0000 N   0  0  0  0  0  0  0  0  0  0  0  0
   -6.3985    1.1809    0.0000 N   0  0  0  0  0  0  0  0  0  0  0  0
   -5.2838    2.1845    0.0000 H   0  0  0  0  0  0  0  0  0  0  0  0
   -7.6120   -0.9210    0.0000 N   0  0  0  0  0  0  0  0  0  0  0  0
   -3.6436   -0.3109    0.0000 C   0  0  0  0  0  0  0  0  0  0  0  0
   -4.9426   -1.0609    0.0000 C   0  0  0  0  0  0  0  0  0  0  0  0
   -2.3446   -1.0609    0.0000 C   0  0  0  0  0  0  0  0  0  0  0  0
   -2.3446   -2.5609    0.0000 C   0  0  0  0  0  0  0  0  0  0  0  0
   -4.9426   -2.5609    0.0000 C   0  0  0  0  0  0  0  0  0  0  0  0
   -6.2417   -0.3109    0.0000 C   0  0  0  0  0  0  0  0  0  0  0  0
   -3.6436   -3.3109    0.0000 C   0  0  0  0  0  0  0  0  0  0  0  0
   -8.6157    2.7918    0.0000 C   0  0  0  0  0  0  0  0  0  0  0  0
   -7.8657    1.4927    0.0000 C   0  0  0  0  0  0  0  0  0  0  0  0
  -10.1157    2.7918    0.0000 C   0  0  0  0  0  0  0  0  0  0  0  0
   -8.6157    0.1937    0.0000 C   0  0  0  0  0  0  0  0  0  0  0  0
  -10.1157    0.1937    0.0000 C   0  0  0  0  0  0  0  0  0  0  0  0
   -6.2417   -3.3109    0.0000 N   0  0  0  0  0  0  0  0  0  0  0  0
  1 16  2  0  0  0  0
  1 14  1  0  0  0  0
  2 10  1  0  0  0  0
  2 13  1  0  0  0  0
  2  3  1  0  0  0  0
  4 10  2  0  0  0  0
  4 15  1  0  0  0  0
  5  7  2  0  0  0  0
  5  6  1  0  0  0  0
  6  9  2  0  0  0  0
  6 10  1  0  0  0  0
  7  8  1  0  0  0  0
  8 11  2  0  0  0  0
  9 11  1  0  0  0  0
  9 17  1  0  0  0  0
 12 14  2  0  0  0  0
 12 13  1  0  0  0  0
 13 15  2  0  0  0  0
 15 16  1  0  0  0  0
M  END
