366802
 OpenBabel03021519512D

 22 24  0  0  0  0  0  0  0  0999 V2000
    2.0755    0.3322    0.0000 C   0  0  0  0  0  0  0  0  0  0  0  0
    1.4654   -1.0381    0.0000 C   0  0  0  0  0  0  0  0  0  0  0  0
    2.9571   -0.8813    0.0000 C   0  0  0  0  0  0  0  0  0  0  0  0
    5.6265   -0.7414    0.0000 N   0  0  0  0  0  0  0  0  0  0  0  0
    4.3275   -1.4914    0.0000 C   0  0  0  0  0  0  0  0  0  0  0  0
    6.7412   -1.7451    0.0000 N   0  0  0  0  0  0  0  0  0  0  0  0
    6.1311   -3.1154    0.0000 C   0  0  0  0  0  0  0  0  0  0  0  0
    4.6393   -2.9586    0.0000 C   0  0  0  0  0  0  0  0  0  0  0  0
    6.1311   -5.7135    0.0000 C   0  0  0  0  0  0  0  0  0  0  0  0
    4.6311   -5.7135    0.0000 O   0  0  0  0  0  0  0  0  0  0  0  0
    8.2084   -1.4332    0.0000 C   0  0  0  0  0  0  0  0  0  0  0  0
    7.8966    0.0340    0.0000 C   0  0  0  0  0  0  0  0  0  0  0  0
    8.5203   -2.9004    0.0000 C   0  0  0  0  0  0  0  0  0  0  0  0
    9.6757   -1.1213    0.0000 C   0  0  0  0  0  0  0  0  0  0  0  0
    6.8811   -4.4144    0.0000 N   0  0  0  0  0  0  0  0  0  0  0  0
    6.8811   -7.0125    0.0000 N   0  0  0  0  0  0  0  0  0  0  0  0
    8.3811   -7.0125    0.0000 C   0  0  0  0  0  0  0  0  0  0  0  0
    9.1311   -5.7135    0.0000 C   0  0  0  0  0  0  0  0  0  0  0  0
   10.6311   -5.7135    0.0000 C   0  0  0  0  0  0  0  0  0  0  0  0
   11.3811   -7.0125    0.0000 C   0  0  0  0  0  0  0  0  0  0  0  0
   10.6311   -8.3115    0.0000 C   0  0  0  0  0  0  0  0  0  0  0  0
    9.1311   -8.3115    0.0000 C   0  0  0  0  0  0  0  0  0  0  0  0
  1  3  1  0  0  0  0
  1  2  1  0  0  0  0
  2  3  1  0  0  0  0
  3  5  1  0  0  0  0
  4  6  1  0  0  0  0
  4  5  2  0  0  0  0
  5  8  1  0  0  0  0
  6  7  1  0  0  0  0
  6 11  1  0  0  0  0
  7  8  2  0  0  0  0
  7 15  1  0  0  0  0
  9 10  2  0  0  0  0
  9 15  1  0  0  0  0
  9 16  1  0  0  0  0
 11 12  1  0  0  0  0
 11 13  1  0  0  0  0
 11 14  1  0  0  0  0
 16 17  1  0  0  0  0
 17 18  2  0  0  0  0
 17 22  1  0  0  0  0
 18 19  1  0  0  0  0
 19 20  2  0  0  0  0
 20 21  1  0  0  0  0
 21 22  2  0  0  0  0
M  END
