36753
 OpenBabel03021519512D

 21 22  0  0  0  0  0  0  0  0999 V2000
    8.5442    6.7500    0.0000 O   0  0  0  0  0  0  0  0  0  0  0  0
    8.5442    0.7500    0.0000 O   0  0  0  0  0  0  0  0  0  0  0  0
    9.8433    3.0000    0.0000 N   0  0  0  0  0  0  0  0  0  0  0  0
    9.8433    4.5000    0.0000 N   0  0  0  0  0  0  0  0  0  0  0  0
   11.1423    2.2500    0.0000 H   0  0  0  0  0  0  0  0  0  0  0  0
    8.5442    5.2500    0.0000 C   0  0  0  0  0  0  0  0  0  0  0  0
    7.2452    4.5000    0.0000 C   0  0  0  0  0  0  0  0  0  0  0  0
    7.2452    3.0000    0.0000 C   0  0  0  0  0  0  0  0  0  0  0  0
    8.5442    2.2500    0.0000 C   0  0  0  0  0  0  0  0  0  0  0  0
   11.1423    6.7500    0.0000 C   0  0  0  0  0  0  0  0  0  0  0  0
   11.1423    5.2500    0.0000 C   0  0  0  0  0  0  0  0  0  0  0  0
   12.4413    7.5000    0.0000 C   0  0  0  0  0  0  0  0  0  0  0  0
   13.7404    6.7500    0.0000 C   0  0  0  0  0  0  0  0  0  0  0  0
   12.4413    4.5000    0.0000 C   0  0  0  0  0  0  0  0  0  0  0  0
   13.7404    5.2500    0.0000 C   0  0  0  0  0  0  0  0  0  0  0  0
    2.0490    4.5000    0.0000 C   0  0  0  0  0  0  0  0  0  0  0  0
    0.7500    5.2500    0.0000 C   0  0  0  0  0  0  0  0  0  0  0  0
    3.3481    5.2500    0.0000 O   0  0  0  0  0  0  0  0  0  0  0  0
    4.6471    4.5000    0.0000 C   0  0  0  0  0  0  0  0  0  0  0  0
    4.6471    3.0000    0.0000 O   0  0  0  0  0  0  0  0  0  0  0  0
    5.9462    5.2500    0.0000 C   0  0  0  0  0  0  0  0  0  0  0  0
  1  6  2  0  0  0  0
  2  9  2  0  0  0  0
  3  4  1  0  0  0  0
  3  9  1  0  0  0  0
  3  5  1  0  0  0  0
  4  6  1  0  0  0  0
  4 11  1  0  0  0  0
  6  7  1  0  0  0  0
  7  8  2  0  0  0  0
  7 21  1  0  0  0  0
  8  9  1  0  0  0  0
 10 12  2  0  0  0  0
 10 11  1  0  0  0  0
 11 14  2  0  0  0  0
 12 13  1  0  0  0  0
 13 15  2  0  0  0  0
 14 15  1  0  0  0  0
 16 17  1  0  0  0  0
 16 18  1  0  0  0  0
 18 19  1  0  0  0  0
 19 20  2  0  0  0  0
 19 21  1  0  0  0  0
M  END
