44819
 OpenBabel03021519512D

 14 14  0  0  0  0  0  0  0  0999 V2000
    0.7500    0.7500    0.0000 S   0  0  0  0  0  0  0  0  0  0  0  0
    0.7500    3.7500    0.0000 H   0  0  0  0  0  0  0  0  0  0  0  0
    2.0490    3.0000    0.0000 N   0  0  0  0  0  0  0  0  0  0  0  0
    3.3481    0.7500    0.0000 N   0  0  0  0  0  0  0  0  0  0  0  0
    3.3481    5.2500    0.0000 O   0  0  0  0  0  0  0  0  0  0  0  0
    3.3481    3.7500    0.0000 C   0  0  0  0  0  0  0  0  0  0  0  0
    4.6471    3.0000    0.0000 C   0  0  0  0  0  0  0  0  0  0  0  0
    4.6471    1.5000    0.0000 C   0  0  0  0  0  0  0  0  0  0  0  0
    2.0490    1.5000    0.0000 C   0  0  0  0  0  0  0  0  0  0  0  0
    5.1601    4.4095    0.0000 C   0  0  0  0  0  0  0  0  0  0  0  0
    6.6374    4.6700    0.0000 C   0  0  0  0  0  0  0  0  0  0  0  0
    5.9462    0.7500    0.0000 N   0  0  0  0  0  0  0  0  0  0  0  0
    6.1243    2.7395    0.0000 C   0  0  0  0  0  0  0  0  0  0  0  0
    6.6374    1.3300    0.0000 C   0  0  0  0  0  0  0  0  0  0  0  0
  1  9  2  0  0  0  0
  2  3  1  0  0  0  0
  3  6  1  0  0  0  0
  3  9  1  0  0  0  0
  4  8  2  0  0  0  0
  4  9  1  0  0  0  0
  5  6  2  0  0  0  0
  6  7  1  0  0  0  0
  7  8  1  0  0  0  0
  7 10  1  0  0  0  0
  7 13  1  0  0  0  0
  8 12  1  0  0  0  0
 10 11  1  0  0  0  0
 13 14  1  0  0  0  0
M  END
