39047
 OpenBabel03021519512D

 19 20  0  0  0  0  0  0  0  0999 V2000
    4.2721   -5.8995    0.0000 O   0  0  0  0  0  0  0  0  0  0  0  0
    6.8702   -5.8995    0.0000 C   0  0  0  0  0  0  0  0  0  0  0  0
    8.1692   -6.6495    0.0000 C   0  0  0  0  0  0  0  0  0  0  0  0
    5.5712   -6.6495    0.0000 C   0  0  0  0  0  0  0  0  0  0  0  0
    8.1692   -8.1495    0.0000 C   0  0  0  0  0  0  0  0  0  0  0  0
    5.5712   -8.1495    0.0000 C   0  0  0  0  0  0  0  0  0  0  0  0
    6.8702   -8.8995    0.0000 C   0  0  0  0  0  0  0  0  0  0  0  0
    5.5712   -3.6495    0.0000 C   0  0  0  0  0  0  0  0  0  0  0  0
    4.2721   -4.3995    0.0000 C   0  0  0  0  0  0  0  0  0  0  0  0
    5.5712   -2.1495    0.0000 C   0  0  0  0  0  0  0  0  0  0  0  0
    2.9731   -3.6495    0.0000 C   0  0  0  0  0  0  0  0  0  0  0  0
    4.2721   -1.3995    0.0000 C   0  0  0  0  0  0  0  0  0  0  0  0
    2.9731   -2.1495    0.0000 C   0  0  0  0  0  0  0  0  0  0  0  0
    4.2721    0.1005    0.0000 C   0  0  0  0  0  0  0  0  0  0  0  0
    5.5711    0.8505    0.0000 O   0  0  0  0  0  0  0  0  0  0  0  0
    2.9731    0.8505    0.0000 N   0  0  0  0  0  0  0  0  0  0  0  0
    9.4683   -8.8995    0.0000 C   0  0  0  0  0  0  0  0  0  0  0  0
   10.7673   -8.1495    0.0000 O   0  0  0  0  0  0  0  0  0  0  0  0
    9.4683  -10.3995    0.0000 N   0  0  0  0  0  0  0  0  0  0  0  0
  1  4  1  0  0  0  0
  1  9  1  0  0  0  0
  2  3  2  0  0  0  0
  2  4  1  0  0  0  0
  3  5  1  0  0  0  0
  4  6  2  0  0  0  0
  5  7  2  0  0  0  0
  5 17  1  0  0  0  0
  6  7  1  0  0  0  0
  8 10  2  0  0  0  0
  8  9  1  0  0  0  0
  9 11  2  0  0  0  0
 10 12  1  0  0  0  0
 11 13  1  0  0  0  0
 12 13  2  0  0  0  0
 12 14  1  0  0  0  0
 14 15  2  0  0  0  0
 14 16  1  0  0  0  0
 17 18  2  0  0  0  0
 17 19  1  0  0  0  0
M  END
