379538
 OpenBabel03021519512D

 21 23  0  0  1  0  0  0  0  0999 V2000
   -1.9311  -10.8447    0.0000 C   0  0  0  0  0  0  0  0  0  0  0  0
   -1.9311  -12.3447    0.0000 C   0  0  0  0  0  0  0  0  0  0  0  0
   -0.3202   -8.6275    0.0000 N   0  0  0  0  0  0  0  0  0  0  0  0
   -0.6320  -10.0947    0.0000 C   0  0  0  0  0  0  0  0  0  0  0  0
   -0.6320  -13.0947    0.0000 N   0  0  0  0  0  0  0  0  0  0  0  0
    1.1716   -8.4707    0.0000 C   0  0  3  0  0  0  0  0  0  0  0  0
    1.1716   -5.8726    0.0000 C   0  0  0  0  0  0  0  0  0  0  0  0
    0.6670  -10.8447    0.0000 N   0  0  0  0  0  0  0  0  0  0  0  0
    0.6670  -12.3447    0.0000 C   0  0  0  0  0  0  0  0  0  0  0  0
    1.7817   -9.8410    0.0000 N   0  0  0  0  0  0  0  0  0  0  0  0
    1.9216   -7.1716    0.0000 C   0  0  0  0  0  0  0  0  0  0  0  0
    1.9660  -13.0947    0.0000 S   0  0  0  0  0  0  0  0  0  0  0  0
    1.9216   -4.5736    0.0000 C   0  0  0  0  0  0  0  0  0  0  0  0
    3.4216   -4.5736    0.0000 C   0  0  0  0  0  0  0  0  0  0  0  0
    3.2489  -10.1529    0.0000 H   0  0  0  0  0  0  0  0  0  0  0  0
    3.4216   -7.1716    0.0000 C   0  0  0  0  0  0  0  0  0  0  0  0
    4.1716   -5.8726    0.0000 C   0  0  0  0  0  0  0  0  0  0  0  0
    4.1716   -3.2745    0.0000 Cl  0  0  0  0  0  0  0  0  0  0  0  0
   -3.2301  -10.0947    0.0000 C   0  0  0  0  0  0  0  0  0  0  0  0
   -4.5291   -9.3447    0.0000 N   0  0  0  0  0  0  0  0  0  0  0  0
    3.2651  -12.3447    0.0000 C   0  0  0  0  0  0  0  0  0  0  0  0
  1  4  1  0  0  0  0
  1  2  2  0  0  0  0
  1 19  1  0  0  0  0
  2  5  1  0  0  0  0
  3  6  1  0  0  0  0
  3  4  2  0  0  0  0
  4  8  1  0  0  0  0
  5  9  2  0  0  0  0
  6 11  1  0  0  0  0
  6 10  1  0  0  0  0
  7 13  1  0  0  0  0
  7 11  2  0  0  0  0
  8 10  1  0  0  0  0
  8  9  1  0  0  0  0
  9 12  1  0  0  0  0
 10 15  1  0  0  0  0
 11 16  1  0  0  0  0
 12 21  1  0  0  0  0
 13 14  2  0  0  0  0
 14 18  1  0  0  0  0
 14 17  1  0  0  0  0
 16 17  2  0  0  0  0
 19 20  3  0  0  0  0
M  END
