367306
 OpenBabel03021519512D

 24 25  0  0  0  0  0  0  0  0999 V2000
   -6.5161   -1.0731    0.0000 F   0  0  0  0  0  0  0  0  0  0  0  0
   -5.1563   -0.4400    0.0000 C   0  0  0  0  0  0  0  0  0  0  0  0
   -6.2528    1.9153    0.0000 Cl  0  0  0  0  0  0  0  0  0  0  0  0
   -4.0597   -2.7953    0.0000 Cl  0  0  0  0  0  0  0  0  0  0  0  0
   -5.0246    1.0542    0.0000 C   0  0  0  0  0  0  0  0  0  0  0  0
   -3.9280   -1.3011    0.0000 C   0  0  0  0  0  0  0  0  0  0  0  0
   -2.5682   -0.6680    0.0000 C   0  0  0  0  0  0  0  0  0  0  0  0
   -3.6648    1.6873    0.0000 C   0  0  0  0  0  0  0  0  0  0  0  0
   -2.4366    0.8262    0.0000 C   0  0  0  0  0  0  0  0  0  0  0  0
   -3.5332    3.1815    0.0000 F   0  0  0  0  0  0  0  0  0  0  0  0
   -0.0167    0.3981    0.0000 C   0  0  0  0  0  0  0  0  0  0  0  0
   -0.4058   -1.0506    0.0000 O   0  0  0  0  0  0  0  0  0  0  0  0
    1.6573   -1.8029    0.0000 O   0  0  0  0  0  0  0  0  0  0  0  0
    2.2921   -0.4438    0.0000 C   0  0  0  0  0  0  0  0  0  0  0  0
    3.5615    2.2744    0.0000 F   0  0  0  0  0  0  0  0  0  0  0  0
    3.7864   -0.3140    0.0000 C   0  0  0  0  0  0  0  0  0  0  0  0
    4.0113   -2.9023    0.0000 F   0  0  0  0  0  0  0  0  0  0  0  0
    4.6461   -1.5432    0.0000 C   0  0  0  0  0  0  0  0  0  0  0  0
    4.4212    1.0451    0.0000 C   0  0  0  0  0  0  0  0  0  0  0  0
    6.1404   -1.4134    0.0000 C   0  0  0  0  0  0  0  0  0  0  0  0
    5.9155    1.1750    0.0000 C   0  0  0  0  0  0  0  0  0  0  0  0
    6.7752   -0.0543    0.0000 C   0  0  0  0  0  0  0  0  0  0  0  0
   -1.0767    1.4593    0.0000 N   0  0  0  0  0  0  0  0  0  0  0  0
    1.4324    0.7854    0.0000 N   0  0  0  0  0  0  0  0  0  0  0  0
  1  2  1  0  0  0  0
  2  5  2  0  0  0  0
  2  6  1  0  0  0  0
  3  5  1  0  0  0  0
  4  6  1  0  0  0  0
  5  8  1  0  0  0  0
  6  7  2  0  0  0  0
  7  9  1  0  0  0  0
  8 10  1  0  0  0  0
  8  9  2  0  0  0  0
  9 23  1  0  0  0  0
 11 12  2  0  0  0  0
 11 23  1  0  0  0  0
 11 24  1  0  0  0  0
 13 14  2  0  0  0  0
 14 16  1  0  0  0  0
 14 24  1  0  0  0  0
 15 19  1  0  0  0  0
 16 19  2  0  0  0  0
 16 18  1  0  0  0  0
 17 18  1  0  0  0  0
 18 20  2  0  0  0  0
 19 21  1  0  0  0  0
 20 22  1  0  0  0  0
 21 22  2  0  0  0  0
M  END
