34879
 OpenBabel03021519512D

 20 22  0  0  1  0  0  0  0  0999 V2000
    6.3213    5.5824    0.0000 C   0  0  0  0  0  0  0  0  0  0  0  0
    7.6204    4.8324    0.0000 C   0  0  0  0  0  0  0  0  0  0  0  0
    5.0223    4.8324    0.0000 C   0  0  0  0  0  0  0  0  0  0  0  0
    7.6204    3.3324    0.0000 C   0  0  0  0  0  0  0  0  0  0  0  0
    5.0223    3.3324    0.0000 C   0  0  0  0  0  0  0  0  0  0  0  0
    6.3213    2.5824    0.0000 C   0  0  0  0  0  0  0  0  0  0  0  0
    7.6204    0.3324    0.0000 C   0  0  3  0  0  0  0  0  0  0  0  0
    8.3704   -0.9666    0.0000 C   0  0  3  0  0  0  0  0  0  0  0  0
    9.1204    0.3324    0.0000 C   0  0  3  0  0  0  0  0  0  0  0  0
   10.4194    1.0824    0.0000 C   0  0  0  0  0  0  0  0  0  0  0  0
   10.4194    2.5824    0.0000 C   0  0  0  0  0  0  0  0  0  0  0  0
   11.7185    3.3324    0.0000 C   0  0  0  0  0  0  0  0  0  0  0  0
   13.0175    2.5824    0.0000 C   0  0  0  0  0  0  0  0  0  0  0  0
   11.7185    0.3324    0.0000 C   0  0  0  0  0  0  0  0  0  0  0  0
   13.0175    1.0824    0.0000 C   0  0  0  0  0  0  0  0  0  0  0  0
    8.3704   -2.4666    0.0000 N   0  3  0  0  0  0  0  0  0  0  0  0
    7.0714   -3.2166    0.0000 O   0  5  0  0  0  0  0  0  0  0  0  0
    9.6694   -3.2166    0.0000 O   0  0  0  0  0  0  0  0  0  0  0  0
    6.3213    1.0824    0.0000 C   0  0  0  0  0  0  0  0  0  0  0  0
    5.0223    0.3324    0.0000 O   0  0  0  0  0  0  0  0  0  0  0  0
  1  2  2  0  0  0  0
  1  3  1  0  0  0  0
  2  4  1  0  0  0  0
  3  5  2  0  0  0  0
  4  6  2  0  0  0  0
  5  6  1  0  0  0  0
  6 19  1  0  0  0  0
  7  8  1  0  0  0  0
  7  9  1  0  0  0  0
  7 19  1  0  0  0  0
  8  9  1  0  0  0  0
  8 16  1  0  0  0  0
  9 10  1  0  0  0  0
 10 14  2  0  0  0  0
 10 11  1  0  0  0  0
 11 12  2  0  0  0  0
 12 13  1  0  0  0  0
 13 15  2  0  0  0  0
 14 15  1  0  0  0  0
 16 17  1  0  0  0  0
 16 18  2  0  0  0  0
 19 20  2  0  0  0  0
M  CHG  2  16   1  17  -1
M  END
