129536
 OpenBabel03021519512D

 22 26  0  0  1  0  0  0  0  0999 V2000
   -5.6828    7.3392    0.0000 O   0  0  0  0  0  0  0  0  0  0  0  0
   -4.9328    8.6382    0.0000 C   0  0  0  0  0  0  0  0  0  0  0  0
   -4.7829    6.0000    0.0000 C   0  0  3  0  0  0  0  0  0  0  0  0
   -4.7829    4.5000    0.0000 C   0  0  3  0  0  0  0  0  0  0  0  0
   -5.5068   10.0241    0.0000 O   0  0  0  0  0  0  0  0  0  0  0  0
   -4.0731    3.0511    0.0000 O   0  0  0  0  0  0  0  0  0  0  0  0
   -3.4839    8.2500    0.0000 C   0  0  3  0  0  0  0  0  0  0  0  0
   -3.4839    6.7500    0.0000 C   0  0  3  0  0  0  0  0  0  0  0  0
   -3.4839    3.7500    0.0000 C   0  0  3  0  0  0  0  0  0  0  0  0
   -3.4839    2.2500    0.0000 C   0  0  0  0  0  0  0  0  0  0  0  0
   -2.5731    3.0511    0.0000 C   0  0  0  0  0  0  0  0  0  0  0  0
   -1.6599    1.8611    0.0000 O   0  0  0  0  0  0  0  0  0  0  0  0
   -3.0956    9.6989    0.0000 O   0  0  0  0  0  0  0  0  0  0  0  0
   -2.1848    6.0000    0.0000 C   0  0  3  0  0  0  0  0  0  0  0  0
   -2.0350    8.6382    0.0000 C   0  0  3  0  0  0  0  0  0  0  0  0
   -2.1848    4.5000    0.0000 C   0  0  3  0  0  0  0  0  0  0  0  0
   -1.2850    7.3392    0.0000 C   0  0  0  0  0  0  0  0  0  0  0  0
   -4.9839    2.2500    0.0000 C   0  0  0  0  0  0  0  0  0  0  0  0
   -3.4839    0.7500    0.0000 C   0  0  0  0  0  0  0  0  0  0  0  0
   -1.9839    2.2500    0.0000 O   0  0  0  0  0  0  0  0  0  0  0  0
   -2.1848    7.5000    0.0000 C   0  0  0  0  0  0  0  0  0  0  0  0
   -0.7500    5.5627    0.0000 O   0  0  0  0  0  0  0  0  0  0  0  0
  1  2  1  0  0  0  0
  1  3  1  0  0  0  0
  2  5  2  0  0  0  0
  2  7  1  0  0  0  0
  3  8  1  0  0  0  0
  3  4  1  0  0  0  0
  4  6  1  0  0  0  0
  4  9  1  0  0  0  0
  6 11  1  0  0  0  0
  7 13  1  0  0  0  0
  7 15  1  0  0  0  0
  7  8  1  0  0  0  0
  8 14  1  0  0  0  0
  8 21  1  0  0  0  0
  9 16  1  0  0  0  0
  9 10  1  0  0  0  0
 10 18  1  0  0  0  0
 10 19  1  0  0  0  0
 10 20  1  0  0  0  0
 11 12  2  0  0  0  0
 11 16  1  0  0  0  0
 13 15  1  0  0  0  0
 14 17  1  0  0  0  0
 14 16  1  0  0  0  0
 14 22  1  0  0  0  0
 15 17  1  0  0  0  0
M  END
