99756
 OpenBabel03021519512D

 14 14  0  0  0  0  0  0  0  0999 V2000
   -0.1175    1.8495    0.0000 C   0  0  0  0  0  0  0  0  0  0  0  0
   -1.2685    0.8876    0.0000 C   0  0  0  0  0  0  0  0  0  0  0  0
    1.1530    1.0522    0.0000 C   0  0  0  0  0  0  0  0  0  0  0  0
    0.7873   -0.4025    0.0000 C   0  0  0  0  0  0  0  0  0  0  0  0
   -0.7092   -0.5043    0.0000 C   0  0  0  0  0  0  0  0  0  0  0  0
   -2.7232    1.2533    0.0000 O   0  0  0  0  0  0  0  0  0  0  0  0
   -3.0056   -1.7196    0.0000 C   0  0  0  0  0  0  0  0  0  0  0  0
   -3.7072   -0.3938    0.0000 O   0  0  0  0  0  0  0  0  0  0  0  0
   -3.8029   -2.9901    0.0000 C   0  0  0  0  0  0  0  0  0  0  0  0
   -1.5066   -1.7748    0.0000 N   0  0  0  0  0  0  0  0  0  0  0  0
    2.5449    1.6114    0.0000 C   0  0  0  0  0  0  0  0  0  0  0  0
    3.7251    0.6856    0.0000 N   0  3  0  0  0  0  0  0  0  0  0  0
    5.1169    1.2449    0.0000 O   0  5  0  0  0  0  0  0  0  0  0  0
    3.5135   -0.7994    0.0000 O   0  0  0  0  0  0  0  0  0  0  0  0
  1  2  2  0  0  0  0
  1  3  1  0  0  0  0
  2  5  1  0  0  0  0
  2  6  1  0  0  0  0
  3  4  1  0  0  0  0
  3 11  2  0  0  0  0
  4  5  2  0  0  0  0
  5 10  1  0  0  0  0
  7  8  2  0  0  0  0
  7  9  1  0  0  0  0
  7 10  1  0  0  0  0
 11 12  1  0  0  0  0
 12 13  1  0  0  0  0
 12 14  2  0  0  0  0
M  CHG  2  12   1  13  -1
M  END
