310113
 OpenBabel03021519512D

 20 22  0  0  0  0  0  0  0  0999 V2000
    1.6521    4.1652    0.0000 C   0  0  0  0  0  0  0  0  0  0  0  0
    1.6521    2.6652    0.0000 C   0  0  0  0  0  0  0  0  0  0  0  0
    2.9511    4.9152    0.0000 C   0  0  0  0  0  0  0  0  0  0  0  0
    2.9511    1.9152    0.0000 C   0  0  0  0  0  0  0  0  0  0  0  0
    4.2502    4.1652    0.0000 C   0  0  0  0  0  0  0  0  0  0  0  0
    4.2502    2.6652    0.0000 C   0  0  0  0  0  0  0  0  0  0  0  0
    5.6767    4.6288    0.0000 S   0  0  0  0  0  0  0  0  0  0  0  0
    6.5584    3.4152    0.0000 C   0  0  0  0  0  0  0  0  0  0  0  0
    5.6768    2.2017    0.0000 C   0  0  0  0  0  0  0  0  0  0  0  0
    8.0502    3.2585    0.0000 N   0  0  0  0  0  0  0  0  0  0  0  0
    6.2869    0.8314    0.0000 C   0  0  0  0  0  0  0  0  0  0  0  0
    5.4052   -0.3821    0.0000 O   0  0  0  0  0  0  0  0  0  0  0  0
    7.7787    0.6746    0.0000 N   0  0  0  0  0  0  0  0  0  0  0  0
    8.6603    1.8882    0.0000 C   0  0  0  0  0  0  0  0  0  0  0  0
   10.1521    1.7314    0.0000 C   0  0  0  0  0  0  0  0  0  0  0  0
    8.3888   -0.6957    0.0000 H   0  0  0  0  0  0  0  0  0  0  0  0
   11.0338    2.9449    0.0000 O   0  0  0  0  0  0  0  0  0  0  0  0
   10.7622    0.3611    0.0000 O   0  0  0  0  0  0  0  0  0  0  0  0
   12.2540    0.2043    0.0000 C   0  0  0  0  0  0  0  0  0  0  0  0
   13.1357    1.4178    0.0000 C   0  0  0  0  0  0  0  0  0  0  0  0
  1  3  1  0  0  0  0
  1  2  1  0  0  0  0
  2  4  1  0  0  0  0
  3  5  1  0  0  0  0
  4  6  1  0  0  0  0
  5  7  1  0  0  0  0
  5  6  2  0  0  0  0
  6  9  1  0  0  0  0
  7  8  1  0  0  0  0
  8 10  1  0  0  0  0
  8  9  2  0  0  0  0
  9 11  1  0  0  0  0
 10 14  2  0  0  0  0
 11 13  1  0  0  0  0
 11 12  2  0  0  0  0
 13 14  1  0  0  0  0
 13 16  1  0  0  0  0
 14 15  1  0  0  0  0
 15 18  1  0  0  0  0
 15 17  2  0  0  0  0
 18 19  1  0  0  0  0
 19 20  1  0  0  0  0
M  END
