162188
 OpenBabel03021519512D

 18 18  0  0  0  0  0  0  0  0999 V2000
   -9.8433   -5.0490    0.0000 O   0  5  0  0  0  0  0  0  0  0  0  0
   -8.5442   -4.2990    0.0000 N   0  3  0  0  0  0  0  0  0  0  0  0
   -7.2452   -2.0490    0.0000 C   0  0  0  0  0  0  0  0  0  0  0  0
   -8.5442   -2.7990    0.0000 C   0  0  0  0  0  0  0  0  0  0  0  0
   -5.9461   -2.7990    0.0000 C   0  0  0  0  0  0  0  0  0  0  0  0
   -5.9461   -4.2990    0.0000 C   0  0  0  0  0  0  0  0  0  0  0  0
   -7.2452   -5.0490    0.0000 C   0  0  0  0  0  0  0  0  0  0  0  0
   -4.6471   -2.0490    0.0000 C   0  0  0  0  0  0  0  0  0  0  0  0
   -2.0490   -2.0490    0.0000 C   0  0  0  0  0  0  0  0  0  0  0  0
   -2.7990   -0.7500    0.0000 F   0  0  0  0  0  0  0  0  0  0  0  0
   -0.7500   -1.2990    0.0000 F   0  0  0  0  0  0  0  0  0  0  0  0
   -1.2990   -3.3481    0.0000 F   0  0  0  0  0  0  0  0  0  0  0  0
   -3.3481   -2.7990    0.0000 C   0  0  0  0  0  0  0  0  0  0  0  0
   -2.0490   -3.5490    0.0000 O   0  0  0  0  0  0  0  0  0  0  0  0
   -3.6085   -4.2763    0.0000 C   0  0  0  0  0  0  0  0  0  0  0  0
   -5.0858   -4.0158    0.0000 F   0  0  0  0  0  0  0  0  0  0  0  0
   -2.1313   -4.5367    0.0000 F   0  0  0  0  0  0  0  0  0  0  0  0
   -3.8690   -5.7535    0.0000 F   0  0  0  0  0  0  0  0  0  0  0  0
  1  2  1  0  0  0  0
  2  4  2  0  0  0  0
  2  7  1  0  0  0  0
  3  5  2  0  0  0  0
  3  4  1  0  0  0  0
  5  6  1  0  0  0  0
  5  8  1  0  0  0  0
  6  7  2  0  0  0  0
  8 13  1  0  0  0  0
  9 10  1  0  0  0  0
  9 11  1  0  0  0  0
  9 12  1  0  0  0  0
  9 13  1  0  0  0  0
 13 14  1  0  0  0  0
 13 15  1  0  0  0  0
 15 16  1  0  0  0  0
 15 17  1  0  0  0  0
 15 18  1  0  0  0  0
M  CHG  2   1  -1   2   1
M  END
