659107
 OpenBabel03021519512D

 17 18  0  0  0  0  0  0  0  0999 V2000
   -1.9243   -0.9045    0.0000 C   0  0  0  0  0  0  0  0  0  0  0  0
   -2.6743    0.3945    0.0000 C   0  0  0  0  0  0  0  0  0  0  0  0
   -1.9243    1.6936    0.0000 C   0  0  0  0  0  0  0  0  0  0  0  0
   -0.4243    1.6936    0.0000 C   0  0  0  0  0  0  0  0  0  0  0  0
    0.3257    0.3945    0.0000 C   0  0  0  0  0  0  0  0  0  0  0  0
   -0.4243   -0.9045    0.0000 C   0  0  0  0  0  0  0  0  0  0  0  0
   -4.1743    0.3945    0.0000 C   0  0  0  0  0  0  0  0  0  0  0  0
   -4.9243   -0.9045    0.0000 C   0  0  0  0  0  0  0  0  0  0  0  0
   -6.4243   -0.9045    0.0000 C   0  0  0  0  0  0  0  0  0  0  0  0
   -4.1743   -2.2036    0.0000 C   0  0  0  0  0  0  0  0  0  0  0  0
   -2.6743   -2.2035    0.0000 C   0  0  0  0  0  0  0  0  0  0  0  0
   -1.7926   -0.9900    0.0000 C   0  0  0  0  0  0  0  0  0  0  0  0
   -2.2562    0.4366    0.0000 O   0  0  0  0  0  0  0  0  0  0  0  0
   -0.3660   -1.4535    0.0000 N   0  0  0  0  0  0  0  0  0  0  0  0
   -0.3660   -2.9535    0.0000 C   0  0  0  0  0  0  0  0  0  0  0  0
    0.8475   -3.8352    0.0000 S   0  0  0  0  0  0  0  0  0  0  0  0
   -1.7926   -3.4171    0.0000 N   0  0  0  0  0  0  0  0  0  0  0  0
  1  2  2  0  0  0  0
  1  6  1  0  0  0  0
  2  3  1  0  0  0  0
  2  7  1  0  0  0  0
  3  4  2  0  0  0  0
  4  5  1  0  0  0  0
  5  6  2  0  0  0  0
  7  8  2  0  0  0  0
  8  9  1  0  0  0  0
  8 10  1  0  0  0  0
 10 11  2  0  0  0  0
 11 17  1  0  0  0  0
 11 12  1  0  0  0  0
 12 13  2  0  0  0  0
 12 14  1  0  0  0  0
 14 15  1  0  0  0  0
 15 16  2  0  0  0  0
 15 17  1  0  0  0  0
M  END
