127216
 OpenBabel03021519512D

 10 10  0  0  0  0  0  0  0  0999 V2000
   -1.5202   -2.1276    0.0000 H   0  0  0  0  0  0  0  0  0  0  0  0
   -0.6096   -0.9357    0.0000 N   0  0  0  0  0  0  0  0  0  0  0  0
    0.1958    1.3538    0.0000 N   0  0  0  0  0  0  0  0  0  0  0  0
    0.8900   -0.9718    0.0000 S   0  0  0  0  0  0  0  0  0  0  0  0
   -1.0386    0.5017    0.0000 C   0  0  0  0  0  0  0  0  0  0  0  0
    1.3878    0.4432    0.0000 C   0  0  0  0  0  0  0  0  0  0  0  0
   -2.4536    0.9994    0.0000 S   0  0  0  0  0  0  0  0  0  0  0  0
   -3.5922    0.0229    0.0000 C   0  0  0  0  0  0  0  0  0  0  0  0
    2.8251    0.8722    0.0000 N   0  0  0  0  0  0  0  0  0  0  0  0
    3.9153   -0.1581    0.0000 N   0  0  0  0  0  0  0  0  0  0  0  0
  1  2  1  0  0  0  0
  2  4  1  0  0  0  0
  2  5  1  0  0  0  0
  3  5  2  0  0  0  0
  3  6  1  0  0  0  0
  4  6  1  0  0  0  0
  5  7  1  0  0  0  0
  6  9  2  0  0  0  0
  7  8  1  0  0  0  0
  9 10  1  0  0  0  0
M  END
