630602
 OpenBabel03021519512D

 26 28  0  0  0  0  0  0  0  0999 V2000
    5.9462    3.7500    0.0000 C   0  0  0  0  0  0  0  0  0  0  0  0
    5.9462    5.2500    0.0000 C   0  0  0  0  0  0  0  0  0  0  0  0
    7.2452    6.0000    0.0000 C   0  0  0  0  0  0  0  0  0  0  0  0
    8.5442    5.2500    0.0000 C   0  0  0  0  0  0  0  0  0  0  0  0
    8.5442    3.7500    0.0000 C   0  0  0  0  0  0  0  0  0  0  0  0
    7.2452    3.0000    0.0000 N   0  0  0  0  0  0  0  0  0  0  0  0
    7.2452    7.5000    0.0000 O   0  0  0  0  0  0  0  0  0  0  0  0
    4.6471    6.0000    0.0000 C   0  0  0  0  0  0  0  0  0  0  0  0
    9.8433    6.0000    0.0000 C   0  0  0  0  0  0  0  0  0  0  0  0
    7.2452    1.5000    0.0000 C   0  0  0  0  0  0  0  0  0  0  0  0
    5.9462    0.7500    0.0000 O   0  0  0  0  0  0  0  0  0  0  0  0
    8.5442    0.7500    0.0000 O   0  0  0  0  0  0  0  0  0  0  0  0
    3.3481    5.2500    0.0000 C   0  0  0  0  0  0  0  0  0  0  0  0
    2.0490    6.0000    0.0000 C   0  0  0  0  0  0  0  0  0  0  0  0
    0.7500    5.2500    0.0000 C   0  0  0  0  0  0  0  0  0  0  0  0
    0.7500    3.7500    0.0000 C   0  0  0  0  0  0  0  0  0  0  0  0
    2.0490    3.0000    0.0000 C   0  0  0  0  0  0  0  0  0  0  0  0
    3.3481    3.7500    0.0000 C   0  0  0  0  0  0  0  0  0  0  0  0
   11.1423    5.2500    0.0000 C   0  0  0  0  0  0  0  0  0  0  0  0
   12.4413    6.0000    0.0000 C   0  0  0  0  0  0  0  0  0  0  0  0
   13.7404    5.2500    0.0000 C   0  0  0  0  0  0  0  0  0  0  0  0
   13.7404    3.7500    0.0000 C   0  0  0  0  0  0  0  0  0  0  0  0
   12.4414    3.0000    0.0000 C   0  0  0  0  0  0  0  0  0  0  0  0
   11.1423    3.7500    0.0000 C   0  0  0  0  0  0  0  0  0  0  0  0
    9.8433    1.5000    0.0000 C   0  0  0  0  0  0  0  0  0  0  0  0
   11.1423    0.7500    0.0000 C   0  0  0  0  0  0  0  0  0  0  0  0
  1  2  1  0  0  0  0
  1  6  1  0  0  0  0
  2  3  1  0  0  0  0
  2  8  2  0  0  0  0
  3  4  1  0  0  0  0
  3  7  2  0  0  0  0
  4  5  1  0  0  0  0
  4  9  2  0  0  0  0
  5  6  1  0  0  0  0
  6 10  1  0  0  0  0
  8 13  1  0  0  0  0
  9 19  1  0  0  0  0
 10 11  2  0  0  0  0
 10 12  1  0  0  0  0
 12 25  1  0  0  0  0
 13 14  2  0  0  0  0
 13 18  1  0  0  0  0
 14 15  1  0  0  0  0
 15 16  2  0  0  0  0
 16 17  1  0  0  0  0
 17 18  2  0  0  0  0
 19 20  2  0  0  0  0
 19 24  1  0  0  0  0
 20 21  1  0  0  0  0
 21 22  2  0  0  0  0
 22 23  1  0  0  0  0
 23 24  2  0  0  0  0
 25 26  1  0  0  0  0
M  END
