50199
 OpenBabel03021519512D

 13 14  0  0  0  0  0  0  0  0999 V2000
   -2.0490    5.0490    0.0000 N   0  0  0  0  0  0  0  0  0  0  0  0
   -0.7500    8.7990    0.0000 Br  0  0  0  0  0  0  0  0  0  0  0  0
    0.5490    5.0490    0.0000 N   0  0  0  0  0  0  0  0  0  0  0  0
    1.8481    7.2990    0.0000 N   0  0  0  0  0  0  0  0  0  0  0  0
   -0.7500    7.2990    0.0000 C   0  0  0  0  0  0  0  0  0  0  0  0
    0.5490    6.5490    0.0000 C   0  0  0  0  0  0  0  0  0  0  0  0
   -2.0490    6.5490    0.0000 C   0  0  0  0  0  0  0  0  0  0  0  0
    2.5981    8.5981    0.0000 C   0  0  0  0  0  0  0  0  0  0  0  0
    3.3481    7.2990    0.0000 C   0  0  0  0  0  0  0  0  0  0  0  0
   -0.7500    4.2990    0.0000 C   0  0  0  0  0  0  0  0  0  0  0  0
   -3.3481    7.2990    0.0000 C   0  0  0  0  0  0  0  0  0  0  0  0
   -0.7500    2.7990    0.0000 S   0  0  0  0  0  0  0  0  0  0  0  0
   -2.0490    2.0490    0.0000 C   0  0  0  0  0  0  0  0  0  0  0  0
  1  7  2  0  0  0  0
  1 10  1  0  0  0  0
  2  5  1  0  0  0  0
  3 10  2  0  0  0  0
  3  6  1  0  0  0  0
  4  6  1  0  0  0  0
  4  8  1  0  0  0  0
  4  9  1  0  0  0  0
  5  6  2  0  0  0  0
  5  7  1  0  0  0  0
  7 11  1  0  0  0  0
  8  9  1  0  0  0  0
 10 12  1  0  0  0  0
 12 13  1  0  0  0  0
M  END
