503425
 OpenBabel03021519512D

 12 13  0  0  0  0  0  0  0  0999 V2000
   -6.6073   -0.7500    0.0000 C   0  0  0  0  0  0  0  0  0  0  0  0
   -3.0000   -2.2500    0.0000 C   0  0  0  0  0  0  0  0  0  0  0  0
   -5.3083   -1.5000    0.0000 C   0  0  0  0  0  0  0  0  0  0  0  0
   -7.9063   -1.5000    0.0000 C   0  0  0  0  0  0  0  0  0  0  0  0
   -5.3083   -3.0000    0.0000 C   0  0  0  0  0  0  0  0  0  0  0  0
   -7.9063   -3.0000    0.0000 C   0  0  0  0  0  0  0  0  0  0  0  0
   -6.6073   -3.7500    0.0000 C   0  0  0  0  0  0  0  0  0  0  0  0
   -9.2054   -3.7500    0.0000 Cl  0  0  0  0  0  0  0  0  0  0  0  0
   -3.8817   -3.4635    0.0000 S   0  0  0  0  0  0  0  0  0  0  0  0
   -3.8817   -1.0365    0.0000 N   0  0  0  0  0  0  0  0  0  0  0  0
   -1.5000   -2.2500    0.0000 S   0  0  0  0  0  0  0  0  0  0  0  0
   -0.7500   -0.9510    0.0000 H   0  0  0  0  0  0  0  0  0  0  0  0
  1  4  2  0  0  0  0
  1  3  1  0  0  0  0
  2 11  1  0  0  0  0
  2 10  2  0  0  0  0
  2  9  1  0  0  0  0
  3 10  1  0  0  0  0
  3  5  2  0  0  0  0
  4  6  1  0  0  0  0
  5  9  1  0  0  0  0
  5  7  1  0  0  0  0
  6  8  1  0  0  0  0
  6  7  2  0  0  0  0
 11 12  1  0  0  0  0
M  END
