204939
 OpenBabel03021519512D

 22 24  0  0  0  0  0  0  0  0999 V2000
   -0.2745   -7.0245    0.0000 N   0  0  0  0  0  0  0  0  0  0  0  0
   -2.8726   -5.5245    0.0000 C   0  0  0  0  0  0  0  0  0  0  0  0
   -1.5736   -4.7745    0.0000 C   0  0  0  0  0  0  0  0  0  0  0  0
   -0.2745   -5.5245    0.0000 C   0  0  0  0  0  0  0  0  0  0  0  0
   -2.8726   -7.0245    0.0000 C   0  0  0  0  0  0  0  0  0  0  0  0
   -4.1716   -7.7745    0.0000 C   0  0  0  0  0  0  0  0  0  0  0  0
   -1.5736   -7.7745    0.0000 C   0  0  0  0  0  0  0  0  0  0  0  0
   -5.4707   -7.0245    0.0000 C   0  0  0  0  0  0  0  0  0  0  0  0
   -6.7697   -7.7745    0.0000 C   0  0  0  0  0  0  0  0  0  0  0  0
   -1.5736   -9.2745    0.0000 C   0  0  0  0  0  0  0  0  0  0  0  0
   -4.1716   -9.2745    0.0000 C   0  0  0  0  0  0  0  0  0  0  0  0
   -6.7697   -9.2745    0.0000 C   0  0  0  0  0  0  0  0  0  0  0  0
   -2.8726  -10.0245    0.0000 C   0  0  0  0  0  0  0  0  0  0  0  0
   -5.4707  -10.0245    0.0000 C   0  0  0  0  0  0  0  0  0  0  0  0
   -4.1716   -4.7745    0.0000 O   0  0  0  0  0  0  0  0  0  0  0  0
   -4.1716   -3.2745    0.0000 C   0  0  0  0  0  0  0  0  0  0  0  0
   -2.8726   -2.5245    0.0000 C   0  0  0  0  0  0  0  0  0  0  0  0
    1.0245   -4.7745    0.0000 C   0  0  0  0  0  0  0  0  0  0  0  0
    2.3236   -5.5245    0.0000 O   0  0  0  0  0  0  0  0  0  0  0  0
    1.0245   -3.2745    0.0000 O   0  0  0  0  0  0  0  0  0  0  0  0
   -0.2745   -2.5245    0.0000 C   0  0  0  0  0  0  0  0  0  0  0  0
   -0.2745   -1.0245    0.0000 C   0  0  0  0  0  0  0  0  0  0  0  0
  1  4  2  0  0  0  0
  1  7  1  0  0  0  0
  2  3  2  0  0  0  0
  2  5  1  0  0  0  0
  2 15  1  0  0  0  0
  3  4  1  0  0  0  0
  4 18  1  0  0  0  0
  5  7  2  0  0  0  0
  5  6  1  0  0  0  0
  6 11  2  0  0  0  0
  6  8  1  0  0  0  0
  7 10  1  0  0  0  0
  8  9  2  0  0  0  0
  9 12  1  0  0  0  0
 10 13  2  0  0  0  0
 11 13  1  0  0  0  0
 11 14  1  0  0  0  0
 12 14  2  0  0  0  0
 15 16  1  0  0  0  0
 16 17  1  0  0  0  0
 18 19  2  0  0  0  0
 18 20  1  0  0  0  0
 20 21  1  0  0  0  0
 21 22  1  0  0  0  0
M  END
