11991
 OpenBabel03021519512D

 17 19  0  0  1  0  0  0  0  0999 V2000
   -2.2676    7.7386    0.0000 O   0  0  0  0  0  0  0  0  0  0  0  0
    2.5411    6.5250    0.0000 N   0  0  0  0  0  0  0  0  0  0  0  0
    2.0776    5.0984    0.0000 N   0  0  0  0  0  0  0  0  0  0  0  0
    1.3276    7.4067    0.0000 C   0  0  0  0  0  0  0  0  0  0  0  0
    0.1140    6.5250    0.0000 C   0  0  3  0  0  0  0  0  0  0  0  0
   -1.3860    6.5250    0.0000 C   0  0  0  0  0  0  0  0  0  0  0  0
   -1.8495    5.0985    0.0000 C   0  0  0  0  0  0  0  0  0  0  0  0
   -3.2198    4.4883    0.0000 C   0  0  0  0  0  0  0  0  0  0  0  0
   -3.3766    2.9966    0.0000 C   0  0  0  0  0  0  0  0  0  0  0  0
    0.5776    5.0984    0.0000 C   0  0  0  0  0  0  0  0  0  0  0  0
   -0.6360    4.2168    0.0000 C   0  0  0  0  0  0  0  0  0  0  0  0
   -2.1631    2.1149    0.0000 C   0  0  0  0  0  0  0  0  0  0  0  0
   -0.7928    2.7250    0.0000 C   0  0  0  0  0  0  0  0  0  0  0  0
    1.3276    8.9067    0.0000 C   0  0  0  0  0  0  0  0  0  0  0  0
   -0.1724    8.9067    0.0000 C   0  0  0  0  0  0  0  0  0  0  0  0
    1.3276   10.4067    0.0000 C   0  0  0  0  0  0  0  0  0  0  0  0
    2.8276    8.9067    0.0000 C   0  0  0  0  0  0  0  0  0  0  0  0
  1  6  2  0  0  0  0
  2  4  2  0  0  0  0
  2  3  1  0  0  0  0
  3 10  2  0  0  0  0
  4  5  1  0  0  0  0
  4 14  1  0  0  0  0
  5  6  1  0  0  0  0
  5 10  1  0  0  0  0
  6  7  1  0  0  0  0
  7 11  2  0  0  0  0
  7  8  1  0  0  0  0
  8  9  2  0  0  0  0
  9 12  1  0  0  0  0
 10 11  1  0  0  0  0
 11 13  1  0  0  0  0
 12 13  2  0  0  0  0
 14 15  1  0  0  0  0
 14 16  1  0  0  0  0
 14 17  1  0  0  0  0
M  END
