60037
 OpenBabel03021519512D

 21 22  0  0  0  0  0  0  0  0999 V2000
   -7.3995   -6.8702    0.0000 C   0  0  0  0  0  0  0  0  0  0  0  0
   -5.8995   -6.8702    0.0000 C   0  0  0  0  0  0  0  0  0  0  0  0
   -8.1495   -8.1692    0.0000 N   0  0  0  0  0  0  0  0  0  0  0  0
   -5.1495   -8.1692    0.0000 C   0  0  0  0  0  0  0  0  0  0  0  0
   -7.3995   -9.4683    0.0000 C   0  0  0  0  0  0  0  0  0  0  0  0
   -5.8995   -9.4683    0.0000 C   0  0  0  0  0  0  0  0  0  0  0  0
   -5.1495  -10.7673    0.0000 N   0  0  0  0  0  0  0  0  0  0  0  0
   -3.6495  -10.7673    0.0000 N   0  0  0  0  0  0  0  0  0  0  0  0
   -3.6495   -8.1692    0.0000 C   0  0  0  0  0  0  0  0  0  0  0  0
   -2.8995   -9.4683    0.0000 C   0  0  0  0  0  0  0  0  0  0  0  0
   -1.3995   -9.4683    0.0000 C   0  0  0  0  0  0  0  0  0  0  0  0
   -2.8995   -6.8702    0.0000 N   0  0  0  0  0  0  0  0  0  0  0  0
   -1.3995   -6.8702    0.0000 C   0  0  0  0  0  0  0  0  0  0  0  0
   -0.6495   -8.1692    0.0000 C   0  0  0  0  0  0  0  0  0  0  0  0
   -0.6495   -5.5712    0.0000 O   0  0  0  0  0  0  0  0  0  0  0  0
   -8.1495   -5.5712    0.0000 N   0  0  0  0  0  0  0  0  0  0  0  0
   -8.1495  -10.7673    0.0000 N   0  0  0  0  0  0  0  0  0  0  0  0
    0.8505   -5.5712    0.0000 C   0  0  0  0  0  0  0  0  0  0  0  0
    1.6005   -4.2721    0.0000 C   0  0  0  0  0  0  0  0  0  0  0  0
    0.8505   -2.9731    0.0000 C   0  0  0  0  0  0  0  0  0  0  0  0
   -0.6495   -2.9731    0.0000 C   0  0  0  0  0  0  0  0  0  0  0  0
  1  3  1  0  0  0  0
  1  2  2  0  0  0  0
  1 16  1  0  0  0  0
  2  4  1  0  0  0  0
  3  5  2  0  0  0  0
  4  6  2  0  0  0  0
  5  6  1  0  0  0  0
  5 17  1  0  0  0  0
  6  7  1  0  0  0  0
  7  8  2  0  0  0  0
  8 10  1  0  0  0  0
  9 12  2  0  0  0  0
  9 10  1  0  0  0  0
 10 11  2  0  0  0  0
 11 14  1  0  0  0  0
 12 13  1  0  0  0  0
 13 15  1  0  0  0  0
 13 14  2  0  0  0  0
 15 18  1  0  0  0  0
 18 19  1  0  0  0  0
 19 20  1  0  0  0  0
 20 21  1  0  0  0  0
M  END
