21683
 OpenBabel03021519512D

 22 24  0  0  0  0  0  0  0  0999 V2000
    6.1015   -0.6752    0.0000 N   0  0  0  0  0  0  0  0  0  0  0  0
    5.2198   -1.8887    0.0000 N   0  0  0  0  0  0  0  0  0  0  0  0
    6.0836   -5.6728    0.0000 N   0  0  0  0  0  0  0  0  0  0  0  0
    7.4540   -5.0627    0.0000 N   0  0  0  0  0  0  0  0  0  0  0  0
    7.2972   -3.5709    0.0000 C   0  0  0  0  0  0  0  0  0  0  0  0
    5.8299   -3.2590    0.0000 C   0  0  0  0  0  0  0  0  0  0  0  0
    5.0799   -4.5581    0.0000 C   0  0  0  0  0  0  0  0  0  0  0  0
   10.0520   -5.0627    0.0000 C   0  0  0  0  0  0  0  0  0  0  0  0
    8.7530   -5.8127    0.0000 C   0  0  0  0  0  0  0  0  0  0  0  0
   11.3511   -5.8127    0.0000 C   0  0  0  0  0  0  0  0  0  0  0  0
   11.3511   -7.3127    0.0000 C   0  0  0  0  0  0  0  0  0  0  0  0
    8.7530   -7.3127    0.0000 C   0  0  0  0  0  0  0  0  0  0  0  0
   10.0521   -8.0627    0.0000 C   0  0  0  0  0  0  0  0  0  0  0  0
    6.3731    1.9087    0.0000 C   0  0  0  0  0  0  0  0  0  0  0  0
    5.7630    3.2790    0.0000 C   0  0  0  0  0  0  0  0  0  0  0  0
    5.4914    0.6951    0.0000 C   0  0  0  0  0  0  0  0  0  0  0  0
    3.9996    0.8519    0.0000 C   0  0  0  0  0  0  0  0  0  0  0  0
    4.2712    3.4358    0.0000 C   0  0  0  0  0  0  0  0  0  0  0  0
    3.3895    2.2222    0.0000 C   0  0  0  0  0  0  0  0  0  0  0  0
    3.6611    4.8061    0.0000 C   0  0  0  0  0  0  0  0  0  0  0  0
    3.5882   -4.7149    0.0000 N   0  0  0  0  0  0  0  0  0  0  0  0
    8.4119   -2.5672    0.0000 N   0  0  0  0  0  0  0  0  0  0  0  0
  1 16  1  0  0  0  0
  1  2  2  0  0  0  0
  2  6  1  0  0  0  0
  3  4  1  0  0  0  0
  3  7  2  0  0  0  0
  4  5  1  0  0  0  0
  4  9  1  0  0  0  0
  5  6  2  0  0  0  0
  5 22  1  0  0  0  0
  6  7  1  0  0  0  0
  7 21  1  0  0  0  0
  8 10  2  0  0  0  0
  8  9  1  0  0  0  0
  9 12  2  0  0  0  0
 10 11  1  0  0  0  0
 11 13  2  0  0  0  0
 12 13  1  0  0  0  0
 14 15  2  0  0  0  0
 14 16  1  0  0  0  0
 15 18  1  0  0  0  0
 16 17  2  0  0  0  0
 17 19  1  0  0  0  0
 18 19  2  0  0  0  0
 18 20  1  0  0  0  0
M  END
