88402
 OpenBabel03021519512D

 21 23  0  0  0  0  0  0  0  0999 V2000
   -6.3189    3.7650    0.0000 N   0  0  0  0  0  0  0  0  0  0  0  0
   -4.9486    4.3751    0.0000 H   0  0  0  0  0  0  0  0  0  0  0  0
   -8.1226    2.1410    0.0000 N   0  0  0  0  0  0  0  0  0  0  0  0
   -6.6308    2.2978    0.0000 P   0  0  3  0  0  0  0  0  0  0  0  0
   -8.8726    0.8420    0.0000 H   0  0  0  0  0  0  0  0  0  0  0  0
   -5.1390    2.1410    0.0000 S   0  0  0  0  0  0  0  0  0  0  0  0
   -6.6308    0.7978    0.0000 O   0  0  0  0  0  0  0  0  0  0  0  0
   -4.0327    0.7978    0.0000 C   0  0  0  0  0  0  0  0  0  0  0  0
   -5.3318    0.0478    0.0000 C   0  0  0  0  0  0  0  0  0  0  0  0
   -2.7337    0.0478    0.0000 C   0  0  0  0  0  0  0  0  0  0  0  0
   -2.7337   -1.4522    0.0000 C   0  0  0  0  0  0  0  0  0  0  0  0
   -5.3318   -1.4522    0.0000 C   0  0  0  0  0  0  0  0  0  0  0  0
   -4.0327   -2.2022    0.0000 C   0  0  0  0  0  0  0  0  0  0  0  0
   -7.9298    5.9822    0.0000 C   0  0  0  0  0  0  0  0  0  0  0  0
   -9.3564    6.4458    0.0000 C   0  0  0  0  0  0  0  0  0  0  0  0
   -7.6180    4.5150    0.0000 C   0  0  0  0  0  0  0  0  0  0  0  0
   -8.7327    3.5113    0.0000 C   0  0  0  0  0  0  0  0  0  0  0  0
  -10.4711    5.4421    0.0000 C   0  0  0  0  0  0  0  0  0  0  0  0
  -10.1593    3.9748    0.0000 C   0  0  0  0  0  0  0  0  0  0  0  0
  -11.8977    5.9056    0.0000 O   0  0  0  0  0  0  0  0  0  0  0  0
  -12.2096    7.3728    0.0000 C   0  0  0  0  0  0  0  0  0  0  0  0
  1  4  1  0  0  0  0
  1 16  1  0  0  0  0
  1  2  1  0  0  0  0
  3  4  1  0  0  0  0
  3 17  1  0  0  0  0
  3  5  1  0  0  0  0
  4  6  2  0  0  0  0
  4  7  1  0  0  0  0
  7  9  1  0  0  0  0
  8 10  2  0  0  0  0
  8  9  1  0  0  0  0
  9 12  2  0  0  0  0
 10 11  1  0  0  0  0
 11 13  2  0  0  0  0
 12 13  1  0  0  0  0
 14 15  2  0  0  0  0
 14 16  1  0  0  0  0
 15 18  1  0  0  0  0
 16 17  2  0  0  0  0
 17 19  1  0  0  0  0
 18 19  2  0  0  0  0
 18 20  1  0  0  0  0
 20 21  1  0  0  0  0
M  END
