100729
 OpenBabel03021519512D

 12 13  0  0  0  0  0  0  0  0999 V2000
    3.0000    4.6471    0.0000 C   0  0  0  0  0  0  0  0  0  0  0  0
    1.5000    4.6471    0.0000 C   0  0  0  0  0  0  0  0  0  0  0  0
    7.5583    2.5981    0.0000 C   0  0  0  0  0  0  0  0  0  0  0  0
    5.2500    3.3481    0.0000 C   0  0  0  0  0  0  0  0  0  0  0  0
    3.7500    3.3481    0.0000 C   0  0  0  0  0  0  0  0  0  0  0  0
    0.7500    3.3481    0.0000 C   0  0  0  0  0  0  0  0  0  0  0  0
    3.0000    2.0490    0.0000 C   0  0  0  0  0  0  0  0  0  0  0  0
    1.5000    2.0490    0.0000 C   0  0  0  0  0  0  0  0  0  0  0  0
    6.1317    4.5616    0.0000 N   0  0  0  0  0  0  0  0  0  0  0  0
    6.1317    2.1345    0.0000 O   0  0  0  0  0  0  0  0  0  0  0  0
    7.5583    4.0981    0.0000 N   0  0  0  0  0  0  0  0  0  0  0  0
    3.7500    0.7500    0.0000 O   0  0  0  0  0  0  0  0  0  0  0  0
  1  2  1  0  0  0  0
  1  5  2  0  0  0  0
  2  6  2  0  0  0  0
  3 11  2  0  0  0  0
  3 10  1  0  0  0  0
  4  9  2  0  0  0  0
  4  5  1  0  0  0  0
  4 10  1  0  0  0  0
  5  7  1  0  0  0  0
  6  8  1  0  0  0  0
  7  8  2  0  0  0  0
  7 12  1  0  0  0  0
  9 11  1  0  0  0  0
M  END
