43271
 OpenBabel03021519512D

 18 19  0  0  0  0  0  0  0  0999 V2000
   -1.5736    3.2745    0.0000 N   0  0  0  0  0  0  0  0  0  0  0  0
   -0.2745    7.0245    0.0000 Br  0  0  0  0  0  0  0  0  0  0  0  0
    1.0245    3.2745    0.0000 N   0  0  0  0  0  0  0  0  0  0  0  0
   -0.2745    5.5245    0.0000 C   0  0  0  0  0  0  0  0  0  0  0  0
    1.0245    4.7745    0.0000 C   0  0  0  0  0  0  0  0  0  0  0  0
   -1.5736    4.7745    0.0000 C   0  0  0  0  0  0  0  0  0  0  0  0
    1.0245    7.7745    0.0000 C   0  0  0  0  0  0  0  0  0  0  0  0
    1.0245    9.2745    0.0000 C   0  0  0  0  0  0  0  0  0  0  0  0
    2.3235    7.0245    0.0000 C   0  0  0  0  0  0  0  0  0  0  0  0
    2.3235   10.0245    0.0000 C   0  0  0  0  0  0  0  0  0  0  0  0
    3.6226    7.7745    0.0000 C   0  0  0  0  0  0  0  0  0  0  0  0
    3.6226    9.2745    0.0000 C   0  0  0  0  0  0  0  0  0  0  0  0
   -0.2745    2.5245    0.0000 C   0  0  0  0  0  0  0  0  0  0  0  0
   -2.8726    5.5245    0.0000 C   0  0  0  0  0  0  0  0  0  0  0  0
   -0.2745    1.0245    0.0000 N   0  0  0  0  0  0  0  0  0  0  0  0
    2.3235    5.5245    0.0000 N   0  0  0  0  0  0  0  0  0  0  0  0
    2.3235   11.5245    0.0000 C   0  0  0  0  0  0  0  0  0  0  0  0
    2.3235   13.0245    0.0000 N   0  0  0  0  0  0  0  0  0  0  0  0
  1  6  2  0  0  0  0
  1 13  1  0  0  0  0
  2  4  1  0  0  0  0
  3 13  2  0  0  0  0
  3  5  1  0  0  0  0
  4  5  2  0  0  0  0
  4  6  1  0  0  0  0
  5 16  1  0  0  0  0
  6 14  1  0  0  0  0
  7  8  2  0  0  0  0
  7  9  1  0  0  0  0
  8 10  1  0  0  0  0
  9 11  2  0  0  0  0
  9 16  1  0  0  0  0
 10 12  2  0  0  0  0
 10 17  1  0  0  0  0
 11 12  1  0  0  0  0
 13 15  1  0  0  0  0
 17 18  3  0  0  0  0
M  END
