152551
 OpenBabel03021519512D

 18 20  0  0  0  0  0  0  0  0999 V2000
   -7.5312    1.5885    0.0000 N   0  0  0  0  0  0  0  0  0  0  0  0
   -2.8995   -3.5221    0.0000 N   0  0  0  0  0  0  0  0  0  0  0  0
   -2.8995   -0.9240    0.0000 C   0  0  0  0  0  0  0  0  0  0  0  0
   -4.3995   -0.9240    0.0000 C   0  0  0  0  0  0  0  0  0  0  0  0
   -2.1495   -2.2231    0.0000 C   0  0  0  0  0  0  0  0  0  0  0  0
   -5.1495   -2.2231    0.0000 C   0  0  0  0  0  0  0  0  0  0  0  0
   -4.3995   -3.5221    0.0000 C   0  0  0  0  0  0  0  0  0  0  0  0
  -10.2568    1.8750    0.0000 C   0  0  0  0  0  0  0  0  0  0  0  0
  -11.5559    1.1250    0.0000 C   0  0  0  0  0  0  0  0  0  0  0  0
   -8.9578    1.1250    0.0000 C   0  0  0  0  0  0  0  0  0  0  0  0
   -8.9578   -0.3750    0.0000 C   0  0  0  0  0  0  0  0  0  0  0  0
  -11.5559   -0.3750    0.0000 C   0  0  0  0  0  0  0  0  0  0  0  0
  -10.2568   -1.1250    0.0000 C   0  0  0  0  0  0  0  0  0  0  0  0
   -7.5312   -0.8385    0.0000 C   0  0  0  0  0  0  0  0  0  0  0  0
   -6.6495    0.3750    0.0000 C   0  0  0  0  0  0  0  0  0  0  0  0
   -7.0677    3.0151    0.0000 C   0  0  0  0  0  0  0  0  0  0  0  0
   -5.1495    0.3750    0.0000 C   0  0  0  0  0  0  0  0  0  0  0  0
   -4.3995    1.6740    0.0000 O   0  0  0  0  0  0  0  0  0  0  0  0
  1 10  1  0  0  0  0
  1 15  1  0  0  0  0
  1 16  1  0  0  0  0
  2  5  2  0  0  0  0
  2  7  1  0  0  0  0
  3  4  2  0  0  0  0
  3  5  1  0  0  0  0
  4  6  1  0  0  0  0
  4 17  1  0  0  0  0
  6  7  2  0  0  0  0
  8  9  2  0  0  0  0
  8 10  1  0  0  0  0
  9 12  1  0  0  0  0
 10 11  2  0  0  0  0
 11 13  1  0  0  0  0
 11 14  1  0  0  0  0
 12 13  2  0  0  0  0
 14 15  2  0  0  0  0
 15 17  1  0  0  0  0
 17 18  2  0  0  0  0
M  END
