37883
 OpenBabel03021519512D

 12 11  0  0  0  0  0  0  0  0999 V2000
    0.7500   -6.5490    0.0000 N   0  0  0  0  0  0  0  0  0  0  0  0
    1.5000   -5.2500    0.0000 C   0  0  0  0  0  0  0  0  0  0  0  0
    0.7500   -3.9510    0.0000 O   0  0  0  0  0  0  0  0  0  0  0  0
    3.0000   -5.2500    0.0000 C   0  0  0  0  0  0  0  0  0  0  0  0
    3.0000   -6.7500    0.0000 C   0  0  0  0  0  0  0  0  0  0  0  0
    1.7010   -7.5000    0.0000 C   0  0  0  0  0  0  0  0  0  0  0  0
    4.5000   -5.2500    0.0000 C   0  0  0  0  0  0  0  0  0  0  0  0
    5.2500   -6.5490    0.0000 C   0  0  0  0  0  0  0  0  0  0  0  0
    3.0000   -3.7500    0.0000 S   0  0  0  0  0  0  0  0  0  0  0  0
    4.2990   -3.0000    0.0000 C   0  0  0  0  0  0  0  0  0  0  0  0
    4.2990   -1.5000    0.0000 C   0  0  0  0  0  0  0  0  0  0  0  0
    3.0000   -0.7500    0.0000 C   0  0  0  0  0  0  0  0  0  0  0  0
  1  2  1  0  0  0  0
  2  3  2  0  0  0  0
  2  4  1  0  0  0  0
  4  5  1  0  0  0  0
  4  7  1  0  0  0  0
  4  9  1  0  0  0  0
  5  6  1  0  0  0  0
  7  8  1  0  0  0  0
  9 10  1  0  0  0  0
 10 11  1  0  0  0  0
 11 12  2  0  0  0  0
M  END
