288387
 OpenBabel03021519512D

 26 29  0  0  0  0  0  0  0  0999 V2000
    4.2721    5.8995    0.0000 O   0  0  0  0  0  0  0  0  0  0  0  0
    1.6740    1.3995    0.0000 C   0  0  0  0  0  0  0  0  0  0  0  0
    1.6740   -0.1005    0.0000 C   0  0  0  0  0  0  0  0  0  0  0  0
    2.9731    2.1495    0.0000 C   0  0  0  0  0  0  0  0  0  0  0  0
    2.9731   -0.8505    0.0000 C   0  0  0  0  0  0  0  0  0  0  0  0
    4.2721    1.3995    0.0000 C   0  0  0  0  0  0  0  0  0  0  0  0
    4.2721   -0.1005    0.0000 C   0  0  0  0  0  0  0  0  0  0  0  0
    5.5712    2.1495    0.0000 N   0  0  0  0  0  0  0  0  0  0  0  0
    5.5712   -0.8505    0.0000 N   0  0  0  0  0  0  0  0  0  0  0  0
    6.8702   -0.1004    0.0000 C   0  0  0  0  0  0  0  0  0  0  0  0
    6.8702    1.3996    0.0000 C   0  0  0  0  0  0  0  0  0  0  0  0
    8.1692    2.1496    0.0000 N   0  0  0  0  0  0  0  0  0  0  0  0
    8.1692   -0.8504    0.0000 C   0  0  0  0  0  0  0  0  0  0  0  0
    8.1692   -2.3504    0.0000 O   0  0  0  0  0  0  0  0  0  0  0  0
    9.4683    1.3996    0.0000 C   0  0  0  0  0  0  0  0  0  0  0  0
    9.4683   -0.1004    0.0000 N   0  0  0  0  0  0  0  0  0  0  0  0
   10.7673    2.1496    0.0000 O   0  0  0  0  0  0  0  0  0  0  0  0
    5.5711    6.6495    0.0000 C   0  0  0  0  0  0  0  0  0  0  0  0
    4.2721    4.3995    0.0000 C   0  0  0  0  0  0  0  0  0  0  0  0
    5.5711    3.6495    0.0000 C   0  0  0  0  0  0  0  0  0  0  0  0
   10.7673   -0.8504    0.0000 C   0  0  0  0  0  0  0  0  0  0  0  0
   12.0664   -0.1004    0.0000 C   0  0  0  0  0  0  0  0  0  0  0  0
   13.3654   -0.8504    0.0000 C   0  0  0  0  0  0  0  0  0  0  0  0
   13.3654   -2.3504    0.0000 C   0  0  0  0  0  0  0  0  0  0  0  0
   12.0664   -3.1004    0.0000 C   0  0  0  0  0  0  0  0  0  0  0  0
   10.7673   -2.3504    0.0000 C   0  0  0  0  0  0  0  0  0  0  0  0
  1 18  1  0  0  0  0
  1 19  1  0  0  0  0
  2  4  1  0  0  0  0
  2  3  2  0  0  0  0
  3  5  1  0  0  0  0
  4  6  2  0  0  0  0
  5  7  2  0  0  0  0
  6  8  1  0  0  0  0
  6  7  1  0  0  0  0
  7  9  1  0  0  0  0
  8 11  1  0  0  0  0
  8 20  1  0  0  0  0
  9 10  2  0  0  0  0
 10 11  1  0  0  0  0
 10 13  1  0  0  0  0
 11 12  2  0  0  0  0
 12 15  1  0  0  0  0
 13 16  1  0  0  0  0
 13 14  2  0  0  0  0
 15 17  2  0  0  0  0
 15 16  1  0  0  0  0
 16 21  1  0  0  0  0
 19 20  1  0  0  0  0
 21 22  2  0  0  0  0
 21 26  1  0  0  0  0
 22 23  1  0  0  0  0
 23 24  2  0  0  0  0
 24 25  1  0  0  0  0
 25 26  2  0  0  0  0
M  END
