19637
 OpenBabel03021519512D

 17 18  0  0  0  0  0  0  0  0999 V2000
   -3.3481    7.5000    0.0000 N   0  0  0  0  0  0  0  0  0  0  0  0
    0.5490    3.7500    0.0000 C   0  0  0  0  0  0  0  0  0  0  0  0
    0.5490    5.2500    0.0000 C   0  0  0  0  0  0  0  0  0  0  0  0
    1.8481    3.0000    0.0000 C   0  0  0  0  0  0  0  0  0  0  0  0
    1.8481    6.0000    0.0000 C   0  0  0  0  0  0  0  0  0  0  0  0
    3.1471    3.7500    0.0000 C   0  0  0  0  0  0  0  0  0  0  0  0
    3.1471    5.2500    0.0000 C   0  0  0  0  0  0  0  0  0  0  0  0
   -4.6471    8.2500    0.0000 C   0  0  0  0  0  0  0  0  0  0  0  0
   -4.6471    9.7500    0.0000 C   0  0  0  0  0  0  0  0  0  0  0  0
   -3.3481   10.5000    0.0000 C   0  0  0  0  0  0  0  0  0  0  0  0
   -2.0490    9.7500    0.0000 C   0  0  0  0  0  0  0  0  0  0  0  0
   -2.0490    8.2500    0.0000 C   0  0  0  0  0  0  0  0  0  0  0  0
    4.4461    6.0000    0.0000 N   0  3  0  0  0  0  0  0  0  0  0  0
    5.7452    5.2500    0.0000 O   0  5  0  0  0  0  0  0  0  0  0  0
    4.4461    7.5000    0.0000 O   0  0  0  0  0  0  0  0  0  0  0  0
   -0.7500    6.0000    0.0000 C   0  0  0  0  0  0  0  0  0  0  0  0
   -0.7500    7.5000    0.0000 C   0  0  0  0  0  0  0  0  0  0  0  0
  1 12  2  0  0  0  0
  1  8  1  0  0  0  0
  2  4  2  0  0  0  0
  2  3  1  0  0  0  0
  3  5  2  0  0  0  0
  3 16  1  0  0  0  0
  4  6  1  0  0  0  0
  5  7  1  0  0  0  0
  6  7  2  0  0  0  0
  7 13  1  0  0  0  0
  8  9  2  0  0  0  0
  9 10  1  0  0  0  0
 10 11  2  0  0  0  0
 11 12  1  0  0  0  0
 12 17  1  0  0  0  0
 13 14  1  0  0  0  0
 13 15  2  0  0  0  0
 16 17  2  0  0  0  0
M  CHG  2  13   1  14  -1
M  END
