295701
 OpenBabel03021519512D

 13 15  0  0  0  0  0  0  0  0999 V2000
    2.7190    2.3230    0.0000 C   0  0  0  0  0  0  0  0  0  0  0  0
    2.7190    0.8230    0.0000 C   0  0  0  0  0  0  0  0  0  0  0  0
    4.0180    3.0730    0.0000 C   0  0  0  0  0  0  0  0  0  0  0  0
    4.0180    0.0730    0.0000 C   0  0  0  0  0  0  0  0  0  0  0  0
    5.3171    2.3230    0.0000 C   0  0  0  0  0  0  0  0  0  0  0  0
    5.3171    0.8230    0.0000 C   0  0  0  0  0  0  0  0  0  0  0  0
    6.7436    2.7865    0.0000 S   0  0  0  0  0  0  0  0  0  0  0  0
    6.7436    0.3595    0.0000 N   0  0  0  0  0  0  0  0  0  0  0  0
    7.6253    1.5730    0.0000 C   0  0  0  0  0  0  0  0  0  0  0  0
    9.0519    1.1095    0.0000 N   0  0  0  0  0  0  0  0  0  0  0  0
    7.6253   -0.8540    0.0000 C   0  0  0  0  0  0  0  0  0  0  0  0
    9.0519   -0.3905    0.0000 N   0  0  0  0  0  0  0  0  0  0  0  0
    1.4199    3.0730    0.0000 C   0  0  0  0  0  0  0  0  0  0  0  0
  1  3  2  0  0  0  0
  1  2  1  0  0  0  0
  1 13  1  0  0  0  0
  2  4  2  0  0  0  0
  3  5  1  0  0  0  0
  4  6  1  0  0  0  0
  5  7  1  0  0  0  0
  5  6  2  0  0  0  0
  6  8  1  0  0  0  0
  7  9  1  0  0  0  0
  8  9  1  0  0  0  0
  8 11  1  0  0  0  0
  9 10  2  0  0  0  0
 10 12  1  0  0  0  0
 11 12  2  0  0  0  0
M  END
