614826
 OpenBabel03021519512D

 27 29  0  0  1  0  0  0  0  0999 V2000
   -6.0000    9.8433    0.0000 N   0  0  0  0  0  0  0  0  0  0  0  0
   -7.5000    9.8433    0.0000 C   0  0  0  0  0  0  0  0  0  0  0  0
   -8.2500    8.5442    0.0000 C   0  0  0  0  0  0  0  0  0  0  0  0
   -7.5000    7.2452    0.0000 C   0  0  0  0  0  0  0  0  0  0  0  0
   -6.0000    7.2452    0.0000 C   0  0  0  0  0  0  0  0  0  0  0  0
   -5.2500    8.5442    0.0000 C   0  0  0  0  0  0  0  0  0  0  0  0
   -3.7500    8.5442    0.0000 C   0  0  3  0  0  0  0  0  0  0  0  0
   -3.7500   11.1423    0.0000 C   0  0  0  0  0  0  0  0  0  0  0  0
   -3.0000   12.4413    0.0000 C   0  0  0  0  0  0  0  0  0  0  0  0
   -1.5000   12.4413    0.0000 C   0  0  0  0  0  0  0  0  0  0  0  0
   -0.7500   11.1423    0.0000 C   0  0  0  0  0  0  0  0  0  0  0  0
   -1.5000    9.8433    0.0000 C   0  0  0  0  0  0  0  0  0  0  0  0
   -3.0000    9.8433    0.0000 C   0  0  0  0  0  0  0  0  0  0  0  0
   -3.7500    5.9462    0.0000 C   0  0  0  0  0  0  0  0  0  0  0  0
   -3.0000    7.2452    0.0000 C   0  0  0  0  0  0  0  0  0  0  0  0
   -1.5000    7.2452    0.0000 C   0  0  0  0  0  0  0  0  0  0  0  0
   -0.7500    5.9462    0.0000 C   0  0  0  0  0  0  0  0  0  0  0  0
   -1.5000    4.6471    0.0000 C   0  0  0  0  0  0  0  0  0  0  0  0
   -3.0000    4.6471    0.0000 C   0  0  0  0  0  0  0  0  0  0  0  0
   -0.7500   13.7404    0.0000 O   0  0  0  0  0  0  0  0  0  0  0  0
   -0.7500    3.3481    0.0000 O   0  0  0  0  0  0  0  0  0  0  0  0
   -1.5000   15.0394    0.0000 C   0  0  0  0  0  0  0  0  0  0  0  0
   -3.0000   15.0394    0.0000 O   0  0  0  0  0  0  0  0  0  0  0  0
   -0.7500   16.3385    0.0000 C   0  0  0  0  0  0  0  0  0  0  0  0
   -1.5000    2.0490    0.0000 C   0  0  0  0  0  0  0  0  0  0  0  0
   -3.0000    2.0490    0.0000 O   0  0  0  0  0  0  0  0  0  0  0  0
   -0.7500    0.7500    0.0000 C   0  0  0  0  0  0  0  0  0  0  0  0
  1  2  2  0  0  0  0
  1  6  1  0  0  0  0
  2  3  1  0  0  0  0
  3  4  2  0  0  0  0
  4  5  1  0  0  0  0
  5  6  2  0  0  0  0
  6  7  1  0  0  0  0
  7 15  1  0  0  0  0
  7 13  1  0  0  0  0
  8  9  2  0  0  0  0
  8 13  1  0  0  0  0
  9 10  1  0  0  0  0
 10 11  2  0  0  0  0
 10 20  1  0  0  0  0
 11 12  1  0  0  0  0
 12 13  2  0  0  0  0
 14 15  2  0  0  0  0
 14 19  1  0  0  0  0
 15 16  1  0  0  0  0
 16 17  2  0  0  0  0
 17 18  1  0  0  0  0
 18 19  2  0  0  0  0
 18 21  1  0  0  0  0
 20 22  1  0  0  0  0
 21 25  1  0  0  0  0
 22 23  2  0  0  0  0
 22 24  1  0  0  0  0
 25 26  2  0  0  0  0
 25 27  1  0  0  0  0
M  END
