56914
 OpenBabel03021519512D

 14 14  0  0  0  0  0  0  0  0999 V2000
   -6.1202   -7.3995    0.0000 O   0  0  0  0  0  0  0  0  0  0  0  0
   -6.1202   -4.3995    0.0000 H   0  0  0  0  0  0  0  0  0  0  0  0
   -4.8212   -5.1495    0.0000 N   0  0  0  0  0  0  0  0  0  0  0  0
   -3.5221   -7.3995    0.0000 N   0  0  0  0  0  0  0  0  0  0  0  0
   -3.5221   -2.8995    0.0000 O   0  0  0  0  0  0  0  0  0  0  0  0
   -2.2231   -6.6495    0.0000 N   0  0  0  0  0  0  0  0  0  0  0  0
   -3.5221   -4.3995    0.0000 C   0  0  0  0  0  0  0  0  0  0  0  0
   -2.2231   -5.1495    0.0000 C   0  0  0  0  0  0  0  0  0  0  0  0
   -4.8212   -6.6495    0.0000 C   0  0  0  0  0  0  0  0  0  0  0  0
   -3.5221   -8.8995    0.0000 C   0  0  0  0  0  0  0  0  0  0  0  0
   -0.9240   -4.3995    0.0000 C   0  0  0  0  0  0  0  0  0  0  0  0
    0.3750   -5.1495    0.0000 O   0  0  0  0  0  0  0  0  0  0  0  0
   -0.9240   -2.8995    0.0000 N   0  0  0  0  0  0  0  0  0  0  0  0
    0.3750   -2.1495    0.0000 C   0  0  0  0  0  0  0  0  0  0  0  0
  1  9  2  0  0  0  0
  2  3  1  0  0  0  0
  3  7  1  0  0  0  0
  3  9  1  0  0  0  0
  4  6  1  0  0  0  0
  4  9  1  0  0  0  0
  4 10  1  0  0  0  0
  5  7  2  0  0  0  0
  6  8  2  0  0  0  0
  7  8  1  0  0  0  0
  8 11  1  0  0  0  0
 11 12  2  0  0  0  0
 11 13  1  0  0  0  0
 13 14  1  0  0  0  0
M  END
