638432
 OpenBabel03021519512D

 29 32  0  0  0  0  0  0  0  0999 V2000
    3.3212    6.8840    0.0000 C   0  0  0  0  0  0  0  0  0  0  0  0
    3.9313    5.5137    0.0000 C   0  0  0  0  0  0  0  0  0  0  0  0
    5.4231    5.3569    0.0000 C   0  0  0  0  0  0  0  0  0  0  0  0
    6.3048    6.5704    0.0000 C   0  0  0  0  0  0  0  0  0  0  0  0
    5.6947    7.9407    0.0000 C   0  0  0  0  0  0  0  0  0  0  0  0
    4.2029    8.0975    0.0000 C   0  0  0  0  0  0  0  0  0  0  0  0
    6.5764    9.1543    0.0000 C   0  0  0  0  0  0  0  0  0  0  0  0
    5.9662   10.5246    0.0000 O   0  0  0  0  0  0  0  0  0  0  0  0
    8.0681    8.9975    0.0000 O   0  0  0  0  0  0  0  0  0  0  0  0
    8.6782    7.6271    0.0000 C   0  0  0  0  0  0  0  0  0  0  0  0
    7.7966    6.4136    0.0000 C   0  0  0  0  0  0  0  0  0  0  0  0
   10.1048    7.1636    0.0000 C   0  0  0  0  0  0  0  0  0  0  0  0
   10.1048    5.6636    0.0000 C   0  0  0  0  0  0  0  0  0  0  0  0
   11.4039    7.9136    0.0000 C   0  0  0  0  0  0  0  0  0  0  0  0
    8.6783    5.2001    0.0000 N   0  0  0  0  0  0  0  0  0  0  0  0
   11.4039    4.9136    0.0000 C   0  0  0  0  0  0  0  0  0  0  0  0
   12.7029    5.6636    0.0000 C   0  0  0  0  0  0  0  0  0  0  0  0
   12.7029    7.1636    0.0000 C   0  0  0  0  0  0  0  0  0  0  0  0
   14.0020    4.9136    0.0000 C   0  0  0  0  0  0  0  0  0  0  0  0
   14.0020    3.4136    0.0000 C   0  0  0  0  0  0  0  0  0  0  0  0
   12.7029    2.6636    0.0000 C   0  0  0  0  0  0  0  0  0  0  0  0
   11.4039    3.4136    0.0000 C   0  0  0  0  0  0  0  0  0  0  0  0
    8.2147    3.7735    0.0000 C   0  0  0  0  0  0  0  0  0  0  0  0
    6.7475    3.4616    0.0000 C   0  0  0  0  0  0  0  0  0  0  0  0
    6.2840    2.0350    0.0000 C   0  0  0  0  0  0  0  0  0  0  0  0
    4.8168    1.7232    0.0000 N   0  0  0  0  0  0  0  0  0  0  0  0
    3.8131    2.8379    0.0000 C   0  0  0  0  0  0  0  0  0  0  0  0
    4.3532    0.2966    0.0000 C   0  0  0  0  0  0  0  0  0  0  0  0
    1.1559    0.6326    0.0000 Cl  0  0  0  0  0  0  0  0  0  0  0  0
  1  2  1  0  0  0  0
  1  6  2  0  0  0  0
  2  3  2  0  0  0  0
  3  4  1  0  0  0  0
  4  5  2  0  0  0  0
  4 11  1  0  0  0  0
  5  6  1  0  0  0  0
  5  7  1  0  0  0  0
  7  8  2  0  0  0  0
  7  9  1  0  0  0  0
  9 10  1  0  0  0  0
 10 11  2  0  0  0  0
 10 12  1  0  0  0  0
 11 15  1  0  0  0  0
 12 13  2  0  0  0  0
 12 14  1  0  0  0  0
 13 15  1  0  0  0  0
 13 16  1  0  0  0  0
 14 18  2  0  0  0  0
 15 23  1  0  0  0  0
 16 17  2  0  0  0  0
 16 22  1  0  0  0  0
 17 18  1  0  0  0  0
 17 19  1  0  0  0  0
 19 20  2  0  0  0  0
 20 21  1  0  0  0  0
 21 22  2  0  0  0  0
 23 24  1  0  0  0  0
 24 25  1  0  0  0  0
 25 26  1  0  0  0  0
 26 27  1  0  0  0  0
 26 28  1  0  0  0  0
M  END
