15784
 OpenBabel03021519512D

 19 21  0  0  0  0  0  0  0  0999 V2000
  -10.7673   -3.6495    0.0000 N   0  0  0  0  0  0  0  0  0  0  0  0
   -2.9731   -3.6495    0.0000 Cl  0  0  0  0  0  0  0  0  0  0  0  0
   -9.4683   -5.8995    0.0000 C   0  0  0  0  0  0  0  0  0  0  0  0
   -9.4683   -4.3995    0.0000 C   0  0  0  0  0  0  0  0  0  0  0  0
   -8.1692   -6.6495    0.0000 C   0  0  0  0  0  0  0  0  0  0  0  0
   -8.1692   -3.6495    0.0000 C   0  0  0  0  0  0  0  0  0  0  0  0
   -6.8702   -5.8995    0.0000 C   0  0  0  0  0  0  0  0  0  0  0  0
   -6.8702   -4.3995    0.0000 C   0  0  0  0  0  0  0  0  0  0  0  0
   -8.1692   -2.1495    0.0000 C   0  0  0  0  0  0  0  0  0  0  0  0
  -10.7673   -2.1495    0.0000 C   0  0  0  0  0  0  0  0  0  0  0  0
   -9.4683   -1.3995    0.0000 C   0  0  0  0  0  0  0  0  0  0  0  0
   -4.2721   -1.3995    0.0000 C   0  0  0  0  0  0  0  0  0  0  0  0
   -4.2721    0.1005    0.0000 C   0  0  0  0  0  0  0  0  0  0  0  0
   -2.9731   -2.1495    0.0000 C   0  0  0  0  0  0  0  0  0  0  0  0
   -1.6740   -1.3995    0.0000 C   0  0  0  0  0  0  0  0  0  0  0  0
   -2.9731    0.8505    0.0000 C   0  0  0  0  0  0  0  0  0  0  0  0
   -1.6740    0.1005    0.0000 C   0  0  0  0  0  0  0  0  0  0  0  0
   -6.8702   -1.3995    0.0000 C   0  0  0  0  0  0  0  0  0  0  0  0
   -5.5712   -2.1495    0.0000 C   0  0  0  0  0  0  0  0  0  0  0  0
  1 10  2  0  0  0  0
  1  4  1  0  0  0  0
  2 14  1  0  0  0  0
  3  5  2  0  0  0  0
  3  4  1  0  0  0  0
  4  6  2  0  0  0  0
  5  7  1  0  0  0  0
  6  8  1  0  0  0  0
  6  9  1  0  0  0  0
  7  8  2  0  0  0  0
  9 11  2  0  0  0  0
  9 18  1  0  0  0  0
 10 11  1  0  0  0  0
 12 14  2  0  0  0  0
 12 13  1  0  0  0  0
 12 19  1  0  0  0  0
 13 16  2  0  0  0  0
 14 15  1  0  0  0  0
 15 17  2  0  0  0  0
 16 17  1  0  0  0  0
 18 19  2  0  0  0  0
M  END
