14771
 OpenBabel03021519512D

 16 18  0  0  0  0  0  0  0  0999 V2000
   -3.1370   -3.2062    0.0000 O   0  0  0  0  0  0  0  0  0  0  0  0
    0.3897   -8.0603    0.0000 O   0  0  0  0  0  0  0  0  0  0  0  0
    0.1182   -3.0494    0.0000 N   0  0  0  0  0  0  0  0  0  0  0  0
   -0.3454   -1.6228    0.0000 H   0  0  0  0  0  0  0  0  0  0  0  0
    1.5447   -5.0129    0.0000 N   0  0  0  0  0  0  0  0  0  0  0  0
   -2.2553   -4.4197    0.0000 C   0  0  0  0  0  0  0  0  0  0  0  0
   -0.7635   -4.2629    0.0000 C   0  0  0  0  0  0  0  0  0  0  0  0
   -2.8654   -5.7900    0.0000 C   0  0  0  0  0  0  0  0  0  0  0  0
   -4.3572   -5.9468    0.0000 C   0  0  0  0  0  0  0  0  0  0  0  0
   -4.9673   -7.3171    0.0000 C   0  0  0  0  0  0  0  0  0  0  0  0
    0.1182   -5.4765    0.0000 C   0  0  0  0  0  0  0  0  0  0  0  0
   -1.9837   -7.0036    0.0000 C   0  0  0  0  0  0  0  0  0  0  0  0
   -4.0856   -8.5307    0.0000 C   0  0  0  0  0  0  0  0  0  0  0  0
   -0.4919   -6.8468    0.0000 C   0  0  0  0  0  0  0  0  0  0  0  0
   -2.5938   -8.3739    0.0000 C   0  0  0  0  0  0  0  0  0  0  0  0
    1.5447   -3.5129    0.0000 C   0  0  0  0  0  0  0  0  0  0  0  0
  1  6  2  0  0  0  0
  2 14  2  0  0  0  0
  3  7  1  0  0  0  0
  3 16  1  0  0  0  0
  3  4  1  0  0  0  0
  5 16  2  0  0  0  0
  5 11  1  0  0  0  0
  6  7  1  0  0  0  0
  6  8  1  0  0  0  0
  7 11  2  0  0  0  0
  8 12  2  0  0  0  0
  8  9  1  0  0  0  0
  9 10  2  0  0  0  0
 10 13  1  0  0  0  0
 11 14  1  0  0  0  0
 12 14  1  0  0  0  0
 12 15  1  0  0  0  0
 13 15  2  0  0  0  0
M  END
