201659
 OpenBabel03021519512D

 21 22  0  0  1  0  0  0  0  0999 V2000
    4.9118    0.1044    0.0000 O   0  0  0  0  0  0  0  0  0  0  0  0
    7.7571   -2.5357    0.0000 S   0  0  0  0  0  0  0  0  0  0  0  0
    6.5435   -4.9173    0.0000 N   0  0  0  0  0  0  0  0  0  0  0  0
    3.9455   -3.4174    0.0000 Cl  0  0  0  0  0  0  0  0  0  0  0  0
    5.2445   -7.1674    0.0000 C   0  0  0  0  0  0  0  0  0  0  0  0
    3.9455   -7.9174    0.0000 C   0  0  0  0  0  0  0  0  0  0  0  0
    5.2445   -5.6673    0.0000 C   0  0  0  0  0  0  0  0  0  0  0  0
    2.6464   -7.1674    0.0000 C   0  0  0  0  0  0  0  0  0  0  0  0
    3.9455   -4.9174    0.0000 C   0  0  0  0  0  0  0  0  0  0  0  0
    2.6464   -5.6674    0.0000 C   0  0  0  0  0  0  0  0  0  0  0  0
    6.5435   -3.4173    0.0000 C   0  0  0  0  0  0  0  0  0  0  0  0
    5.3300   -2.5357    0.0000 C   0  0  3  0  0  0  0  0  0  0  0  0
    5.7935   -1.1091    0.0000 C   0  0  0  0  0  0  0  0  0  0  0  0
    7.2935   -1.1091    0.0000 C   0  0  0  0  0  0  0  0  0  0  0  0
    3.9597   -1.9256    0.0000 C   0  0  0  0  0  0  0  0  0  0  0  0
    3.8029   -0.4338    0.0000 O   0  0  0  0  0  0  0  0  0  0  0  0
    2.7462   -2.8073    0.0000 O   0  0  0  0  0  0  0  0  0  0  0  0
    2.9030   -4.2990    0.0000 C   0  0  0  0  0  0  0  0  0  0  0  0
    1.6894   -5.1807    0.0000 C   0  0  0  0  0  0  0  0  0  0  0  0
    4.5800   -3.8347    0.0000 C   0  0  0  0  0  0  0  0  0  0  0  0
    3.8300   -5.1338    0.0000 N   0  0  0  0  0  0  0  0  0  0  0  0
  1 13  2  0  0  0  0
  2 11  1  0  0  0  0
  2 14  1  0  0  0  0
  3 11  2  0  0  0  0
  3  7  1  0  0  0  0
  4  9  1  0  0  0  0
  5  6  2  0  0  0  0
  5  7  1  0  0  0  0
  6  8  1  0  0  0  0
  7  9  2  0  0  0  0
  8 10  2  0  0  0  0
  9 10  1  0  0  0  0
 11 12  1  0  0  0  0
 12 13  1  0  0  0  0
 12 15  1  0  0  0  0
 12 20  1  0  0  0  0
 13 14  1  0  0  0  0
 15 16  2  0  0  0  0
 15 17  1  0  0  0  0
 17 18  1  0  0  0  0
 18 19  1  0  0  0  0
 20 21  3  0  0  0  0
M  END
