19108
 OpenBabel03021519512D

 19 21  0  0  0  0  0  0  0  0999 V2000
   -3.4053   -2.0227    0.0000 O   0  0  0  0  0  0  0  0  0  0  0  0
   -4.7946    0.6362    0.0000 H   0  0  0  0  0  0  0  0  0  0  0  0
   -3.2959    0.5730    0.0000 N   0  0  0  0  0  0  0  0  0  0  0  0
   -1.1026   -0.8196    0.0000 N   0  0  0  0  0  0  0  0  0  0  0  0
   -3.1865    3.1688    0.0000 S   0  0  0  0  0  0  0  0  0  0  0  0
   -0.4079   -2.1490    0.0000 H   0  0  0  0  0  0  0  0  0  0  0  0
    0.0565    2.8477    0.0000 N   0  0  0  0  0  0  0  0  0  0  0  0
    1.1805    0.6966    0.0000 N   0  0  0  0  0  0  0  0  0  0  0  0
   -2.4919    1.8394    0.0000 C   0  0  0  0  0  0  0  0  0  0  0  0
   -0.9932    1.7762    0.0000 C   0  0  0  0  0  0  0  0  0  0  0  0
   -0.2986    0.4467    0.0000 C   0  0  0  0  0  0  0  0  0  0  0  0
    1.3999    2.1804    0.0000 C   0  0  0  0  0  0  0  0  0  0  0  0
   -2.6013   -0.7564    0.0000 C   0  0  0  0  0  0  0  0  0  0  0  0
    3.6968    0.0499    0.0000 C   0  0  0  0  0  0  0  0  0  0  0  0
    2.2520   -0.3532    0.0000 C   0  0  0  0  0  0  0  0  0  0  0  0
    4.7683   -0.9998    0.0000 C   0  0  0  0  0  0  0  0  0  0  0  0
    4.3949   -2.4526    0.0000 C   0  0  0  0  0  0  0  0  0  0  0  0
    1.8786   -1.8060    0.0000 C   0  0  0  0  0  0  0  0  0  0  0  0
    2.9501   -2.8557    0.0000 C   0  0  0  0  0  0  0  0  0  0  0  0
  1 13  2  0  0  0  0
  2  3  1  0  0  0  0
  3  9  1  0  0  0  0
  3 13  1  0  0  0  0
  4 11  1  0  0  0  0
  4 13  1  0  0  0  0
  4  6  1  0  0  0  0
  5  9  2  0  0  0  0
  7 12  2  0  0  0  0
  7 10  1  0  0  0  0
  8 11  1  0  0  0  0
  8 12  1  0  0  0  0
  8 15  1  0  0  0  0
  9 10  1  0  0  0  0
 10 11  2  0  0  0  0
 14 16  2  0  0  0  0
 14 15  1  0  0  0  0
 15 18  2  0  0  0  0
 16 17  1  0  0  0  0
 17 19  2  0  0  0  0
 18 19  1  0  0  0  0
M  END
