643150
 OpenBabel03021519512D

 17 18  0  0  0  0  0  0  0  0999 V2000
  -10.1891   -0.8847    0.0000 N   0  0  0  0  0  0  0  0  0  0  0  0
  -11.1928    0.2300    0.0000 C   0  0  0  0  0  0  0  0  0  0  0  0
  -10.4428    1.5291    0.0000 C   0  0  0  0  0  0  0  0  0  0  0  0
   -8.9755    1.2172    0.0000 C   0  0  0  0  0  0  0  0  0  0  0  0
   -8.8187   -0.2746    0.0000 C   0  0  0  0  0  0  0  0  0  0  0  0
   -7.5197   -1.0245    0.0000 C   0  0  0  0  0  0  0  0  0  0  0  0
   -6.2207   -0.2745    0.0000 C   0  0  0  0  0  0  0  0  0  0  0  0
   -6.2207    1.2255    0.0000 C   0  0  0  0  0  0  0  0  0  0  0  0
   -6.2207    2.7255    0.0000 N   0  0  0  0  0  0  0  0  0  0  0  0
   -4.9216   -1.0245    0.0000 C   0  0  0  0  0  0  0  0  0  0  0  0
   -3.6226   -3.2745    0.0000 C   0  0  0  0  0  0  0  0  0  0  0  0
   -4.9216   -2.5245    0.0000 C   0  0  0  0  0  0  0  0  0  0  0  0
   -6.2207   -3.2745    0.0000 C   0  0  0  0  0  0  0  0  0  0  0  0
   -6.2207   -4.7745    0.0000 C   0  0  0  0  0  0  0  0  0  0  0  0
   -4.9216   -5.5245    0.0000 C   0  0  0  0  0  0  0  0  0  0  0  0
   -3.6226   -4.7745    0.0000 C   0  0  0  0  0  0  0  0  0  0  0  0
   -3.6226   -0.2745    0.0000 O   0  0  0  0  0  0  0  0  0  0  0  0
  1  2  1  0  0  0  0
  1  5  1  0  0  0  0
  2  3  2  0  0  0  0
  3  4  1  0  0  0  0
  4  5  2  0  0  0  0
  5  6  1  0  0  0  0
  6  7  2  0  0  0  0
  7  8  1  0  0  0  0
  7 10  1  0  0  0  0
  8  9  3  0  0  0  0
 10 17  2  0  0  0  0
 10 12  1  0  0  0  0
 11 12  1  0  0  0  0
 11 16  2  0  0  0  0
 12 13  2  0  0  0  0
 13 14  1  0  0  0  0
 14 15  2  0  0  0  0
 15 16  1  0  0  0  0
M  END
