222365
 OpenBabel03021519512D

 24 25  0  0  1  0  0  0  0  0999 V2000
   -5.9462    0.7500    0.0000 Cl  0  0  0  0  0  0  0  0  0  0  0  0
   -0.7500    3.7500    0.0000 O   0  0  0  0  0  0  0  0  0  0  0  0
   -0.7500    0.7500    0.0000 Cl  0  0  0  0  0  0  0  0  0  0  0  0
   -4.0981    6.9510    0.0000 O   0  0  0  0  0  0  0  0  0  0  0  0
   -3.3481    3.7500    0.0000 C   0  0  0  0  0  0  0  0  0  0  0  0
   -4.6471    3.0000    0.0000 C   0  0  0  0  0  0  0  0  0  0  0  0
   -2.0490    3.0000    0.0000 C   0  0  0  0  0  0  0  0  0  0  0  0
   -4.6471    1.5000    0.0000 C   0  0  0  0  0  0  0  0  0  0  0  0
   -2.0490    1.5000    0.0000 C   0  0  0  0  0  0  0  0  0  0  0  0
   -3.3481    0.7500    0.0000 C   0  0  0  0  0  0  0  0  0  0  0  0
   -5.9461    8.2500    0.0000 C   0  0  0  0  0  0  0  0  0  0  0  0
   -4.6471    9.0000    0.0000 C   0  0  0  0  0  0  0  0  0  0  0  0
   -7.2452    9.0000    0.0000 C   0  0  0  0  0  0  0  0  0  0  0  0
   -4.6471   10.5000    0.0000 C   0  0  0  0  0  0  0  0  0  0  0  0
   -7.2452   10.5000    0.0000 C   0  0  0  0  0  0  0  0  0  0  0  0
   -5.9461   11.2500    0.0000 C   0  0  0  0  0  0  0  0  0  0  0  0
   -0.7500    5.2500    0.0000 C   0  0  0  0  0  0  0  0  0  0  0  0
   -2.0490    6.0000    0.0000 C   0  0  3  0  0  0  0  0  0  0  0  0
   -3.3481    5.2500    0.0000 O   0  0  0  0  0  0  0  0  0  0  0  0
   -2.0490    7.5000    0.0000 C   0  0  0  0  0  0  0  0  0  0  0  0
   -3.3481    8.2500    0.0000 As  0  0  3  0  0  0  0  0  0  0  0  0
   -2.5981    9.5491    0.0000 O   0  0  0  0  0  0  0  0  0  0  0  0
   -3.3481   11.2500    0.0000 O   0  0  0  0  0  0  0  0  0  0  0  0
   -2.0490   10.5000    0.0000 C   0  0  0  0  0  0  0  0  0  0  0  0
  1  8  1  0  0  0  0
  2  7  1  0  0  0  0
  2 17  1  0  0  0  0
  3  9  1  0  0  0  0
  4 21  2  0  0  0  0
  5  6  2  0  0  0  0
  5  7  1  0  0  0  0
  6  8  1  0  0  0  0
  7  9  2  0  0  0  0
  8 10  2  0  0  0  0
  9 10  1  0  0  0  0
 11 13  2  0  0  0  0
 11 12  1  0  0  0  0
 12 14  2  0  0  0  0
 12 21  1  0  0  0  0
 13 15  1  0  0  0  0
 14 16  1  0  0  0  0
 14 23  1  0  0  0  0
 15 16  2  0  0  0  0
 17 18  1  0  0  0  0
 18 19  1  0  0  0  0
 18 20  1  0  0  0  0
 20 21  1  0  0  0  0
 21 22  1  0  0  0  0
 23 24  1  0  0  0  0
M  END
