279834
 OpenBabel03021519512D

 15 15  0  0  0  0  0  0  0  0999 V2000
    3.3481    4.5000    0.0000 C   0  0  0  0  0  0  0  0  0  0  0  0
    3.3481    3.0000    0.0000 C   0  0  0  0  0  0  0  0  0  0  0  0
    4.6471    5.2500    0.0000 C   0  0  0  0  0  0  0  0  0  0  0  0
    4.6471    2.2500    0.0000 N   0  0  0  0  0  0  0  0  0  0  0  0
    4.6471    0.7500    0.0000 H   0  0  0  0  0  0  0  0  0  0  0  0
    5.9462    3.0000    0.0000 C   0  0  0  0  0  0  0  0  0  0  0  0
    5.9462    4.5000    0.0000 C   0  0  0  0  0  0  0  0  0  0  0  0
    2.0490    5.2500    0.0000 C   0  0  0  0  0  0  0  0  0  0  0  0
    0.7500    6.0000    0.0000 N   0  0  0  0  0  0  0  0  0  0  0  0
    2.0490    2.2500    0.0000 C   0  0  0  0  0  0  0  0  0  0  0  0
    3.6829    6.3991    0.0000 C   0  0  0  0  0  0  0  0  0  0  0  0
    5.6113    6.3991    0.0000 C   0  0  0  0  0  0  0  0  0  0  0  0
    7.2452    5.2500    0.0000 C   0  0  0  0  0  0  0  0  0  0  0  0
    8.5442    6.0000    0.0000 N   0  0  0  0  0  0  0  0  0  0  0  0
    7.2452    2.2500    0.0000 C   0  0  0  0  0  0  0  0  0  0  0  0
  1  3  1  0  0  0  0
  1  2  2  0  0  0  0
  1  8  1  0  0  0  0
  2  4  1  0  0  0  0
  2 10  1  0  0  0  0
  3  7  1  0  0  0  0
  3 11  1  0  0  0  0
  3 12  1  0  0  0  0
  4  6  1  0  0  0  0
  4  5  1  0  0  0  0
  6  7  2  0  0  0  0
  6 15  1  0  0  0  0
  7 13  1  0  0  0  0
  8  9  3  0  0  0  0
 13 14  3  0  0  0  0
M  END
