91529
 OpenBabel03021519512D

 37 39  0  0  1  0  0  0  0  0999 V2000
   -2.0524    2.3624    0.0000 C   0  0  0  0  0  0  0  0  0  0  0  0
   -0.6429    2.8754    0.0000 C   0  0  0  0  0  0  0  0  0  0  0  0
   -2.3129    0.8852    0.0000 C   0  0  0  0  0  0  0  0  0  0  0  0
   -1.1638   -0.0790    0.0000 C   0  0  0  0  0  0  0  0  0  0  0  0
    0.5062    1.9112    0.0000 C   0  0  0  0  0  0  0  0  0  0  0  0
    0.2457    0.4340    0.0000 C   0  0  0  0  0  0  0  0  0  0  0  0
   -3.8296    7.2452    0.0000 C   0  0  3  0  0  0  0  0  0  0  0  0
   -5.3296    7.2452    0.0000 C   0  0  0  0  0  0  0  0  0  0  0  0
   -6.0796    5.9462    0.0000 C   0  0  3  0  0  0  0  0  0  0  0  0
   -3.0796    5.9461    0.0000 C   0  0  0  0  0  0  0  0  0  0  0  0
   -5.3296    4.6471    0.0000 C   0  0  3  0  0  0  0  0  0  0  0  0
   -3.8296    4.6471    0.0000 C   0  0  3  0  0  0  0  0  0  0  0  0
   -9.8296    2.0490    0.0000 C   0  0  0  0  0  0  0  0  0  0  0  0
   -8.3296    2.0490    0.0000 C   0  0  0  0  0  0  0  0  0  0  0  0
  -10.5796    3.3481    0.0000 C   0  0  0  0  0  0  0  0  0  0  0  0
   -7.5796    3.3481    0.0000 C   0  0  0  0  0  0  0  0  0  0  0  0
   -9.8296    4.6471    0.0000 C   0  0  0  0  0  0  0  0  0  0  0  0
   -8.3296    4.6471    0.0000 C   0  0  0  0  0  0  0  0  0  0  0  0
  -12.0796    3.3481    0.0000 O   0  0  0  0  0  0  0  0  0  0  0  0
  -10.5796    5.9461    0.0000 O   0  0  0  0  0  0  0  0  0  0  0  0
   -7.5796    0.7500    0.0000 C   0  0  0  0  0  0  0  0  0  0  0  0
   -6.0796    0.7500    0.0000 C   0  0  0  0  0  0  0  0  0  0  0  0
   -5.3296    2.0490    0.0000 C   0  0  0  0  0  0  0  0  0  0  0  0
   -3.8296    2.0490    0.0000 O   0  0  0  0  0  0  0  0  0  0  0  0
   -6.0796    3.3481    0.0000 O   0  0  0  0  0  0  0  0  0  0  0  0
   -7.5796    5.9462    0.0000 O   0  0  0  0  0  0  0  0  0  0  0  0
   -3.0796    3.3481    0.0000 O   0  0  0  0  0  0  0  0  0  0  0  0
   -4.0900    8.7224    0.0000 C   0  0  0  0  0  0  0  0  0  0  0  0
   -2.9410    9.6866    0.0000 O   0  0  0  0  0  0  0  0  0  0  0  0
   -5.4996    9.2354    0.0000 O   0  0  0  0  0  0  0  0  0  0  0  0
   -2.4200    7.7582    0.0000 O   0  0  0  0  0  0  0  0  0  0  0  0
   -1.2710    6.7940    0.0000 C   0  0  0  0  0  0  0  0  0  0  0  0
    0.1386    7.3071    0.0000 O   0  0  0  0  0  0  0  0  0  0  0  0
   -1.5314    5.3168    0.0000 C   0  0  0  0  0  0  0  0  0  0  0  0
   -0.3824    4.3526    0.0000 C   0  0  0  0  0  0  0  0  0  0  0  0
   -3.7224    0.3722    0.0000 O   0  0  0  0  0  0  0  0  0  0  0  0
   -1.4243   -1.5562    0.0000 O   0  0  0  0  0  0  0  0  0  0  0  0
  1  2  2  0  0  0  0
  1  3  1  0  0  0  0
  2  5  1  0  0  0  0
  2 35  1  0  0  0  0
  3  4  2  0  0  0  0
  3 36  1  0  0  0  0
  4  6  1  0  0  0  0
  4 37  1  0  0  0  0
  5  6  2  0  0  0  0
  7  8  1  0  0  0  0
  7 10  1  0  0  0  0
  7 28  1  0  0  0  0
  7 31  1  0  0  0  0
  8  9  1  0  0  0  0
  9 11  1  0  0  0  0
  9 26  1  0  0  0  0
 10 12  1  0  0  0  0
 11 12  1  0  0  0  0
 11 25  1  0  0  0  0
 12 27  1  0  0  0  0
 13 14  2  0  0  0  0
 13 15  1  0  0  0  0
 14 16  1  0  0  0  0
 14 21  1  0  0  0  0
 15 17  2  0  0  0  0
 15 19  1  0  0  0  0
 16 18  2  0  0  0  0
 17 18  1  0  0  0  0
 17 20  1  0  0  0  0
 21 22  2  0  0  0  0
 22 23  1  0  0  0  0
 23 24  2  0  0  0  0
 23 25  1  0  0  0  0
 28 29  2  0  0  0  0
 28 30  1  0  0  0  0
 31 32  1  0  0  0  0
 32 33  2  0  0  0  0
 32 34  1  0  0  0  0
 34 35  2  0  0  0  0
M  END
