308835
 OpenBabel03021519512D

 36 41  0  0  0  0  0  0  0  0999 V2000
  -14.3665   -3.3901    0.0000 C   0  0  0  0  0  0  0  0  0  0  0  0
  -13.6165   -4.6892    0.0000 C   0  0  0  0  0  0  0  0  0  0  0  0
  -12.1165   -4.6892    0.0000 C   0  0  0  0  0  0  0  0  0  0  0  0
  -11.3665   -3.3901    0.0000 C   0  0  0  0  0  0  0  0  0  0  0  0
  -12.1165   -2.0911    0.0000 C   0  0  0  0  0  0  0  0  0  0  0  0
  -13.6165   -2.0911    0.0000 C   0  0  0  0  0  0  0  0  0  0  0  0
   -9.8665   -3.3901    0.0000 C   0  0  0  0  0  0  0  0  0  0  0  0
   -9.1165   -4.6892    0.0000 C   0  0  0  0  0  0  0  0  0  0  0  0
   -7.6165   -4.6892    0.0000 C   0  0  0  0  0  0  0  0  0  0  0  0
   -6.8665   -3.3901    0.0000 C   0  0  0  0  0  0  0  0  0  0  0  0
   -7.6165   -2.0911    0.0000 C   0  0  0  0  0  0  0  0  0  0  0  0
   -9.1165   -2.0911    0.0000 C   0  0  0  0  0  0  0  0  0  0  0  0
  -15.8665   -3.3901    0.0000 N   0  0  0  0  0  0  0  0  0  0  0  0
  -16.7482   -2.1766    0.0000 C   0  0  0  0  0  0  0  0  0  0  0  0
  -18.1748   -2.6401    0.0000 C   0  0  0  0  0  0  0  0  0  0  0  0
  -16.7482   -4.6037    0.0000 C   0  0  0  0  0  0  0  0  0  0  0  0
  -18.1748   -4.1401    0.0000 C   0  0  0  0  0  0  0  0  0  0  0  0
  -19.6014   -3.6766    0.0000 C   0  0  0  0  0  0  0  0  0  0  0  0
  -20.4831   -4.8901    0.0000 C   0  0  0  0  0  0  0  0  0  0  0  0
  -19.6014   -6.1037    0.0000 C   0  0  0  0  0  0  0  0  0  0  0  0
  -18.1748   -5.6401    0.0000 C   0  0  0  0  0  0  0  0  0  0  0  0
   -5.3665   -3.3901    0.0000 N   0  0  0  0  0  0  0  0  0  0  0  0
   -4.4848   -4.6037    0.0000 C   0  0  0  0  0  0  0  0  0  0  0  0
   -3.0583   -2.6401    0.0000 C   0  0  0  0  0  0  0  0  0  0  0  0
   -4.4848   -2.1766    0.0000 C   0  0  0  0  0  0  0  0  0  0  0  0
   -3.0583   -4.1401    0.0000 C   0  0  0  0  0  0  0  0  0  0  0  0
   -3.0583   -5.6401    0.0000 C   0  0  0  0  0  0  0  0  0  0  0  0
   -1.6317   -6.1037    0.0000 C   0  0  0  0  0  0  0  0  0  0  0  0
   -0.7500   -4.8901    0.0000 C   0  0  0  0  0  0  0  0  0  0  0  0
   -1.6317   -3.6766    0.0000 C   0  0  0  0  0  0  0  0  0  0  0  0
  -16.2847   -0.7500    0.0000 O   0  0  0  0  0  0  0  0  0  0  0  0
  -16.2847   -6.0302    0.0000 O   0  0  0  0  0  0  0  0  0  0  0  0
   -4.9484   -0.7500    0.0000 O   0  0  0  0  0  0  0  0  0  0  0  0
   -4.9484   -6.0302    0.0000 O   0  0  0  0  0  0  0  0  0  0  0  0
   -6.8665   -5.9882    0.0000 C   0  0  0  0  0  0  0  0  0  0  0  0
  -14.3665   -5.9882    0.0000 C   0  0  0  0  0  0  0  0  0  0  0  0
  1  2  2  0  0  0  0
  1  6  1  0  0  0  0
  1 13  1  0  0  0  0
  2  3  1  0  0  0  0
  2 36  1  0  0  0  0
  3  4  2  0  0  0  0
  4  5  1  0  0  0  0
  4  7  1  0  0  0  0
  5  6  2  0  0  0  0
  7  8  2  0  0  0  0
  7 12  1  0  0  0  0
  8  9  1  0  0  0  0
  9 10  2  0  0  0  0
  9 35  1  0  0  0  0
 10 11  1  0  0  0  0
 10 22  1  0  0  0  0
 11 12  2  0  0  0  0
 13 14  1  0  0  0  0
 13 16  1  0  0  0  0
 14 15  1  0  0  0  0
 14 31  2  0  0  0  0
 15 17  1  0  0  0  0
 16 17  1  0  0  0  0
 16 32  2  0  0  0  0
 17 18  1  0  0  0  0
 17 21  1  0  0  0  0
 18 19  1  0  0  0  0
 19 20  1  0  0  0  0
 20 21  1  0  0  0  0
 22 23  1  0  0  0  0
 22 25  1  0  0  0  0
 23 26  1  0  0  0  0
 23 34  2  0  0  0  0
 24 25  1  0  0  0  0
 24 26  1  0  0  0  0
 25 33  2  0  0  0  0
 26 27  1  0  0  0  0
 26 30  1  0  0  0  0
 27 28  1  0  0  0  0
 28 29  1  0  0  0  0
 29 30  1  0  0  0  0
M  END
