3193
 OpenBabel03021519512D

 18 19  0  0  1  0  0  0  0  0999 V2000
    7.3187    9.8236    0.0000 O   0  0  0  0  0  0  0  0  0  0  0  0
    2.1226    5.3236    0.0000 C   0  0  0  0  0  0  0  0  0  0  0  0
    0.8236    4.5736    0.0000 C   0  0  0  0  0  0  0  0  0  0  0  0
    3.4216    4.5736    0.0000 C   0  0  0  0  0  0  0  0  0  0  0  0
    3.4216    3.0736    0.0000 C   0  0  0  0  0  0  0  0  0  0  0  0
    0.8236    3.0736    0.0000 C   0  0  0  0  0  0  0  0  0  0  0  0
    2.1226    2.3236    0.0000 C   0  0  0  0  0  0  0  0  0  0  0  0
    8.6178   10.5736    0.0000 C   0  0  0  0  0  0  0  0  0  0  0  0
    9.9168    9.8236    0.0000 C   0  0  0  0  0  0  0  0  0  0  0  0
    9.9168    8.3236    0.0000 C   0  0  0  0  0  0  0  0  0  0  0  0
    8.6178    7.5736    0.0000 C   0  0  0  0  0  0  0  0  0  0  0  0
    7.3187    8.3236    0.0000 C   0  0  3  0  0  0  0  0  0  0  0  0
   -0.4755    2.3236    0.0000 N   0  0  0  0  0  0  0  0  0  0  0  0
    4.7207    5.3236    0.0000 S   0  0  0  0  0  0  0  0  0  0  0  0
    5.4707    4.0245    0.0000 O   0  0  0  0  0  0  0  0  0  0  0  0
    3.9707    6.6226    0.0000 O   0  0  0  0  0  0  0  0  0  0  0  0
    6.0197    6.0736    0.0000 N   0  0  0  0  0  0  0  0  0  0  0  0
    6.0197    7.5736    0.0000 C   0  0  0  0  0  0  0  0  0  0  0  0
  1  8  1  0  0  0  0
  1 12  1  0  0  0  0
  2  3  2  0  0  0  0
  2  4  1  0  0  0  0
  3  6  1  0  0  0  0
  4  5  2  0  0  0  0
  4 14  1  0  0  0  0
  5  7  1  0  0  0  0
  6  7  2  0  0  0  0
  6 13  1  0  0  0  0
  8  9  1  0  0  0  0
  9 10  1  0  0  0  0
 10 11  1  0  0  0  0
 11 12  1  0  0  0  0
 12 18  1  0  0  0  0
 14 15  2  0  0  0  0
 14 16  2  0  0  0  0
 14 17  1  0  0  0  0
 17 18  1  0  0  0  0
M  END
