201631
 OpenBabel03021519512D

 31 33  0  0  0  0  0  0  0  0999 V2000
   10.4722    0.8252    0.0000 S   0  0  0  0  0  0  0  0  0  0  0  0
   15.7397    0.9652    0.0000 C   0  0  0  0  0  0  0  0  0  0  0  0
   17.0387    0.2152    0.0000 C   0  0  0  0  0  0  0  0  0  0  0  0
   14.4406    0.2151    0.0000 C   0  0  0  0  0  0  0  0  0  0  0  0
   17.0387   -1.2848    0.0000 C   0  0  0  0  0  0  0  0  0  0  0  0
   14.4406   -1.2849    0.0000 C   0  0  0  0  0  0  0  0  0  0  0  0
   15.7397   -2.0349    0.0000 C   0  0  0  0  0  0  0  0  0  0  0  0
    8.2483    2.4511    0.0000 C   0  0  0  0  0  0  0  0  0  0  0  0
    7.6382    3.8215    0.0000 C   0  0  0  0  0  0  0  0  0  0  0  0
    7.3666    1.2376    0.0000 C   0  0  0  0  0  0  0  0  0  0  0  0
    5.8749    1.3944    0.0000 C   0  0  0  0  0  0  0  0  0  0  0  0
    6.1464    3.9782    0.0000 C   0  0  0  0  0  0  0  0  0  0  0  0
    5.2648    2.7647    0.0000 C   0  0  0  0  0  0  0  0  0  0  0  0
    9.4685   -0.2895    0.0000 C   0  0  0  0  0  0  0  0  0  0  0  0
   10.2186   -1.5885    0.0000 C   0  0  0  0  0  0  0  0  0  0  0  0
   11.6858   -1.2766    0.0000 C   0  0  0  0  0  0  0  0  0  0  0  0
   11.8426    0.2151    0.0000 C   0  0  0  0  0  0  0  0  0  0  0  0
    5.8079    7.9324    0.0000 C   0  0  0  0  0  0  0  0  0  0  0  0
    6.6895    9.1459    0.0000 C   0  0  0  0  0  0  0  0  0  0  0  0
    6.4180    6.5621    0.0000 O   0  0  0  0  0  0  0  0  0  0  0  0
    5.5363    5.3486    0.0000 C   0  0  0  0  0  0  0  0  0  0  0  0
    4.0445    5.5053    0.0000 O   0  0  0  0  0  0  0  0  0  0  0  0
    7.9768   -0.1327    0.0000 N   0  0  0  0  0  0  0  0  0  0  0  0
    9.6084   -2.9588    0.0000 C   0  0  0  0  0  0  0  0  0  0  0  0
    8.9983   -4.3292    0.0000 N   0  0  0  0  0  0  0  0  0  0  0  0
   12.8005   -2.2803    0.0000 N   0  0  0  0  0  0  0  0  0  0  0  0
   13.1416    0.9651    0.0000 C   0  0  0  0  0  0  0  0  0  0  0  0
   13.1416    2.4651    0.0000 O   0  0  0  0  0  0  0  0  0  0  0  0
   15.7397   -3.5349    0.0000 N   0  3  0  0  0  0  0  0  0  0  0  0
   14.4406   -4.2849    0.0000 O   0  5  0  0  0  0  0  0  0  0  0  0
   17.0387   -4.2848    0.0000 O   0  0  0  0  0  0  0  0  0  0  0  0
  1 14  1  0  0  0  0
  1 17  1  0  0  0  0
  2  3  2  0  0  0  0
  2  4  1  0  0  0  0
  3  5  1  0  0  0  0
  4  6  2  0  0  0  0
  4 27  1  0  0  0  0
  5  7  2  0  0  0  0
  6  7  1  0  0  0  0
  7 29  1  0  0  0  0
  8  9  2  0  0  0  0
  8 10  1  0  0  0  0
  9 12  1  0  0  0  0
 10 11  2  0  0  0  0
 10 23  1  0  0  0  0
 11 13  1  0  0  0  0
 12 13  2  0  0  0  0
 12 21  1  0  0  0  0
 14 15  2  0  0  0  0
 14 23  1  0  0  0  0
 15 16  1  0  0  0  0
 15 24  1  0  0  0  0
 16 17  2  0  0  0  0
 16 26  1  0  0  0  0
 17 27  1  0  0  0  0
 18 19  1  0  0  0  0
 18 20  1  0  0  0  0
 20 21  1  0  0  0  0
 21 22  2  0  0  0  0
 24 25  3  0  0  0  0
 27 28  2  0  0  0  0
 29 30  1  0  0  0  0
 29 31  2  0  0  0  0
M  CHG  2  29   1  30  -1
M  END
