326757
 OpenBabel03021519512D

 24 26  0  0  0  0  0  0  0  0999 V2000
    1.5000    2.0490    0.0000 C   0  0  0  0  0  0  0  0  0  0  0  0
    0.7500    3.3481    0.0000 C   0  0  0  0  0  0  0  0  0  0  0  0
    3.0000    2.0490    0.0000 C   0  0  0  0  0  0  0  0  0  0  0  0
    1.5000    4.6471    0.0000 C   0  0  0  0  0  0  0  0  0  0  0  0
    3.7500    3.3481    0.0000 C   0  0  0  0  0  0  0  0  0  0  0  0
    3.0000    4.6471    0.0000 C   0  0  0  0  0  0  0  0  0  0  0  0
    3.7500    5.9462    0.0000 C   0  0  0  0  0  0  0  0  0  0  0  0
    3.0000    7.2452    0.0000 O   0  0  0  0  0  0  0  0  0  0  0  0
    5.2500    5.9462    0.0000 C   0  0  0  0  0  0  0  0  0  0  0  0
    6.0000    4.6471    0.0000 C   0  0  0  0  0  0  0  0  0  0  0  0
    6.0000    7.2452    0.0000 C   0  0  0  0  0  0  0  0  0  0  0  0
    7.5000    7.2452    0.0000 C   0  0  0  0  0  0  0  0  0  0  0  0
    7.5000    4.6471    0.0000 C   0  0  0  0  0  0  0  0  0  0  0  0
    8.2500    5.9462    0.0000 C   0  0  0  0  0  0  0  0  0  0  0  0
   10.5000    7.2452    0.0000 O   0  0  0  0  0  0  0  0  0  0  0  0
    9.7500    5.9462    0.0000 C   0  0  0  0  0  0  0  0  0  0  0  0
   10.5000    4.6471    0.0000 C   0  0  0  0  0  0  0  0  0  0  0  0
    9.7500    3.3481    0.0000 C   0  0  0  0  0  0  0  0  0  0  0  0
   12.0000    4.6471    0.0000 C   0  0  0  0  0  0  0  0  0  0  0  0
   12.7500    3.3481    0.0000 C   0  0  0  0  0  0  0  0  0  0  0  0
   10.5000    2.0491    0.0000 C   0  0  0  0  0  0  0  0  0  0  0  0
   12.0000    2.0491    0.0000 C   0  0  0  0  0  0  0  0  0  0  0  0
    0.7500    0.7500    0.0000 O   0  0  0  0  0  0  0  0  0  0  0  0
   12.7500    0.7500    0.0000 O   0  0  0  0  0  0  0  0  0  0  0  0
  1  2  2  0  0  0  0
  1  3  1  0  0  0  0
  1 23  1  0  0  0  0
  2  4  1  0  0  0  0
  3  5  2  0  0  0  0
  4  6  2  0  0  0  0
  5  6  1  0  0  0  0
  6  7  1  0  0  0  0
  7  8  2  0  0  0  0
  7  9  1  0  0  0  0
  9 11  2  0  0  0  0
  9 10  1  0  0  0  0
 10 13  2  0  0  0  0
 11 12  1  0  0  0  0
 12 14  2  0  0  0  0
 13 14  1  0  0  0  0
 14 16  1  0  0  0  0
 15 16  2  0  0  0  0
 16 17  1  0  0  0  0
 17 19  2  0  0  0  0
 17 18  1  0  0  0  0
 18 21  2  0  0  0  0
 19 20  1  0  0  0  0
 20 22  2  0  0  0  0
 21 22  1  0  0  0  0
 22 24  1  0  0  0  0
M  END
