149050
 OpenBabel03021519512D

 23 26  0  0  0  0  0  0  0  0999 V2000
   -8.9538    3.0524    0.0000 N   0  0  0  0  0  0  0  0  0  0  0  0
   -6.0307   -1.0012    0.0000 N   0  0  0  0  0  0  0  0  0  0  0  0
   -4.7317    1.2488    0.0000 N   0  0  0  0  0  0  0  0  0  0  0  0
   -4.7317   -3.2512    0.0000 Cl  0  0  0  0  0  0  0  0  0  0  0  0
   -3.4327   -1.0012    0.0000 N   0  0  0  0  0  0  0  0  0  0  0  0
   -2.1336    1.2488    0.0000 Cl  0  0  0  0  0  0  0  0  0  0  0  0
  -10.7841    7.1634    0.0000 C   0  0  0  0  0  0  0  0  0  0  0  0
  -11.6658    5.9498    0.0000 C   0  0  0  0  0  0  0  0  0  0  0  0
   -9.2923    7.0066    0.0000 C   0  0  0  0  0  0  0  0  0  0  0  0
   -8.6822    5.6363    0.0000 C   0  0  0  0  0  0  0  0  0  0  0  0
  -11.0557    4.5795    0.0000 C   0  0  0  0  0  0  0  0  0  0  0  0
   -9.5639    4.4227    0.0000 C   0  0  0  0  0  0  0  0  0  0  0  0
  -11.1710    1.4415    0.0000 C   0  0  0  0  0  0  0  0  0  0  0  0
   -9.7038    1.7534    0.0000 C   0  0  0  0  0  0  0  0  0  0  0  0
  -11.6346    0.0149    0.0000 C   0  0  0  0  0  0  0  0  0  0  0  0
   -8.7001    0.6387    0.0000 C   0  0  0  0  0  0  0  0  0  0  0  0
  -10.6309   -1.0998    0.0000 C   0  0  0  0  0  0  0  0  0  0  0  0
   -7.3298    1.2488    0.0000 C   0  0  0  0  0  0  0  0  0  0  0  0
   -7.4866    2.7406    0.0000 C   0  0  0  0  0  0  0  0  0  0  0  0
   -6.0308    0.4988    0.0000 C   0  0  0  0  0  0  0  0  0  0  0  0
   -9.1636   -0.7879    0.0000 C   0  0  0  0  0  0  0  0  0  0  0  0
   -3.4327    0.4988    0.0000 C   0  0  0  0  0  0  0  0  0  0  0  0
   -4.7317   -1.7512    0.0000 C   0  0  0  0  0  0  0  0  0  0  0  0
  1 12  1  0  0  0  0
  1 14  1  0  0  0  0
  1 19  1  0  0  0  0
  2 20  2  0  0  0  0
  2 23  1  0  0  0  0
  3 22  2  0  0  0  0
  3 20  1  0  0  0  0
  4 23  1  0  0  0  0
  5 23  2  0  0  0  0
  5 22  1  0  0  0  0
  6 22  1  0  0  0  0
  7  9  2  0  0  0  0
  7  8  1  0  0  0  0
  8 11  2  0  0  0  0
  9 10  1  0  0  0  0
 10 12  2  0  0  0  0
 11 12  1  0  0  0  0
 13 15  2  0  0  0  0
 13 14  1  0  0  0  0
 14 16  2  0  0  0  0
 15 17  1  0  0  0  0
 16 18  1  0  0  0  0
 16 21  1  0  0  0  0
 17 21  2  0  0  0  0
 18 19  2  0  0  0  0
 18 20  1  0  0  0  0
M  END
