348970
 OpenBabel03021519512D

 19 20  0  0  0  0  0  0  0  0999 V2000
    0.7500    4.6471    0.0000 N   0  0  0  0  0  0  0  0  0  0  0  0
    1.5000    5.9461    0.0000 C   0  0  0  0  0  0  0  0  0  0  0  0
    1.5000    3.3481    0.0000 C   0  0  0  0  0  0  0  0  0  0  0  0
    3.0000    5.9461    0.0000 C   0  0  0  0  0  0  0  0  0  0  0  0
    3.0000    3.3481    0.0000 C   0  0  0  0  0  0  0  0  0  0  0  0
    3.7500    4.6471    0.0000 C   0  0  0  0  0  0  0  0  0  0  0  0
    5.2500    4.6471    0.0000 C   0  0  0  0  0  0  0  0  0  0  0  0
    6.0000    5.9461    0.0000 N   0  0  0  0  0  0  0  0  0  0  0  0
    6.0000    3.3481    0.0000 N   0  0  0  0  0  0  0  0  0  0  0  0
    7.5000    3.3481    0.0000 C   0  0  0  0  0  0  0  0  0  0  0  0
    7.5000    5.9461    0.0000 C   0  0  0  0  0  0  0  0  0  0  0  0
    8.2500    4.6471    0.0000 N   0  0  0  0  0  0  0  0  0  0  0  0
    8.2500    7.2452    0.0000 N   0  0  0  0  0  0  0  0  0  0  0  0
    8.2500    2.0490    0.0000 N   0  0  0  0  0  0  0  0  0  0  0  0
    9.7500    2.0490    0.0000 C   0  0  0  0  0  0  0  0  0  0  0  0
   10.5000    3.3481    0.0000 C   0  0  0  0  0  0  0  0  0  0  0  0
   10.5000    0.7500    0.0000 C   0  0  0  0  0  0  0  0  0  0  0  0
    9.7500    7.2452    0.0000 C   0  0  0  0  0  0  0  0  0  0  0  0
   10.5000    8.5442    0.0000 C   0  0  0  0  0  0  0  0  0  0  0  0
  1  2  1  0  0  0  0
  1  3  2  0  0  0  0
  2  4  2  0  0  0  0
  3  5  1  0  0  0  0
  4  6  1  0  0  0  0
  5  6  2  0  0  0  0
  6  7  1  0  0  0  0
  7  8  1  0  0  0  0
  7  9  2  0  0  0  0
  8 11  2  0  0  0  0
  9 10  1  0  0  0  0
 10 12  2  0  0  0  0
 10 14  1  0  0  0  0
 11 12  1  0  0  0  0
 11 13  1  0  0  0  0
 13 18  1  0  0  0  0
 14 15  1  0  0  0  0
 15 16  1  0  0  0  0
 15 17  1  0  0  0  0
 18 19  1  0  0  0  0
M  END
