338519
 OpenBabel03021519512D

 26 27  0  0  0  0  0  0  0  0999 V2000
    0.7500    2.0490    0.0000 F   0  0  0  0  0  0  0  0  0  0  0  0
    2.2500    4.6471    0.0000 C   0  0  0  0  0  0  0  0  0  0  0  0
    2.2500    2.0490    0.0000 C   0  0  0  0  0  0  0  0  0  0  0  0
    1.5000    0.7500    0.0000 F   0  0  0  0  0  0  0  0  0  0  0  0
    3.0000    5.9462    0.0000 C   0  0  0  0  0  0  0  0  0  0  0  0
    3.0000    3.3481    0.0000 C   0  0  0  0  0  0  0  0  0  0  0  0
    3.0000    0.7500    0.0000 F   0  0  0  0  0  0  0  0  0  0  0  0
    4.5000    3.3481    0.0000 C   0  0  0  0  0  0  0  0  0  0  0  0
    4.5000    5.9462    0.0000 C   0  0  0  0  0  0  0  0  0  0  0  0
    5.2500    4.6471    0.0000 C   0  0  0  0  0  0  0  0  0  0  0  0
    6.7500    4.6471    0.0000 C   0  0  0  0  0  0  0  0  0  0  0  0
    9.0000    3.3481    0.0000 C   0  0  0  0  0  0  0  0  0  0  0  0
    9.7500    2.0491    0.0000 C   0  0  0  0  0  0  0  0  0  0  0  0
    9.7500    4.6471    0.0000 C   0  0  0  0  0  0  0  0  0  0  0  0
   11.2500    2.0491    0.0000 C   0  0  0  0  0  0  0  0  0  0  0  0
   11.2500    4.6471    0.0000 C   0  0  0  0  0  0  0  0  0  0  0  0
   12.0000    3.3481    0.0000 C   0  0  0  0  0  0  0  0  0  0  0  0
   13.5000    3.3481    0.0000 N   0  0  0  0  0  0  0  0  0  0  0  0
    7.5000    5.9462    0.0000 C   0  0  0  0  0  0  0  0  0  0  0  0
    8.2500    7.2452    0.0000 N   0  0  0  0  0  0  0  0  0  0  0  0
    7.5000    3.3481    0.0000 C   0  0  0  0  0  0  0  0  0  0  0  0
   14.2500    4.6471    0.0000 C   0  0  0  0  0  0  0  0  0  0  0  0
   14.2500    2.0491    0.0000 C   0  0  0  0  0  0  0  0  0  0  0  0
   15.7500    2.0491    0.0000 C   0  0  0  0  0  0  0  0  0  0  0  0
   16.5000    3.3481    0.0000 C   0  0  0  0  0  0  0  0  0  0  0  0
   17.2500    4.6471    0.0000 N   0  0  0  0  0  0  0  0  0  0  0  0
  1  3  1  0  0  0  0
  2  5  2  0  0  0  0
  2  6  1  0  0  0  0
  3  6  1  0  0  0  0
  3  7  1  0  0  0  0
  3  4  1  0  0  0  0
  5  9  1  0  0  0  0
  6  8  2  0  0  0  0
  8 10  1  0  0  0  0
  9 10  2  0  0  0  0
 10 11  1  0  0  0  0
 11 19  1  0  0  0  0
 11 21  2  0  0  0  0
 12 14  1  0  0  0  0
 12 13  2  0  0  0  0
 12 21  1  0  0  0  0
 13 15  1  0  0  0  0
 14 16  2  0  0  0  0
 15 17  2  0  0  0  0
 16 17  1  0  0  0  0
 17 18  1  0  0  0  0
 18 22  1  0  0  0  0
 18 23  1  0  0  0  0
 19 20  3  0  0  0  0
 23 24  1  0  0  0  0
 24 25  1  0  0  0  0
 25 26  3  0  0  0  0
M  END
