31703
 OpenBabel03021519512D

 22 23  0  0  0  0  0  0  0  0999 V2000
    3.3481  -13.5000    0.0000 C   0  0  0  0  0  0  0  0  0  0  0  0
    4.6471  -14.2500    0.0000 C   0  0  0  0  0  0  0  0  0  0  0  0
    2.0491  -14.2500    0.0000 C   0  0  0  0  0  0  0  0  0  0  0  0
    4.6471  -15.7500    0.0000 C   0  0  0  0  0  0  0  0  0  0  0  0
    2.0491  -15.7500    0.0000 C   0  0  0  0  0  0  0  0  0  0  0  0
    3.3481  -16.5000    0.0000 C   0  0  0  0  0  0  0  0  0  0  0  0
   -3.1471  -11.2500    0.0000 C   0  0  0  0  0  0  0  0  0  0  0  0
   -1.8480  -12.0000    0.0000 C   0  0  0  0  0  0  0  0  0  0  0  0
   -4.4461  -12.0000    0.0000 C   0  0  0  0  0  0  0  0  0  0  0  0
   -1.8480  -13.5000    0.0000 C   0  0  0  0  0  0  0  0  0  0  0  0
   -4.4461  -13.5000    0.0000 C   0  0  0  0  0  0  0  0  0  0  0  0
   -3.1471  -14.2500    0.0000 C   0  0  0  0  0  0  0  0  0  0  0  0
   -8.3432  -14.2501    0.0000 O   0  0  0  0  0  0  0  0  0  0  0  0
   -9.6423  -13.5001    0.0000 C   0  0  0  0  0  0  0  0  0  0  0  0
  -10.9413  -14.2501    0.0000 C   0  0  0  0  0  0  0  0  0  0  0  0
   -7.0442  -13.5001    0.0000 C   0  0  0  0  0  0  0  0  0  0  0  0
   -7.0442  -12.0001    0.0000 O   0  0  0  0  0  0  0  0  0  0  0  0
   -5.7452  -14.2500    0.0000 N   0  0  0  0  0  0  0  0  0  0  0  0
   -0.5490  -11.2500    0.0000 C   0  0  0  0  0  0  0  0  0  0  0  0
   -0.5490   -9.7500    0.0000 O   0  0  0  0  0  0  0  0  0  0  0  0
    0.7500  -12.0000    0.0000 C   0  0  0  0  0  0  0  0  0  0  0  0
    0.7500  -13.5000    0.0000 C   0  0  0  0  0  0  0  0  0  0  0  0
  1  2  2  0  0  0  0
  1  3  1  0  0  0  0
  2  4  1  0  0  0  0
  3  5  2  0  0  0  0
  3 22  1  0  0  0  0
  4  6  2  0  0  0  0
  5  6  1  0  0  0  0
  7  8  2  0  0  0  0
  7  9  1  0  0  0  0
  8 10  1  0  0  0  0
  8 19  1  0  0  0  0
  9 11  2  0  0  0  0
 10 12  2  0  0  0  0
 11 12  1  0  0  0  0
 11 18  1  0  0  0  0
 13 14  1  0  0  0  0
 13 16  1  0  0  0  0
 14 15  1  0  0  0  0
 16 17  2  0  0  0  0
 16 18  1  0  0  0  0
 19 20  2  0  0  0  0
 19 21  1  0  0  0  0
 21 22  2  0  0  0  0
M  END
