11128
 OpenBabel03021519512D

 14 14  0  0  0  0  0  0  0  0999 V2000
    1.3201    1.6357    0.0000 N   0  0  0  0  0  0  0  0  0  0  0  0
    1.7836    0.2091    0.0000 N   0  0  0  0  0  0  0  0  0  0  0  0
    3.2836    0.2091    0.0000 N   0  0  0  0  0  0  0  0  0  0  0  0
    3.7471    1.6357    0.0000 N   0  0  0  0  0  0  0  0  0  0  0  0
    2.5336    2.5173    0.0000 C   0  0  0  0  0  0  0  0  0  0  0  0
    2.5336    4.0173    0.0000 N   0  0  0  0  0  0  0  0  0  0  0  0
    5.1737    2.0992    0.0000 C   0  0  0  0  0  0  0  0  0  0  0  0
    4.7102    3.5258    0.0000 C   0  0  0  0  0  0  0  0  0  0  0  0
    5.6372    0.6726    0.0000 C   0  0  0  0  0  0  0  0  0  0  0  0
    6.6003    2.5627    0.0000 C   0  0  0  0  0  0  0  0  0  0  0  0
    7.7150    1.5590    0.0000 C   0  0  0  0  0  0  0  0  0  0  0  0
    6.7113    0.4443    0.0000 C   0  0  0  0  0  0  0  0  0  0  0  0
    8.7187    2.6738    0.0000 C   0  0  0  0  0  0  0  0  0  0  0  0
    8.8297    0.5553    0.0000 C   0  0  0  0  0  0  0  0  0  0  0  0
  1  5  2  0  0  0  0
  1  2  1  0  0  0  0
  2  3  2  0  0  0  0
  3  4  1  0  0  0  0
  4  5  1  0  0  0  0
  4  7  1  0  0  0  0
  5  6  1  0  0  0  0
  7  8  1  0  0  0  0
  7  9  1  0  0  0  0
  7 10  1  0  0  0  0
 10 11  1  0  0  0  0
 11 12  1  0  0  0  0
 11 13  1  0  0  0  0
 11 14  1  0  0  0  0
M  END
