13658
 OpenBabel03021519512D

 19 20  0  0  0  0  0  0  0  0999 V2000
    0.3330    8.5677    0.0000 O   0  0  0  0  0  0  0  0  0  0  0  0
    2.2231   10.4578    0.0000 O   0  0  0  0  0  0  0  0  0  0  0  0
    1.7595    9.0312    0.0000 C   0  0  0  0  0  0  0  0  0  0  0  0
    2.9731    8.1495    0.0000 C   0  0  0  0  0  0  0  0  0  0  0  0
    4.1866    9.0312    0.0000 C   0  0  0  0  0  0  0  0  0  0  0  0
    3.7231   10.4578    0.0000 C   0  0  0  0  0  0  0  0  0  0  0  0
    4.2721    4.3995    0.0000 C   0  0  0  0  0  0  0  0  0  0  0  0
    4.2721    5.8995    0.0000 C   0  0  0  0  0  0  0  0  0  0  0  0
    5.5711    3.6495    0.0000 C   0  0  0  0  0  0  0  0  0  0  0  0
    5.5711    6.6495    0.0000 C   0  0  0  0  0  0  0  0  0  0  0  0
    6.8702    4.3995    0.0000 C   0  0  0  0  0  0  0  0  0  0  0  0
    6.8702    5.8995    0.0000 C   0  0  0  0  0  0  0  0  0  0  0  0
    5.5711    2.1495    0.0000 O   0  0  0  0  0  0  0  0  0  0  0  0
    6.8702    1.3995    0.0000 C   0  0  0  0  0  0  0  0  0  0  0  0
    8.1692    3.6495    0.0000 O   0  0  0  0  0  0  0  0  0  0  0  0
    8.1692    2.1495    0.0000 C   0  0  0  0  0  0  0  0  0  0  0  0
    8.1692    6.6495    0.0000 O   0  0  0  0  0  0  0  0  0  0  0  0
    9.4683    5.8995    0.0000 C   0  0  0  0  0  0  0  0  0  0  0  0
    2.9731    6.6495    0.0000 C   0  0  0  0  0  0  0  0  0  0  0  0
  1  3  2  0  0  0  0
  2  3  1  0  0  0  0
  2  6  1  0  0  0  0
  3  4  1  0  0  0  0
  4  5  1  0  0  0  0
  4 19  2  0  0  0  0
  5  6  1  0  0  0  0
  7  9  2  0  0  0  0
  7  8  1  0  0  0  0
  8 10  2  0  0  0  0
  8 19  1  0  0  0  0
  9 11  1  0  0  0  0
  9 13  1  0  0  0  0
 10 12  1  0  0  0  0
 11 12  2  0  0  0  0
 11 15  1  0  0  0  0
 12 17  1  0  0  0  0
 13 14  1  0  0  0  0
 15 16  1  0  0  0  0
 17 18  1  0  0  0  0
M  END
