337726
 OpenBabel03021519512D

 21 23  0  0  1  0  0  0  0  0999 V2000
    1.4481    9.6517    0.0000 C   0  0  0  0  0  0  0  0  0  0  0  0
    1.9116   11.0783    0.0000 C   0  0  0  0  0  0  0  0  0  0  0  0
    3.2548   12.5701    0.0000 O   0  0  0  0  0  0  0  0  0  0  0  0
    3.4116   11.0783    0.0000 S   0  0  0  0  0  0  0  0  0  0  0  0
    2.6616    8.7700    0.0000 C   0  0  3  0  0  0  0  0  0  0  0  0
    3.8751    9.6517    0.0000 C   0  0  0  0  0  0  0  0  0  0  0  0
    4.8788   11.3902    0.0000 O   0  0  0  0  0  0  0  0  0  0  0  0
    2.6616    7.2700    0.0000 N   0  0  0  0  0  0  0  0  0  0  0  0
    1.6974    6.1210    0.0000 N   0  0  0  0  0  0  0  0  0  0  0  0
    1.2463    3.5623    0.0000 C   0  0  0  0  0  0  0  0  0  0  0  0
   -0.2501    3.6670    0.0000 C   0  0  0  0  0  0  0  0  0  0  0  0
    1.6092    2.1069    0.0000 O   0  0  0  0  0  0  0  0  0  0  0  0
    0.3371    1.3120    0.0000 C   0  0  0  0  0  0  0  0  0  0  0  0
   -0.8120    2.2762    0.0000 C   0  0  0  0  0  0  0  0  0  0  0  0
    3.9607    6.5200    0.0000 C   0  0  0  0  0  0  0  0  0  0  0  0
    5.2597    7.2700    0.0000 C   0  0  0  0  0  0  0  0  0  0  0  0
    6.5587    6.5200    0.0000 C   0  0  0  0  0  0  0  0  0  0  0  0
    6.5587    5.0200    0.0000 C   0  0  0  0  0  0  0  0  0  0  0  0
    5.2597    4.2700    0.0000 C   0  0  0  0  0  0  0  0  0  0  0  0
    3.9607    5.0200    0.0000 C   0  0  0  0  0  0  0  0  0  0  0  0
    2.2105    4.7114    0.0000 C   0  0  0  0  0  0  0  0  0  0  0  0
  1  5  1  0  0  0  0
  1  2  1  0  0  0  0
  2  4  1  0  0  0  0
  3  4  2  0  0  0  0
  4  6  1  0  0  0  0
  4  7  2  0  0  0  0
  5  8  1  0  0  0  0
  5  6  1  0  0  0  0
  8  9  1  0  0  0  0
  8 15  1  0  0  0  0
  9 21  2  0  0  0  0
 10 11  2  0  0  0  0
 10 12  1  0  0  0  0
 10 21  1  0  0  0  0
 11 14  1  0  0  0  0
 12 13  1  0  0  0  0
 13 14  2  0  0  0  0
 15 16  2  0  0  0  0
 15 20  1  0  0  0  0
 16 17  1  0  0  0  0
 17 18  2  0  0  0  0
 18 19  1  0  0  0  0
 19 20  2  0  0  0  0
M  END
