57318
 OpenBabel03021519512D

 16 16  0  0  0  0  0  0  0  0999 V2000
    0.5912    1.6910    0.0000 C   0  0  0  0  0  0  0  0  0  0  0  0
   -0.7135    0.9510    0.0000 C   0  0  0  0  0  0  0  0  0  0  0  0
    1.6982    0.6788    0.0000 C   0  0  0  0  0  0  0  0  0  0  0  0
   -0.4129   -0.5186    0.0000 C   0  0  0  0  0  0  0  0  0  0  0  0
   -3.2994    0.6991    0.0000 O   0  0  0  0  0  0  0  0  0  0  0  0
   -2.2246    3.0645    0.0000 O   0  0  0  0  0  0  0  0  0  0  0  0
   -2.0792    1.5715    0.0000 C   0  0  0  0  0  0  0  0  0  0  0  0
    1.0776   -0.6868    0.0000 N   0  0  0  0  0  0  0  0  0  0  0  0
    3.1678    0.9795    0.0000 O   0  0  0  0  0  0  0  0  0  0  0  0
   -4.6650    1.3197    0.0000 C   0  0  0  0  0  0  0  0  0  0  0  0
   -4.8104    2.8126    0.0000 C   0  0  0  0  0  0  0  0  0  0  0  0
   -1.4251   -1.6256    0.0000 C   0  0  0  0  0  0  0  0  0  0  0  0
    1.8177   -1.9915    0.0000 C   0  0  0  0  0  0  0  0  0  0  0  0
    3.2969   -1.7423    0.0000 C   0  0  0  0  0  0  0  0  0  0  0  0
    4.2522   -2.8987    0.0000 C   0  0  0  0  0  0  0  0  0  0  0  0
    3.7285   -4.3043    0.0000 C   0  0  0  0  0  0  0  0  0  0  0  0
  1  2  1  0  0  0  0
  1  3  1  0  0  0  0
  2  7  1  0  0  0  0
  2  4  2  0  0  0  0
  3  9  2  0  0  0  0
  3  8  1  0  0  0  0
  4  8  1  0  0  0  0
  4 12  1  0  0  0  0
  5  7  1  0  0  0  0
  5 10  1  0  0  0  0
  6  7  2  0  0  0  0
  8 13  1  0  0  0  0
 10 11  1  0  0  0  0
 13 14  1  0  0  0  0
 14 15  1  0  0  0  0
 15 16  1  0  0  0  0
M  END
