173969
 OpenBabel03021519512D

 12 13  0  0  0  0  0  0  0  0999 V2000
   -2.0304    1.3151    0.0000 N   0  0  0  0  0  0  0  0  0  0  0  0
    0.6882    1.6618    0.0000 N   0  0  0  0  0  0  0  0  0  0  0  0
    0.8119    3.1567    0.0000 H   0  0  0  0  0  0  0  0  0  0  0  0
    3.5234   -1.9494    0.0000 O   0  0  0  0  0  0  0  0  0  0  0  0
    1.8248    0.6830    0.0000 C   0  0  0  0  0  0  0  0  0  0  0  0
    1.2452   -0.7005    0.0000 C   0  0  0  0  0  0  0  0  0  0  0  0
   -0.2497   -0.5767    0.0000 C   0  0  0  0  0  0  0  0  0  0  0  0
   -0.5940    0.8833    0.0000 C   0  0  0  0  0  0  0  0  0  0  0  0
   -1.3420   -1.6048    0.0000 C   0  0  0  0  0  0  0  0  0  0  0  0
   -2.7784   -1.1729    0.0000 C   0  0  0  0  0  0  0  0  0  0  0  0
   -3.1227    0.2870    0.0000 C   0  0  0  0  0  0  0  0  0  0  0  0
    2.0237   -1.9826    0.0000 C   0  0  0  0  0  0  0  0  0  0  0  0
  1 11  2  0  0  0  0
  1  8  1  0  0  0  0
  2  5  1  0  0  0  0
  2  8  1  0  0  0  0
  2  3  1  0  0  0  0
  4 12  2  0  0  0  0
  5  6  2  0  0  0  0
  6  7  1  0  0  0  0
  6 12  1  0  0  0  0
  7  8  2  0  0  0  0
  7  9  1  0  0  0  0
  9 10  2  0  0  0  0
 10 11  1  0  0  0  0
M  END
