10995
 OpenBabel03021519512D

 13 14  0  0  0  0  0  0  0  0999 V2000
   -4.3573    0.7500    0.0000 Br  0  0  0  0  0  0  0  0  0  0  0  0
   -1.1682    6.3901    0.0000 O   0  0  0  0  0  0  0  0  0  0  0  0
   -1.6317    4.9635    0.0000 C   0  0  0  0  0  0  0  0  0  0  0  0
   -0.7500    3.7500    0.0000 C   0  0  0  0  0  0  0  0  0  0  0  0
   -3.0583    4.5000    0.0000 C   0  0  0  0  0  0  0  0  0  0  0  0
   -4.3573    5.2500    0.0000 C   0  0  0  0  0  0  0  0  0  0  0  0
   -5.6563    4.5000    0.0000 C   0  0  0  0  0  0  0  0  0  0  0  0
   -1.6317    2.5365    0.0000 C   0  0  0  0  0  0  0  0  0  0  0  0
   -3.0583    3.0000    0.0000 C   0  0  0  0  0  0  0  0  0  0  0  0
   -5.6563    3.0000    0.0000 C   0  0  0  0  0  0  0  0  0  0  0  0
   -4.3573    2.2500    0.0000 C   0  0  0  0  0  0  0  0  0  0  0  0
   -4.3573    6.7500    0.0000 O   0  0  0  0  0  0  0  0  0  0  0  0
   -5.6564    7.5000    0.0000 C   0  0  0  0  0  0  0  0  0  0  0  0
  1 11  1  0  0  0  0
  2  3  2  0  0  0  0
  3  4  1  0  0  0  0
  3  5  1  0  0  0  0
  4  8  1  0  0  0  0
  5  9  2  0  0  0  0
  5  6  1  0  0  0  0
  6  7  2  0  0  0  0
  6 12  1  0  0  0  0
  7 10  1  0  0  0  0
  8  9  1  0  0  0  0
  9 11  1  0  0  0  0
 10 11  2  0  0  0  0
 12 13  1  0  0  0  0
M  END
