29471
 OpenBabel03021519512D

 14 14  0  0  0  0  0  0  0  0999 V2000
   -7.2452   -5.2500    0.0000 Cl  0  0  0  0  0  0  0  0  0  0  0  0
   -7.2452   -0.7500    0.0000 C   0  0  0  0  0  0  0  0  0  0  0  0
   -8.5442   -1.5000    0.0000 C   0  0  0  0  0  0  0  0  0  0  0  0
   -5.9462   -1.5000    0.0000 C   0  0  0  0  0  0  0  0  0  0  0  0
   -5.9462   -3.0000    0.0000 C   0  0  0  0  0  0  0  0  0  0  0  0
   -8.5442   -3.0000    0.0000 C   0  0  0  0  0  0  0  0  0  0  0  0
   -7.2452   -3.7500    0.0000 C   0  0  0  0  0  0  0  0  0  0  0  0
   -4.6471   -0.7500    0.0000 N   0  0  0  0  0  0  0  0  0  0  0  0
   -3.3481   -1.5000    0.0000 C   0  0  0  0  0  0  0  0  0  0  0  0
   -2.0490   -0.7500    0.0000 O   0  0  0  0  0  0  0  0  0  0  0  0
   -3.3481   -3.0000    0.0000 N   0  0  0  0  0  0  0  0  0  0  0  0
   -2.0490   -3.7500    0.0000 C   0  0  0  0  0  0  0  0  0  0  0  0
   -0.7500   -3.0000    0.0000 C   0  0  0  0  0  0  0  0  0  0  0  0
   -2.0490   -5.2500    0.0000 C   0  0  0  0  0  0  0  0  0  0  0  0
  1  7  1  0  0  0  0
  2  3  2  0  0  0  0
  2  4  1  0  0  0  0
  3  6  1  0  0  0  0
  4  5  2  0  0  0  0
  4  8  1  0  0  0  0
  5  7  1  0  0  0  0
  6  7  2  0  0  0  0
  8  9  1  0  0  0  0
  9 10  2  0  0  0  0
  9 11  1  0  0  0  0
 11 12  1  0  0  0  0
 12 13  1  0  0  0  0
 12 14  1  0  0  0  0
M  END
