294625
 OpenBabel03021519512D

 21 22  0  0  0  0  0  0  0  0999 V2000
    0.6495    5.5711    0.0000 C   0  0  0  0  0  0  0  0  0  0  0  0
    1.3995    6.8702    0.0000 C   0  0  0  0  0  0  0  0  0  0  0  0
    1.3995    4.2721    0.0000 C   0  0  0  0  0  0  0  0  0  0  0  0
    2.8995    4.2721    0.0000 C   0  0  0  0  0  0  0  0  0  0  0  0
    2.8995    6.8702    0.0000 C   0  0  0  0  0  0  0  0  0  0  0  0
    3.6495    5.5711    0.0000 C   0  0  0  0  0  0  0  0  0  0  0  0
    5.1495    5.5712    0.0000 C   0  0  0  0  0  0  0  0  0  0  0  0
    5.8995    4.2721    0.0000 O   0  0  0  0  0  0  0  0  0  0  0  0
    7.3995    6.8702    0.0000 C   0  0  0  0  0  0  0  0  0  0  0  0
    8.1495    5.5712    0.0000 N   0  0  0  0  0  0  0  0  0  0  0  0
    7.5394    4.2008    0.0000 N   0  0  0  0  0  0  0  0  0  0  0  0
    9.6413    5.4144    0.0000 C   0  0  0  0  0  0  0  0  0  0  0  0
    8.6542    3.1972    0.0000 C   0  0  0  0  0  0  0  0  0  0  0  0
    9.9532    3.9472    0.0000 C   0  0  0  0  0  0  0  0  0  0  0  0
   -0.8505    5.5711    0.0000 N   0  3  0  0  0  0  0  0  0  0  0  0
   -1.6005    6.8702    0.0000 O   0  5  0  0  0  0  0  0  0  0  0  0
   -1.6005    4.2721    0.0000 O   0  0  0  0  0  0  0  0  0  0  0  0
    5.8995    6.8702    0.0000 N   0  0  0  0  0  0  0  0  0  0  0  0
    8.1495    8.1692    0.0000 N   0  0  0  0  0  0  0  0  0  0  0  0
   10.6450    6.5291    0.0000 C   0  0  0  0  0  0  0  0  0  0  0  0
    8.4974    1.7054    0.0000 C   0  0  0  0  0  0  0  0  0  0  0  0
  1  2  2  0  0  0  0
  1  3  1  0  0  0  0
  1 15  1  0  0  0  0
  2  5  1  0  0  0  0
  3  4  2  0  0  0  0
  4  6  1  0  0  0  0
  5  6  2  0  0  0  0
  6  7  1  0  0  0  0
  7  8  2  0  0  0  0
  7 18  1  0  0  0  0
  9 10  1  0  0  0  0
  9 18  1  0  0  0  0
  9 19  2  0  0  0  0
 10 11  1  0  0  0  0
 10 12  1  0  0  0  0
 11 13  2  0  0  0  0
 12 14  2  0  0  0  0
 12 20  1  0  0  0  0
 13 14  1  0  0  0  0
 13 21  1  0  0  0  0
 15 16  1  0  0  0  0
 15 17  2  0  0  0  0
M  CHG  2  15   1  16  -1
M  END
