88962
 OpenBabel03021519512D

 15 16  0  0  0  0  0  0  0  0999 V2000
   -1.6317   -1.0365    0.0000 O   0  0  0  0  0  0  0  0  0  0  0  0
   -1.1681   -4.8901    0.0000 O   0  0  0  0  0  0  0  0  0  0  0  0
   -4.3573   -0.7500    0.0000 C   0  0  0  0  0  0  0  0  0  0  0  0
   -3.0583   -1.5000    0.0000 C   0  0  0  0  0  0  0  0  0  0  0  0
   -5.6563   -1.5000    0.0000 C   0  0  0  0  0  0  0  0  0  0  0  0
   -3.0583   -3.0000    0.0000 C   0  0  0  0  0  0  0  0  0  0  0  0
   -5.6563   -3.0000    0.0000 C   0  0  0  0  0  0  0  0  0  0  0  0
   -4.3573   -3.7500    0.0000 C   0  0  0  0  0  0  0  0  0  0  0  0
   -1.6317   -3.4635    0.0000 C   0  0  0  0  0  0  0  0  0  0  0  0
   -0.7500   -2.2500    0.0000 C   0  0  0  0  0  0  0  0  0  0  0  0
   -6.9554   -0.7500    0.0000 O   0  0  0  0  0  0  0  0  0  0  0  0
   -8.2544   -1.5000    0.0000 C   0  0  0  0  0  0  0  0  0  0  0  0
   -6.9554   -3.7500    0.0000 O   0  0  0  0  0  0  0  0  0  0  0  0
   -4.3573   -5.2500    0.0000 O   0  0  0  0  0  0  0  0  0  0  0  0
   -5.6563   -6.0000    0.0000 C   0  0  0  0  0  0  0  0  0  0  0  0
  1  4  1  0  0  0  0
  1 10  1  0  0  0  0
  2  9  2  0  0  0  0
  3  5  2  0  0  0  0
  3  4  1  0  0  0  0
  4  6  2  0  0  0  0
  5  7  1  0  0  0  0
  5 11  1  0  0  0  0
  6  8  1  0  0  0  0
  6  9  1  0  0  0  0
  7  8  2  0  0  0  0
  7 13  1  0  0  0  0
  8 14  1  0  0  0  0
  9 10  1  0  0  0  0
 11 12  1  0  0  0  0
 14 15  1  0  0  0  0
M  END
