129220
 OpenBabel03021519512D

 20 21  0  0  1  0  0  0  0  0999 V2000
   -0.0073   -1.8007    0.0000 O   0  0  0  0  0  0  0  0  0  0  0  0
   -2.1797   -1.7471    0.0000 O   0  0  0  0  0  0  0  0  0  0  0  0
   -0.6885    0.5524    0.0000 N   0  0  0  0  0  0  0  0  0  0  0  0
    0.2441   -1.8726    0.0000 N   0  0  0  0  0  0  0  0  0  0  0  0
    0.7115    1.0908    0.0000 C   0  0  0  0  0  0  0  0  0  0  0  0
    1.8778    0.1476    0.0000 C   0  0  0  0  0  0  0  0  0  0  0  0
    1.6441   -1.3341    0.0000 C   0  0  0  0  0  0  0  0  0  0  0  0
   -0.9222   -0.9293    0.0000 C   0  0  0  0  0  0  0  0  0  0  0  0
   -0.2925   -3.2733    0.0000 C   0  0  3  0  0  0  0  0  0  0  0  0
   -1.7905   -3.1958    0.0000 C   0  0  3  0  0  0  0  0  0  0  0  0
   -2.4160   -2.0980    0.0000 C   0  0  3  0  0  0  0  0  0  0  0  0
   -1.3197   -1.0743    0.0000 C   0  0  3  0  0  0  0  0  0  0  0  0
   -2.8846    0.9996    0.0000 O   0  0  0  0  0  0  0  0  0  0  0  0
   -3.8990   -1.8726    0.0000 O   0  0  0  0  0  0  0  0  0  0  0  0
   -1.5034    0.4144    0.0000 C   0  0  0  0  0  0  0  0  0  0  0  0
    0.9452    2.5725    0.0000 N   0  0  0  0  0  0  0  0  0  0  0  0
    3.1997    1.8572    0.0000 C   0  0  0  0  0  0  0  0  0  0  0  0
    3.1202    3.3551    0.0000 C   0  0  0  0  0  0  0  0  0  0  0  0
    1.7832    4.0352    0.0000 O   0  0  0  0  0  0  0  0  0  0  0  0
    4.3777    4.1729    0.0000 O   0  0  0  0  0  0  0  0  0  0  0  0
  1  9  1  0  0  0  0
  1 12  1  0  0  0  0
  2  8  1  0  0  0  0
  2 10  1  0  0  0  0
  3  8  2  0  0  0  0
  3  5  1  0  0  0  0
  4  7  1  0  0  0  0
  4  8  1  0  0  0  0
  4  9  1  0  0  0  0
  5  6  1  0  0  0  0
  5 16  2  0  0  0  0
  6  7  2  0  0  0  0
  9 10  1  0  0  0  0
 10 11  1  0  0  0  0
 11 12  1  0  0  0  0
 11 14  1  0  0  0  0
 12 15  1  0  0  0  0
 13 15  1  0  0  0  0
 17 18  1  0  0  0  0
 18 19  2  0  0  0  0
 18 20  1  0  0  0  0
M  END
