215585
 OpenBabel03021519512D

 18 19  0  0  0  0  0  0  0  0999 V2000
   -3.6069  -13.7474    0.0000 Cl  0  0  0  0  0  0  0  0  0  0  0  0
   -0.9233   -4.6157    0.0000 N   0  0  0  0  0  0  0  0  0  0  0  0
   -0.4598   -3.1891    0.0000 O   0  0  0  0  0  0  0  0  0  0  0  0
   -3.6069   -9.2474    0.0000 C   0  0  0  0  0  0  0  0  0  0  0  0
   -2.3079   -9.9974    0.0000 C   0  0  0  0  0  0  0  0  0  0  0  0
   -4.9060   -9.9974    0.0000 C   0  0  0  0  0  0  0  0  0  0  0  0
   -4.9060  -11.4974    0.0000 C   0  0  0  0  0  0  0  0  0  0  0  0
   -2.3079  -11.4974    0.0000 C   0  0  0  0  0  0  0  0  0  0  0  0
   -3.6069  -12.2474    0.0000 C   0  0  0  0  0  0  0  0  0  0  0  0
    0.2902   -5.4974    0.0000 C   0  0  0  0  0  0  0  0  0  0  0  0
    1.5037   -4.6157    0.0000 C   0  0  0  0  0  0  0  0  0  0  0  0
    1.0402   -3.1891    0.0000 C   0  0  0  0  0  0  0  0  0  0  0  0
   -3.6069   -7.7474    0.0000 C   0  0  0  0  0  0  0  0  0  0  0  0
   -1.0088   -9.2474    0.0000 N   0  0  0  0  0  0  0  0  0  0  0  0
   -1.0089   -7.7474    0.0000 C   0  0  0  0  0  0  0  0  0  0  0  0
   -2.3079   -6.9974    0.0000 O   0  0  0  0  0  0  0  0  0  0  0  0
    0.2902   -6.9974    0.0000 N   0  0  0  0  0  0  0  0  0  0  0  0
    1.9219   -1.9756    0.0000 C   0  0  0  0  0  0  0  0  0  0  0  0
  1  9  1  0  0  0  0
  2  3  1  0  0  0  0
  2 10  2  0  0  0  0
  3 12  1  0  0  0  0
  4  5  2  0  0  0  0
  4  6  1  0  0  0  0
  4 13  1  0  0  0  0
  5  8  1  0  0  0  0
  5 14  1  0  0  0  0
  6  7  2  0  0  0  0
  7  9  1  0  0  0  0
  8  9  2  0  0  0  0
 10 11  1  0  0  0  0
 10 17  1  0  0  0  0
 11 12  2  0  0  0  0
 12 18  1  0  0  0  0
 14 15  1  0  0  0  0
 15 16  2  0  0  0  0
 15 17  1  0  0  0  0
M  END
