56779
 OpenBabel03021519512D

 22 23  0  0  0  0  0  0  0  0999 V2000
  -10.2956    3.4309    0.0000 N   0  0  0  0  0  0  0  0  0  0  0  0
   -9.1809    4.4345    0.0000 H   0  0  0  0  0  0  0  0  0  0  0  0
  -11.5091    1.3290    0.0000 N   0  0  0  0  0  0  0  0  0  0  0  0
   -4.9426    1.9391    0.0000 C   0  0  0  0  0  0  0  0  0  0  0  0
   -6.2417    1.1891    0.0000 C   0  0  0  0  0  0  0  0  0  0  0  0
   -3.6436    1.1891    0.0000 C   0  0  0  0  0  0  0  0  0  0  0  0
   -3.6436   -0.3109    0.0000 C   0  0  0  0  0  0  0  0  0  0  0  0
   -6.2417   -0.3109    0.0000 C   0  0  0  0  0  0  0  0  0  0  0  0
   -4.9426   -1.0609    0.0000 C   0  0  0  0  0  0  0  0  0  0  0  0
  -12.5128    5.0418    0.0000 C   0  0  0  0  0  0  0  0  0  0  0  0
  -14.0128    5.0418    0.0000 C   0  0  0  0  0  0  0  0  0  0  0  0
  -11.7628    3.7427    0.0000 C   0  0  0  0  0  0  0  0  0  0  0  0
  -12.5128    2.4437    0.0000 C   0  0  0  0  0  0  0  0  0  0  0  0
  -14.7628    3.7427    0.0000 C   0  0  0  0  0  0  0  0  0  0  0  0
  -14.0128    2.4437    0.0000 C   0  0  0  0  0  0  0  0  0  0  0  0
  -10.1388    1.9391    0.0000 C   0  0  0  0  0  0  0  0  0  0  0  0
   -9.8662   -1.6824    0.0000 Cl  0  0  0  0  0  0  0  0  0  0  0  0
   -8.8398    1.1891    0.0000 C   0  0  0  0  0  0  0  0  0  0  0  0
   -7.5407    1.9391    0.0000 N   0  0  0  0  0  0  0  0  0  0  0  0
   -2.3446   -1.0609    0.0000 C   0  0  0  0  0  0  0  0  0  0  0  0
   -1.0455   -0.3109    0.0000 O   0  0  0  0  0  0  0  0  0  0  0  0
   -2.3446   -2.5609    0.0000 O   0  0  0  0  0  0  0  0  0  0  0  0
  1 12  1  0  0  0  0
  1 16  1  0  0  0  0
  1  2  1  0  0  0  0
  3 16  2  0  0  0  0
  3 13  1  0  0  0  0
  4  6  2  0  0  0  0
  4  5  1  0  0  0  0
  5  8  2  0  0  0  0
  5 19  1  0  0  0  0
  6  7  1  0  0  0  0
  7  9  2  0  0  0  0
  7 20  1  0  0  0  0
  8  9  1  0  0  0  0
 10 11  2  0  0  0  0
 10 12  1  0  0  0  0
 11 14  1  0  0  0  0
 12 13  2  0  0  0  0
 13 15  1  0  0  0  0
 14 15  2  0  0  0  0
 16 18  1  0  0  0  0
 18 19  1  0  0  0  0
 20 21  2  0  0  0  0
 20 22  1  0  0  0  0
M  END
