63680
 OpenBabel03021519512D

 30 33  0  0  0  0  0  0  0  0999 V2000
   -4.2721  -13.3995    0.0000 H   0  0  0  0  0  0  0  0  0  0  0  0
   -4.2721  -14.8995    0.0000 N   0  0  0  0  0  0  0  0  0  0  0  0
   -2.9730  -17.1495    0.0000 N   0  0  0  0  0  0  0  0  0  0  0  0
    2.2231   -3.6495    0.0000 N   0  0  0  0  0  0  0  0  0  0  0  0
   -0.3750   -3.6495    0.0000 N   0  0  0  0  0  0  0  0  0  0  0  0
   -1.6740   -4.3995    0.0000 H   0  0  0  0  0  0  0  0  0  0  0  0
   -0.3750   -6.6495    0.0000 C   0  0  0  0  0  0  0  0  0  0  0  0
    0.9240   -5.8995    0.0000 C   0  0  0  0  0  0  0  0  0  0  0  0
   -0.3750   -8.1495    0.0000 C   0  0  0  0  0  0  0  0  0  0  0  0
    2.2231   -6.6495    0.0000 C   0  0  0  0  0  0  0  0  0  0  0  0
    0.9240   -4.3995    0.0000 C   0  0  0  0  0  0  0  0  0  0  0  0
    0.9241   -8.8995    0.0000 C   0  0  0  0  0  0  0  0  0  0  0  0
    2.2231   -8.1495    0.0000 C   0  0  0  0  0  0  0  0  0  0  0  0
   -0.3750   -2.1495    0.0000 C   0  0  0  0  0  0  0  0  0  0  0  0
    0.9240   -1.3995    0.0000 C   0  0  0  0  0  0  0  0  0  0  0  0
    2.2231   -2.1495    0.0000 C   0  0  0  0  0  0  0  0  0  0  0  0
   -0.3750  -12.6495    0.0000 C   0  0  0  0  0  0  0  0  0  0  0  0
    0.9241  -13.3995    0.0000 C   0  0  0  0  0  0  0  0  0  0  0  0
   -1.6740  -13.3995    0.0000 C   0  0  0  0  0  0  0  0  0  0  0  0
    0.9241  -14.8995    0.0000 C   0  0  0  0  0  0  0  0  0  0  0  0
   -1.6740  -14.8995    0.0000 C   0  0  0  0  0  0  0  0  0  0  0  0
   -0.3750  -15.6495    0.0000 C   0  0  0  0  0  0  0  0  0  0  0  0
   -2.9730  -15.6495    0.0000 C   0  0  0  0  0  0  0  0  0  0  0  0
   -5.5711  -15.6495    0.0000 C   0  0  0  0  0  0  0  0  0  0  0  0
   -5.5711  -17.1495    0.0000 C   0  0  0  0  0  0  0  0  0  0  0  0
   -4.2721  -17.8995    0.0000 C   0  0  0  0  0  0  0  0  0  0  0  0
    2.2231  -12.6495    0.0000 N   0  0  0  0  0  0  0  0  0  0  0  0
    2.2231  -11.1495    0.0000 C   0  0  0  0  0  0  0  0  0  0  0  0
    3.5221  -10.3995    0.0000 O   0  0  0  0  0  0  0  0  0  0  0  0
    0.9241  -10.3995    0.0000 N   0  0  0  0  0  0  0  0  0  0  0  0
  1  2  1  0  0  0  0
  2 23  1  0  0  0  0
  2 24  1  0  0  0  0
  3 23  2  0  0  0  0
  3 26  1  0  0  0  0
  4 11  2  0  0  0  0
  4 16  1  0  0  0  0
  5 11  1  0  0  0  0
  5 14  1  0  0  0  0
  5  6  1  0  0  0  0
  7  9  2  0  0  0  0
  7  8  1  0  0  0  0
  8 10  2  0  0  0  0
  8 11  1  0  0  0  0
  9 12  1  0  0  0  0
 10 13  1  0  0  0  0
 12 13  2  0  0  0  0
 12 30  1  0  0  0  0
 14 15  1  0  0  0  0
 15 16  1  0  0  0  0
 17 19  2  0  0  0  0
 17 18  1  0  0  0  0
 18 20  2  0  0  0  0
 18 27  1  0  0  0  0
 19 21  1  0  0  0  0
 20 22  1  0  0  0  0
 21 22  2  0  0  0  0
 21 23  1  0  0  0  0
 24 25  1  0  0  0  0
 25 26  1  0  0  0  0
 27 28  1  0  0  0  0
 28 29  2  0  0  0  0
 28 30  1  0  0  0  0
M  END
