51331
 OpenBabel03021519512D

 17 19  0  0  0  0  0  0  0  0999 V2000
   -6.8702    3.1005    0.0000 N   0  0  0  0  0  0  0  0  0  0  0  0
   -6.8702   -1.3995    0.0000 S   0  0  0  0  0  0  0  0  0  0  0  0
   -5.5712    0.8505    0.0000 N   0  0  0  0  0  0  0  0  0  0  0  0
   -9.4683    3.1005    0.0000 C   0  0  0  0  0  0  0  0  0  0  0  0
   -8.1692    2.3505    0.0000 C   0  0  0  0  0  0  0  0  0  0  0  0
  -10.7673    2.3505    0.0000 C   0  0  0  0  0  0  0  0  0  0  0  0
   -8.1692    0.8505    0.0000 C   0  0  0  0  0  0  0  0  0  0  0  0
  -10.7673    0.8505    0.0000 C   0  0  0  0  0  0  0  0  0  0  0  0
   -9.4683    0.1005    0.0000 C   0  0  0  0  0  0  0  0  0  0  0  0
   -6.8702    0.1005    0.0000 C   0  0  0  0  0  0  0  0  0  0  0  0
   -5.5712    2.3505    0.0000 C   0  0  0  0  0  0  0  0  0  0  0  0
   -5.5712   -2.1495    0.0000 C   0  0  0  0  0  0  0  0  0  0  0  0
   -5.5712   -3.6495    0.0000 C   0  0  0  0  0  0  0  0  0  0  0  0
   -4.2721   -1.3995    0.0000 C   0  0  0  0  0  0  0  0  0  0  0  0
   -2.9731   -2.1495    0.0000 C   0  0  0  0  0  0  0  0  0  0  0  0
   -4.2721   -4.3995    0.0000 C   0  0  0  0  0  0  0  0  0  0  0  0
   -2.9731   -3.6495    0.0000 C   0  0  0  0  0  0  0  0  0  0  0  0
  1 11  2  0  0  0  0
  1  5  1  0  0  0  0
  2 10  1  0  0  0  0
  2 12  1  0  0  0  0
  3 10  2  0  0  0  0
  3 11  1  0  0  0  0
  4  6  2  0  0  0  0
  4  5  1  0  0  0  0
  5  7  2  0  0  0  0
  6  8  1  0  0  0  0
  7  9  1  0  0  0  0
  7 10  1  0  0  0  0
  8  9  2  0  0  0  0
 12 14  2  0  0  0  0
 12 13  1  0  0  0  0
 13 16  2  0  0  0  0
 14 15  1  0  0  0  0
 15 17  2  0  0  0  0
 16 17  1  0  0  0  0
M  END
