83339
 OpenBabel03021519512D

 14 15  0  0  0  0  0  0  0  0999 V2000
    2.7814    6.9412    0.0000 N   0  0  0  0  0  0  0  0  0  0  0  0
    1.5679    9.0431    0.0000 O   0  0  0  0  0  0  0  0  0  0  0  0
    3.7851    8.0560    0.0000 N   0  0  0  0  0  0  0  0  0  0  0  0
   -1.1870    7.5513    0.0000 C   0  0  0  0  0  0  0  0  0  0  0  0
   -2.4861    6.8013    0.0000 C   0  0  0  0  0  0  0  0  0  0  0  0
    0.1120    6.8013    0.0000 C   0  0  0  0  0  0  0  0  0  0  0  0
    0.1120    5.3013    0.0000 C   0  0  0  0  0  0  0  0  0  0  0  0
    1.4111    7.5513    0.0000 C   0  0  0  0  0  0  0  0  0  0  0  0
   -2.4861    5.3013    0.0000 C   0  0  0  0  0  0  0  0  0  0  0  0
   -1.1870    4.5513    0.0000 C   0  0  0  0  0  0  0  0  0  0  0  0
    3.0351    9.3550    0.0000 C   0  0  0  0  0  0  0  0  0  0  0  0
   -1.1870    3.0513    0.0000 O   0  0  0  0  0  0  0  0  0  0  0  0
   -2.4861    2.3013    0.0000 C   0  0  0  0  0  0  0  0  0  0  0  0
    3.6452   10.7253    0.0000 N   0  0  0  0  0  0  0  0  0  0  0  0
  1  8  2  0  0  0  0
  1  3  1  0  0  0  0
  2  8  1  0  0  0  0
  2 11  1  0  0  0  0
  3 11  2  0  0  0  0
  4  5  2  0  0  0  0
  4  6  1  0  0  0  0
  5  9  1  0  0  0  0
  6  7  2  0  0  0  0
  6  8  1  0  0  0  0
  7 10  1  0  0  0  0
  9 10  2  0  0  0  0
 10 12  1  0  0  0  0
 11 14  1  0  0  0  0
 12 13  1  0  0  0  0
M  END
