14506
 OpenBabel03021519512D

 22 22  0  0  1  0  0  0  0  0999 V2000
   -0.4319    0.0163    0.0000 O   0  0  0  0  0  0  0  0  0  0  0  0
   -3.1606    1.4316    0.0000 O   0  0  0  0  0  0  0  0  0  0  0  0
   -4.4001   -0.0456    0.0000 C   0  0  3  0  0  0  0  0  0  0  0  0
   -2.9906    0.4674    0.0000 C   0  0  0  0  0  0  0  0  0  0  0  0
   -1.8415   -0.4967    0.0000 C   0  0  0  0  0  0  0  0  0  0  0  0
   -4.6606   -1.5228    0.0000 C   0  0  0  0  0  0  0  0  0  0  0  0
   -2.1020   -1.9740    0.0000 C   0  0  0  0  0  0  0  0  0  0  0  0
   -3.5115   -2.4870    0.0000 C   0  0  0  0  0  0  0  0  0  0  0  0
   -2.7615   -3.7860    0.0000 C   0  0  0  0  0  0  0  0  0  0  0  0
   -4.6606   -3.4512    0.0000 C   0  0  0  0  0  0  0  0  0  0  0  0
   -4.6606    2.9316    0.0000 O   0  0  0  0  0  0  0  0  0  0  0  0
   -5.9596    3.6816    0.0000 C   0  0  0  0  0  0  0  0  0  0  0  0
   -7.2586    2.9316    0.0000 C   0  0  0  0  0  0  0  0  0  0  0  0
   -8.5577    3.6816    0.0000 C   0  0  0  0  0  0  0  0  0  0  0  0
   -9.8567    2.9316    0.0000 C   0  0  0  0  0  0  0  0  0  0  0  0
   -4.6606    1.4316    0.0000 P   0  0  0  0  0  0  0  0  0  0  0  0
   -6.1606    1.4316    0.0000 O   0  0  0  0  0  0  0  0  0  0  0  0
   -6.9106    0.1326    0.0000 C   0  0  0  0  0  0  0  0  0  0  0  0
   -8.4106    0.1326    0.0000 C   0  0  0  0  0  0  0  0  0  0  0  0
   -9.1606    1.4316    0.0000 C   0  0  0  0  0  0  0  0  0  0  0  0
  -10.6606    1.4316    0.0000 C   0  0  0  0  0  0  0  0  0  0  0  0
   -5.9001   -0.0456    0.0000 C   0  0  0  0  0  0  0  0  0  0  0  0
  1  5  2  0  0  0  0
  2 16  2  0  0  0  0
  3  4  1  0  0  0  0
  3  6  1  0  0  0  0
  3 16  1  0  0  0  0
  3 22  1  0  0  0  0
  4  5  1  0  0  0  0
  5  7  1  0  0  0  0
  6  8  1  0  0  0  0
  7  8  1  0  0  0  0
  8  9  1  0  0  0  0
  8 10  1  0  0  0  0
 11 12  1  0  0  0  0
 11 16  1  0  0  0  0
 12 13  1  0  0  0  0
 13 14  1  0  0  0  0
 14 15  1  0  0  0  0
 16 17  1  0  0  0  0
 17 18  1  0  0  0  0
 18 19  1  0  0  0  0
 19 20  1  0  0  0  0
 20 21  1  0  0  0  0
M  END
