40817
 OpenBabel03021519512D

 14 14  0  0  1  0  0  0  0  0999 V2000
   -6.0671   -5.0241    0.0000 O   0  0  0  0  0  0  0  0  0  0  0  0
   -4.7680   -5.7741    0.0000 C   0  0  3  0  0  0  0  0  0  0  0  0
   -4.7680   -7.2741    0.0000 C   0  0  0  0  0  0  0  0  0  0  0  0
   -6.0671   -8.0241    0.0000 C   0  0  0  0  0  0  0  0  0  0  0  0
   -7.3661   -7.2741    0.0000 C   0  0  0  0  0  0  0  0  0  0  0  0
   -7.3661   -5.7741    0.0000 C   0  0  0  0  0  0  0  0  0  0  0  0
   -8.6651   -8.0241    0.0000 C   0  0  0  0  0  0  0  0  0  0  0  0
   -4.2550   -4.3645    0.0000 C   0  0  0  0  0  0  0  0  0  0  0  0
   -3.2908   -6.0346    0.0000 C   0  0  0  0  0  0  0  0  0  0  0  0
   -2.7778   -4.1041    0.0000 N   0  0  0  0  0  0  0  0  0  0  0  0
   -2.2648   -2.6945    0.0000 C   0  0  0  0  0  0  0  0  0  0  0  0
   -0.7875   -2.4341    0.0000 C   0  0  0  0  0  0  0  0  0  0  0  0
   -0.2745   -1.0245    0.0000 C   0  0  0  0  0  0  0  0  0  0  0  0
    0.1766   -3.5831    0.0000 C   0  0  0  0  0  0  0  0  0  0  0  0
  1  2  1  0  0  0  0
  1  6  1  0  0  0  0
  2  3  1  0  0  0  0
  2  8  1  0  0  0  0
  2  9  1  0  0  0  0
  3  4  1  0  0  0  0
  4  5  1  0  0  0  0
  5  6  2  0  0  0  0
  5  7  1  0  0  0  0
  8 10  2  0  0  0  0
 10 11  1  0  0  0  0
 11 12  1  0  0  0  0
 12 13  1  0  0  0  0
 12 14  2  0  0  0  0
M  END
