119805
 OpenBabel03021519512D

 22 23  0  0  0  0  0  0  0  0999 V2000
    7.2113   -3.4904    0.0000 C   0  0  0  0  0  0  0  0  0  0  0  0
    5.9123   -4.2404    0.0000 C   0  0  0  0  0  0  0  0  0  0  0  0
    8.5104   -4.2404    0.0000 C   0  0  0  0  0  0  0  0  0  0  0  0
    8.5104   -5.7404    0.0000 C   0  0  0  0  0  0  0  0  0  0  0  0
    5.9123   -5.7404    0.0000 C   0  0  0  0  0  0  0  0  0  0  0  0
    7.2113   -6.4904    0.0000 C   0  0  0  0  0  0  0  0  0  0  0  0
   -1.8820    0.2596    0.0000 C   0  0  0  0  0  0  0  0  0  0  0  0
   -3.1810    1.0096    0.0000 C   0  0  0  0  0  0  0  0  0  0  0  0
   -0.5829    1.0096    0.0000 C   0  0  0  0  0  0  0  0  0  0  0  0
   -0.5829    2.5096    0.0000 C   0  0  0  0  0  0  0  0  0  0  0  0
   -3.1810    2.5096    0.0000 C   0  0  0  0  0  0  0  0  0  0  0  0
   -1.8820    3.2596    0.0000 C   0  0  0  0  0  0  0  0  0  0  0  0
    0.7161    3.2596    0.0000 N   0  3  0  0  0  0  0  0  0  0  0  0
    2.0152    2.5096    0.0000 O   0  5  0  0  0  0  0  0  0  0  0  0
    0.7161    4.7596    0.0000 O   0  0  0  0  0  0  0  0  0  0  0  0
    0.7161    0.2596    0.0000 C   0  0  0  0  0  0  0  0  0  0  0  0
    2.0152    1.0096    0.0000 C   0  0  0  0  0  0  0  0  0  0  0  0
    3.3142    0.2596    0.0000 C   0  0  0  0  0  0  0  0  0  0  0  0
    3.3142   -1.2404    0.0000 N   0  0  0  0  0  0  0  0  0  0  0  0
    4.6132   -1.9904    0.0000 N   0  0  0  0  0  0  0  0  0  0  0  0
    4.6132   -3.4904    0.0000 C   0  0  0  0  0  0  0  0  0  0  0  0
    4.6133   -6.4904    0.0000 O   0  0  0  0  0  0  0  0  0  0  0  0
  1  3  2  0  0  0  0
  1  2  1  0  0  0  0
  2  5  2  0  0  0  0
  2 21  1  0  0  0  0
  3  4  1  0  0  0  0
  4  6  2  0  0  0  0
  5  6  1  0  0  0  0
  5 22  1  0  0  0  0
  7  8  2  0  0  0  0
  7  9  1  0  0  0  0
  8 11  1  0  0  0  0
  9 10  2  0  0  0  0
  9 16  1  0  0  0  0
 10 12  1  0  0  0  0
 10 13  1  0  0  0  0
 11 12  2  0  0  0  0
 13 14  1  0  0  0  0
 13 15  2  0  0  0  0
 16 17  2  0  0  0  0
 17 18  1  0  0  0  0
 18 19  2  0  0  0  0
 19 20  1  0  0  0  0
 20 21  2  0  0  0  0
M  CHG  2  13   1  14  -1
M  END
