92937
 OpenBabel03021519512D

 20 23  0  0  0  0  0  0  0  0999 V2000
   -5.6527   -3.4848    0.0000 N   0  0  0  0  0  0  0  0  0  0  0  0
   -3.5121   -1.5133    0.0000 O   0  0  0  0  0  0  0  0  0  0  0  0
    0.5027   -5.9721    0.0000 O   0  0  0  0  0  0  0  0  0  0  0  0
   -2.5084   -2.6280    0.0000 C   0  0  0  0  0  0  0  0  0  0  0  0
   -1.0412   -2.3161    0.0000 C   0  0  0  0  0  0  0  0  0  0  0  0
   -0.0375   -3.4308    0.0000 C   0  0  0  0  0  0  0  0  0  0  0  0
   -0.5010   -4.8574    0.0000 C   0  0  0  0  0  0  0  0  0  0  0  0
   -2.9719   -4.0546    0.0000 C   0  0  0  0  0  0  0  0  0  0  0  0
   -1.9682   -5.1693    0.0000 C   0  0  0  0  0  0  0  0  0  0  0  0
   -4.4392   -4.3665    0.0000 C   0  0  0  0  0  0  0  0  0  0  0  0
   -2.4318   -6.5959    0.0000 C   0  0  0  0  0  0  0  0  0  0  0  0
   -4.9027   -5.7930    0.0000 C   0  0  0  0  0  0  0  0  0  0  0  0
   -3.8990   -6.9078    0.0000 C   0  0  0  0  0  0  0  0  0  0  0  0
   -6.4027   -5.7931    0.0000 C   0  0  0  0  0  0  0  0  0  0  0  0
   -8.3334   -4.0546    0.0000 C   0  0  0  0  0  0  0  0  0  0  0  0
   -9.3371   -5.1693    0.0000 C   0  0  0  0  0  0  0  0  0  0  0  0
   -6.8662   -4.3665    0.0000 C   0  0  0  0  0  0  0  0  0  0  0  0
   -8.8736   -6.5959    0.0000 C   0  0  0  0  0  0  0  0  0  0  0  0
   -7.4064   -6.9078    0.0000 C   0  0  0  0  0  0  0  0  0  0  0  0
   -5.6527   -1.9848    0.0000 C   0  0  0  0  0  0  0  0  0  0  0  0
  1 10  1  0  0  0  0
  1 17  1  0  0  0  0
  1 20  1  0  0  0  0
  2  4  2  0  0  0  0
  3  7  2  0  0  0  0
  4  5  1  0  0  0  0
  4  8  1  0  0  0  0
  5  6  2  0  0  0  0
  6  7  1  0  0  0  0
  7  9  1  0  0  0  0
  8  9  2  0  0  0  0
  8 10  1  0  0  0  0
  9 11  1  0  0  0  0
 10 12  2  0  0  0  0
 11 13  2  0  0  0  0
 12 13  1  0  0  0  0
 12 14  1  0  0  0  0
 14 17  2  0  0  0  0
 14 19  1  0  0  0  0
 15 16  2  0  0  0  0
 15 17  1  0  0  0  0
 16 18  1  0  0  0  0
 18 19  2  0  0  0  0
M  END
