186194
 OpenBabel03021519512D

 23 24  0  0  0  0  0  0  0  0999 V2000
  -10.4869   -1.4005    0.0000 N   0  0  0  0  0  0  0  0  0  0  0  0
  -11.7004   -3.5024    0.0000 N   0  0  0  0  0  0  0  0  0  0  0  0
   -7.7320   -2.8923    0.0000 N   0  3  0  0  0  0  0  0  0  0  0  0
   -7.7320   -1.3923    0.0000 O   0  5  0  0  0  0  0  0  0  0  0  0
   -5.1340   -2.8923    0.0000 C   0  0  0  0  0  0  0  0  0  0  0  0
   -6.4330   -3.6423    0.0000 C   0  0  0  0  0  0  0  0  0  0  0  0
   -3.8349   -3.6423    0.0000 C   0  0  0  0  0  0  0  0  0  0  0  0
   -6.4330   -5.1423    0.0000 C   0  0  0  0  0  0  0  0  0  0  0  0
   -3.8349   -5.1423    0.0000 C   0  0  0  0  0  0  0  0  0  0  0  0
   -5.1340   -5.8923    0.0000 C   0  0  0  0  0  0  0  0  0  0  0  0
  -11.9541   -1.0887    0.0000 C   0  0  0  0  0  0  0  0  0  0  0  0
  -12.7041   -2.3877    0.0000 C   0  0  0  0  0  0  0  0  0  0  0  0
  -10.3301   -2.8923    0.0000 C   0  0  0  0  0  0  0  0  0  0  0  0
  -12.5643    0.2816    0.0000 N   0  3  0  0  0  0  0  0  0  0  0  0
  -14.0560    0.4384    0.0000 O   0  5  0  0  0  0  0  0  0  0  0  0
  -11.6826    1.4952    0.0000 O   0  0  0  0  0  0  0  0  0  0  0  0
   -9.3722   -0.3968    0.0000 C   0  0  0  0  0  0  0  0  0  0  0  0
   -9.6841    1.0704    0.0000 C   0  0  0  0  0  0  0  0  0  0  0  0
   -9.0311   -3.6423    0.0000 C   0  0  0  0  0  0  0  0  0  0  0  0
   -8.5694    2.0741    0.0000 O   0  0  0  0  0  0  0  0  0  0  0  0
   -7.1428    1.6106    0.0000 C   0  0  0  0  0  0  0  0  0  0  0  0
   -6.0281    2.6143    0.0000 O   0  0  0  0  0  0  0  0  0  0  0  0
   -6.8309    0.1433    0.0000 C   0  0  0  0  0  0  0  0  0  0  0  0
  1 11  1  0  0  0  0
  1 13  1  0  0  0  0
  1 17  1  0  0  0  0
  2 13  2  0  0  0  0
  2 12  1  0  0  0  0
  3  4  1  0  0  0  0
  3  6  1  0  0  0  0
  3 19  2  0  0  0  0
  5  6  1  0  0  0  0
  5  7  1  0  0  0  0
  6  8  1  0  0  0  0
  7  9  1  0  0  0  0
  8 10  1  0  0  0  0
  9 10  1  0  0  0  0
 11 12  2  0  0  0  0
 11 14  1  0  0  0  0
 13 19  1  0  0  0  0
 14 15  1  0  0  0  0
 14 16  2  0  0  0  0
 17 18  1  0  0  0  0
 18 20  1  0  0  0  0
 20 21  1  0  0  0  0
 21 22  2  0  0  0  0
 21 23  1  0  0  0  0
M  CHG  4   3   1   4  -1  14   1  15  -1
M  END
