37168
 OpenBabel03021519512D

 23 25  0  0  0  0  0  0  0  0999 V2000
   -8.1495    7.4192    0.0000 C   0  0  0  0  0  0  0  0  0  0  0  0
   -5.8995    8.7183    0.0000 C   0  0  0  0  0  0  0  0  0  0  0  0
   -8.8995    6.1202    0.0000 C   0  0  0  0  0  0  0  0  0  0  0  0
   -6.6495    7.4192    0.0000 C   0  0  0  0  0  0  0  0  0  0  0  0
   -4.3995    8.7183    0.0000 C   0  0  0  0  0  0  0  0  0  0  0  0
   -4.3995    3.5221    0.0000 C   0  0  0  0  0  0  0  0  0  0  0  0
   -5.8995    3.5221    0.0000 C   0  0  0  0  0  0  0  0  0  0  0  0
   -8.1495    4.8212    0.0000 C   0  0  0  0  0  0  0  0  0  0  0  0
   -5.8995    6.1202    0.0000 C   0  0  0  0  0  0  0  0  0  0  0  0
   -3.6495    7.4192    0.0000 C   0  0  0  0  0  0  0  0  0  0  0  0
   -3.6495    2.2231    0.0000 C   0  0  0  0  0  0  0  0  0  0  0  0
   -6.6495    2.2231    0.0000 C   0  0  0  0  0  0  0  0  0  0  0  0
   -6.6495    4.8212    0.0000 C   0  0  0  0  0  0  0  0  0  0  0  0
   -4.3995    6.1202    0.0000 C   0  0  0  0  0  0  0  0  0  0  0  0
   -4.3995    0.9241    0.0000 C   0  0  0  0  0  0  0  0  0  0  0  0
   -5.8995    0.9241    0.0000 C   0  0  0  0  0  0  0  0  0  0  0  0
   -8.8995    3.5221    0.0000 C   0  0  0  0  0  0  0  0  0  0  0  0
  -10.3995    3.5221    0.0000 O   0  0  0  0  0  0  0  0  0  0  0  0
  -10.3995    6.1202    0.0000 O   0  0  0  0  0  0  0  0  0  0  0  0
   -8.1495    2.2231    0.0000 N   0  0  0  0  0  0  0  0  0  0  0  0
   -3.6495   -0.3750    0.0000 N   0  3  0  0  0  0  0  0  0  0  0  0
   -2.1495   -0.3750    0.0000 O   0  5  0  0  0  0  0  0  0  0  0  0
   -4.3995   -1.6740    0.0000 O   0  0  0  0  0  0  0  0  0  0  0  0
  1  3  2  0  0  0  0
  1  4  1  0  0  0  0
  2  4  2  0  0  0  0
  2  5  1  0  0  0  0
  3  8  1  0  0  0  0
  3 19  1  0  0  0  0
  4  9  1  0  0  0  0
  5 10  2  0  0  0  0
  6 11  1  0  0  0  0
  6  7  2  0  0  0  0
  7 12  1  0  0  0  0
  8 13  2  0  0  0  0
  8 17  1  0  0  0  0
  9 14  2  0  0  0  0
  9 13  1  0  0  0  0
 10 14  1  0  0  0  0
 11 15  2  0  0  0  0
 12 20  1  0  0  0  0
 12 16  2  0  0  0  0
 15 16  1  0  0  0  0
 15 21  1  0  0  0  0
 17 18  2  0  0  0  0
 17 20  1  0  0  0  0
 21 22  1  0  0  0  0
 21 23  2  0  0  0  0
M  CHG  2  21   1  22  -1
M  END
