28011
 OpenBabel03021519512D

 16 17  0  0  1  0  0  0  0  0999 V2000
   -4.8565   -6.2833    0.0000 H   0  0  0  0  0  0  0  0  0  0  0  0
   -1.7454   -1.8737    0.0000 H   0  0  0  0  0  0  0  0  0  0  0  0
   -1.7454   -6.3737    0.0000 H   0  0  0  0  0  0  0  0  0  0  0  0
   -0.4463   -5.6237    0.0000 N   0  0  0  0  0  0  0  0  0  0  0  0
   -0.4463   -7.1237    0.0000 H   0  0  0  0  0  0  0  0  0  0  0  0
   -0.4463   -2.6237    0.0000 N   0  0  0  0  0  0  0  0  0  0  0  0
   -0.4463   -1.1237    0.0000 H   0  0  0  0  0  0  0  0  0  0  0  0
   -3.0444   -2.6237    0.0000 C   0  0  0  0  0  0  0  0  0  0  0  0
   -4.3435   -3.3737    0.0000 C   0  0  0  0  0  0  0  0  0  0  0  0
   -1.7454   -3.3737    0.0000 C   0  0  2  0  0  0  0  0  0  0  0  0
   -1.7454   -4.8737    0.0000 C   0  0  2  0  0  0  0  0  0  0  0  0
   -4.3434   -4.8737    0.0000 C   0  0  1  0  0  0  0  0  0  0  0  0
   -3.0444   -5.6237    0.0000 C   0  0  0  0  0  0  0  0  0  0  0  0
    0.8527   -3.3737    0.0000 C   0  0  0  0  0  0  0  0  0  0  0  0
    0.8527   -4.8737    0.0000 C   0  0  0  0  0  0  0  0  0  0  0  0
   -5.8207   -4.6133    0.0000 C   0  0  0  0  0  0  0  0  0  0  0  0
  4 11  1  0  0  0  0
  4 15  1  0  0  0  0
  4  5  1  0  0  0  0
  6 10  1  0  0  0  0
  6 14  1  0  0  0  0
  6  7  1  0  0  0  0
  8  9  1  0  0  0  0
  8 10  1  0  0  0  0
  9 12  1  0  0  0  0
 10  2  1  6  0  0  0
 10 11  1  0  0  0  0
 11  3  1  6  0  0  0
 11 13  1  0  0  0  0
 12  1  1  6  0  0  0
 12 13  1  0  0  0  0
 12 16  1  0  0  0  0
 14 15  1  0  0  0  0
M  END
