174084
 OpenBabel03021519512D

 17 18  0  0  0  0  0  0  0  0999 V2000
   -6.7995   -4.4404    0.0000 Br  0  0  0  0  0  0  0  0  0  0  0  0
   -4.2014    0.0596    0.0000 N   0  0  0  0  0  0  0  0  0  0  0  0
   -6.7995    0.0596    0.0000 C   0  0  0  0  0  0  0  0  0  0  0  0
   -5.5005   -0.6904    0.0000 C   0  0  0  0  0  0  0  0  0  0  0  0
   -8.0985   -0.6904    0.0000 C   0  0  0  0  0  0  0  0  0  0  0  0
   -5.5005   -2.1904    0.0000 C   0  0  0  0  0  0  0  0  0  0  0  0
   -8.0985   -2.1904    0.0000 C   0  0  0  0  0  0  0  0  0  0  0  0
   -4.2014   -2.9404    0.0000 C   0  0  0  0  0  0  0  0  0  0  0  0
   -2.9024   -0.6904    0.0000 C   0  0  0  0  0  0  0  0  0  0  0  0
   -2.9024   -2.1904    0.0000 C   0  0  0  0  0  0  0  0  0  0  0  0
   -6.7995   -2.9404    0.0000 C   0  0  0  0  0  0  0  0  0  0  0  0
   -9.3976   -2.9404    0.0000 O   0  0  0  0  0  0  0  0  0  0  0  0
  -10.6966   -2.1904    0.0000 C   0  0  0  0  0  0  0  0  0  0  0  0
   -8.0985    2.3096    0.0000 C   0  0  0  0  0  0  0  0  0  0  0  0
   -8.0985    3.8096    0.0000 O   0  0  0  0  0  0  0  0  0  0  0  0
   -9.3976    1.5596    0.0000 C   0  0  0  0  0  0  0  0  0  0  0  0
   -6.7995    1.5596    0.0000 N   0  0  0  0  0  0  0  0  0  0  0  0
  1 11  1  0  0  0  0
  2  9  2  0  0  0  0
  2  4  1  0  0  0  0
  3  5  2  0  0  0  0
  3  4  1  0  0  0  0
  3 17  1  0  0  0  0
  4  6  2  0  0  0  0
  5  7  1  0  0  0  0
  6  8  1  0  0  0  0
  6 11  1  0  0  0  0
  7 11  2  0  0  0  0
  7 12  1  0  0  0  0
  8 10  2  0  0  0  0
  9 10  1  0  0  0  0
 12 13  1  0  0  0  0
 14 15  2  0  0  0  0
 14 16  1  0  0  0  0
 14 17  1  0  0  0  0
M  END
