310325
 OpenBabel03021519512D

 32 36  0  0  0  0  0  0  0  0999 V2000
   -7.9299    0.6000    0.0000 C   0  0  0  0  0  0  0  0  0  0  0  0
   -7.7731   -0.8918    0.0000 C   0  0  0  0  0  0  0  0  0  0  0  0
   -9.3002    1.2101    0.0000 C   0  0  0  0  0  0  0  0  0  0  0  0
   -5.0458   -4.1291    0.0000 C   0  0  0  0  0  0  0  0  0  0  0  0
   -7.4595   -3.8754    0.0000 C   0  0  0  0  0  0  0  0  0  0  0  0
   -8.9866   -1.7735    0.0000 C   0  0  0  0  0  0  0  0  0  0  0  0
  -10.5138    0.3284    0.0000 C   0  0  0  0  0  0  0  0  0  0  0  0
   -4.1559   -5.4994    0.0000 C   0  0  0  0  0  0  0  0  0  0  0  0
   -5.6559   -5.4994    0.0000 C   0  0  0  0  0  0  0  0  0  0  0  0
  -10.3570   -1.1634    0.0000 C   0  0  0  0  0  0  0  0  0  0  0  0
   -3.4059   -6.7984    0.0000 C   0  0  0  0  0  0  0  0  0  0  0  0
   -6.4059   -6.7984    0.0000 C   0  0  0  0  0  0  0  0  0  0  0  0
  -12.8352   -3.9282    0.0000 C   0  0  0  0  0  0  0  0  0  0  0  0
   -4.1559   -8.0975    0.0000 C   0  0  0  0  0  0  0  0  0  0  0  0
   -5.6559   -8.0975    0.0000 C   0  0  0  0  0  0  0  0  0  0  0  0
   -9.6186   -6.1455    0.0000 C   0  0  0  0  0  0  0  0  0  0  0  0
  -11.7204   -4.9319    0.0000 C   0  0  0  0  0  0  0  0  0  0  0  0
  -14.2618   -4.3917    0.0000 C   0  0  0  0  0  0  0  0  0  0  0  0
  -10.7333   -7.1491    0.0000 C   0  0  0  0  0  0  0  0  0  0  0  0
  -12.0323   -6.3991    0.0000 C   0  0  0  0  0  0  0  0  0  0  0  0
  -14.5736   -5.8590    0.0000 C   0  0  0  0  0  0  0  0  0  0  0  0
  -13.4589   -6.8627    0.0000 C   0  0  0  0  0  0  0  0  0  0  0  0
   -6.4028   -1.5019    0.0000 Cl  0  0  0  0  0  0  0  0  0  0  0  0
   -8.8298   -3.2653    0.0000 N   0  0  0  0  0  0  0  0  0  0  0  0
  -10.2287   -4.7751    0.0000 S   0  0  0  0  0  0  0  0  0  0  0  0
  -10.5765   -8.6409    0.0000 Cl  0  0  0  0  0  0  0  0  0  0  0  0
   -8.1513   -6.4573    0.0000 C   0  0  0  0  0  0  0  0  0  0  0  0
   -7.1476   -5.3426    0.0000 N   0  0  0  0  0  0  0  0  0  0  0  0
   -6.1605   -3.1254    0.0000 S   0  0  0  0  0  0  0  0  0  0  0  0
   -7.6878   -7.8839    0.0000 O   0  0  0  0  0  0  0  0  0  0  0  0
  -11.5705   -2.0451    0.0000 C   0  0  0  0  0  0  0  0  0  0  0  0
   -3.5785   -3.8172    0.0000 C   0  0  0  0  0  0  0  0  0  0  0  0
  1  3  2  0  0  0  0
  1  2  1  0  0  0  0
  2 23  1  0  0  0  0
  2  6  2  0  0  0  0
  3  7  1  0  0  0  0
  4 29  1  0  0  0  0
  4  9  1  0  0  0  0
  4 32  2  0  0  0  0
  5 29  1  0  0  0  0
  5 28  1  0  0  0  0
  5 24  2  0  0  0  0
  6 24  1  0  0  0  0
  6 10  1  0  0  0  0
  7 10  2  0  0  0  0
  8  9  1  0  0  0  0
  8 11  1  0  0  0  0
  9 28  1  0  0  0  0
  9 12  1  0  0  0  0
 10 31  1  0  0  0  0
 11 14  1  0  0  0  0
 12 15  1  0  0  0  0
 13 18  2  0  0  0  0
 13 17  1  0  0  0  0
 14 15  1  0  0  0  0
 16 19  2  0  0  0  0
 16 25  1  0  0  0  0
 16 27  1  0  0  0  0
 17 25  1  0  0  0  0
 17 20  2  0  0  0  0
 18 21  1  0  0  0  0
 19 26  1  0  0  0  0
 19 20  1  0  0  0  0
 20 22  1  0  0  0  0
 21 22  2  0  0  0  0
 27 28  1  0  0  0  0
 27 30  2  0  0  0  0
M  END
