56287
 OpenBabel03021519512D

 21 22  0  0  0  0  0  0  0  0999 V2000
   -3.6226   -7.7745    0.0000 Cl  0  0  0  0  0  0  0  0  0  0  0  0
   -2.3235  -10.0245    0.0000 N   0  0  0  0  0  0  0  0  0  0  0  0
   -1.0245   -6.2745    0.0000 Br  0  0  0  0  0  0  0  0  0  0  0  0
    0.2745  -10.0245    0.0000 N   0  0  0  0  0  0  0  0  0  0  0  0
    0.2745   -4.0245    0.0000 N   0  0  0  0  0  0  0  0  0  0  0  0
    4.1716   -6.2745    0.0000 O   0  0  0  0  0  0  0  0  0  0  0  0
   -1.0245   -3.2745    0.0000 H   0  0  0  0  0  0  0  0  0  0  0  0
    2.8726   -4.0245    0.0000 N   0  0  0  0  0  0  0  0  0  0  0  0
    4.1716   -3.2745    0.0000 H   0  0  0  0  0  0  0  0  0  0  0  0
    1.5736   -1.7745    0.0000 O   0  0  0  0  0  0  0  0  0  0  0  0
    1.5736   -3.2745    0.0000 C   0  0  0  0  0  0  0  0  0  0  0  0
    0.2745   -5.5245    0.0000 C   0  0  0  0  0  0  0  0  0  0  0  0
    1.5736   -6.2745    0.0000 C   0  0  0  0  0  0  0  0  0  0  0  0
    2.8726   -5.5245    0.0000 C   0  0  0  0  0  0  0  0  0  0  0  0
   -1.0245   -7.7745    0.0000 C   0  0  0  0  0  0  0  0  0  0  0  0
    0.2745   -8.5245    0.0000 C   0  0  0  0  0  0  0  0  0  0  0  0
   -2.3235   -8.5245    0.0000 C   0  0  0  0  0  0  0  0  0  0  0  0
   -1.0245  -10.7745    0.0000 C   0  0  0  0  0  0  0  0  0  0  0  0
   -1.0245  -12.2745    0.0000 S   0  0  0  0  0  0  0  0  0  0  0  0
   -2.3235  -13.0245    0.0000 C   0  0  0  0  0  0  0  0  0  0  0  0
    1.5736   -7.7745    0.0000 N   0  0  0  0  0  0  0  0  0  0  0  0
  1 17  1  0  0  0  0
  2 17  2  0  0  0  0
  2 18  1  0  0  0  0
  3 15  1  0  0  0  0
  4 18  2  0  0  0  0
  4 16  1  0  0  0  0
  5 11  1  0  0  0  0
  5 12  1  0  0  0  0
  5  7  1  0  0  0  0
  6 14  2  0  0  0  0
  8 11  1  0  0  0  0
  8 14  1  0  0  0  0
  8  9  1  0  0  0  0
 10 11  2  0  0  0  0
 12 13  2  0  0  0  0
 13 14  1  0  0  0  0
 13 21  1  0  0  0  0
 15 16  2  0  0  0  0
 15 17  1  0  0  0  0
 16 21  1  0  0  0  0
 18 19  1  0  0  0  0
 19 20  1  0  0  0  0
M  END
