407628
 OpenBabel03021519512D

 23 26  0  0  0  0  0  0  0  0999 V2000
    4.9216    5.5245    0.0000 C   0  0  0  0  0  0  0  0  0  0  0  0
    6.2207    4.7745    0.0000 C   0  0  0  0  0  0  0  0  0  0  0  0
    3.6226    4.7745    0.0000 C   0  0  0  0  0  0  0  0  0  0  0  0
    6.2207    3.2745    0.0000 C   0  0  0  0  0  0  0  0  0  0  0  0
    3.6226    3.2745    0.0000 C   0  0  0  0  0  0  0  0  0  0  0  0
    7.5197    2.5245    0.0000 C   0  0  0  0  0  0  0  0  0  0  0  0
    4.9216    2.5245    0.0000 C   0  0  0  0  0  0  0  0  0  0  0  0
    2.3236    2.5245    0.0000 C   0  0  0  0  0  0  0  0  0  0  0  0
    7.5197    1.0245    0.0000 C   0  0  0  0  0  0  0  0  0  0  0  0
    4.9216    1.0245    0.0000 C   0  0  0  0  0  0  0  0  0  0  0  0
    2.3236    1.0245    0.0000 C   0  0  0  0  0  0  0  0  0  0  0  0
    6.2207    0.2745    0.0000 C   0  0  0  0  0  0  0  0  0  0  0  0
    3.6226    0.2745    0.0000 C   0  0  0  0  0  0  0  0  0  0  0  0
    6.2207   -1.2255    0.0000 C   0  0  0  0  0  0  0  0  0  0  0  0
    3.6226   -1.2255    0.0000 C   0  0  0  0  0  0  0  0  0  0  0  0
    4.9216   -1.9755    0.0000 C   0  0  0  0  0  0  0  0  0  0  0  0
    7.5197   -1.9755    0.0000 C   0  0  0  0  0  0  0  0  0  0  0  0
    7.5197   -3.4755    0.0000 O   0  0  0  0  0  0  0  0  0  0  0  0
    8.8188   -1.2255    0.0000 C   0  0  0  0  0  0  0  0  0  0  0  0
    8.8188    0.2745    0.0000 C   0  0  0  0  0  0  0  0  0  0  0  0
   10.1178    1.0245    0.0000 C   0  0  0  0  0  0  0  0  0  0  0  0
   10.1178    2.5245    0.0000 O   0  0  0  0  0  0  0  0  0  0  0  0
   11.4168    0.2745    0.0000 O   0  0  0  0  0  0  0  0  0  0  0  0
  1  2  2  0  0  0  0
  1  3  1  0  0  0  0
  2  4  1  0  0  0  0
  3  5  2  0  0  0  0
  4  7  2  0  0  0  0
  4  6  1  0  0  0  0
  5  7  1  0  0  0  0
  5  8  1  0  0  0  0
  6  9  2  0  0  0  0
  7 10  1  0  0  0  0
  8 11  2  0  0  0  0
  9 12  1  0  0  0  0
 10 12  2  0  0  0  0
 10 13  1  0  0  0  0
 11 13  1  0  0  0  0
 12 14  1  0  0  0  0
 13 15  2  0  0  0  0
 14 17  1  0  0  0  0
 14 16  2  0  0  0  0
 15 16  1  0  0  0  0
 17 18  2  0  0  0  0
 17 19  1  0  0  0  0
 19 20  1  0  0  0  0
 20 21  1  0  0  0  0
 21 22  2  0  0  0  0
 21 23  1  0  0  0  0
M  END
