116508
 OpenBabel03021519512D

 20 20  0  0  0  0  0  0  0  0999 V2000
   -6.7697   -9.2745    0.0000 C   0  0  0  0  0  0  0  0  0  0  0  0
   -4.1716   -6.2745    0.0000 C   0  0  0  0  0  0  0  0  0  0  0  0
   -2.8726   -7.0245    0.0000 C   0  0  0  0  0  0  0  0  0  0  0  0
   -5.4707   -7.0245    0.0000 C   0  0  0  0  0  0  0  0  0  0  0  0
   -2.8726   -8.5245    0.0000 C   0  0  0  0  0  0  0  0  0  0  0  0
   -5.4707   -8.5245    0.0000 C   0  0  0  0  0  0  0  0  0  0  0  0
   -4.1716   -9.2745    0.0000 C   0  0  0  0  0  0  0  0  0  0  0  0
   -1.5736   -6.2745    0.0000 C   0  0  0  0  0  0  0  0  0  0  0  0
   -0.2745   -7.0245    0.0000 O   0  0  0  0  0  0  0  0  0  0  0  0
   -1.5736   -4.7745    0.0000 N   0  0  0  0  0  0  0  0  0  0  0  0
   -0.2745   -4.0245    0.0000 C   0  0  0  0  0  0  0  0  0  0  0  0
   -1.0245   -2.7255    0.0000 C   0  0  0  0  0  0  0  0  0  0  0  0
    0.4755   -5.3235    0.0000 C   0  0  0  0  0  0  0  0  0  0  0  0
    1.0245   -3.2745    0.0000 C   0  0  0  0  0  0  0  0  0  0  0  0
   -6.7697  -10.7745    0.0000 O   0  0  0  0  0  0  0  0  0  0  0  0
   -8.0687   -7.0245    0.0000 C   0  0  0  0  0  0  0  0  0  0  0  0
   -9.5687   -7.0245    0.0000 C   0  0  0  0  0  0  0  0  0  0  0  0
   -8.0687   -5.5245    0.0000 C   0  0  0  0  0  0  0  0  0  0  0  0
   -6.5687   -7.0245    0.0000 C   0  0  0  0  0  0  0  0  0  0  0  0
   -8.0687   -8.5245    0.0000 N   0  0  0  0  0  0  0  0  0  0  0  0
  1  6  1  0  0  0  0
  1 15  2  0  0  0  0
  1 20  1  0  0  0  0
  2  3  2  0  0  0  0
  2  4  1  0  0  0  0
  3  5  1  0  0  0  0
  3  8  1  0  0  0  0
  4  6  2  0  0  0  0
  5  7  2  0  0  0  0
  6  7  1  0  0  0  0
  8  9  2  0  0  0  0
  8 10  1  0  0  0  0
 10 11  1  0  0  0  0
 11 12  1  0  0  0  0
 11 13  1  0  0  0  0
 11 14  1  0  0  0  0
 16 17  1  0  0  0  0
 16 18  1  0  0  0  0
 16 19  1  0  0  0  0
 16 20  1  0  0  0  0
M  END
