120961
 OpenBabel03021519512D

 20 20  0  0  0  0  0  0  0  0999 V2000
    6.7697    4.7745    0.0000 O   0  0  0  0  0  0  0  0  0  0  0  0
    2.8726    5.5245    0.0000 C   0  0  0  0  0  0  0  0  0  0  0  0
    4.1716    4.7745    0.0000 C   0  0  0  0  0  0  0  0  0  0  0  0
    1.5735    4.7745    0.0000 C   0  0  0  0  0  0  0  0  0  0  0  0
    4.1716    3.2745    0.0000 C   0  0  0  0  0  0  0  0  0  0  0  0
    1.5735    3.2745    0.0000 C   0  0  0  0  0  0  0  0  0  0  0  0
    2.8726    2.5245    0.0000 C   0  0  0  0  0  0  0  0  0  0  0  0
    0.2745    2.5245    0.0000 N   0  3  0  0  0  0  0  0  0  0  0  0
   -1.0245    3.2745    0.0000 O   0  5  0  0  0  0  0  0  0  0  0  0
    0.2745    1.0245    0.0000 O   0  0  0  0  0  0  0  0  0  0  0  0
    5.4707    5.5245    0.0000 C   0  0  0  0  0  0  0  0  0  0  0  0
    5.4707    7.0245    0.0000 O   0  0  0  0  0  0  0  0  0  0  0  0
    7.9188    5.7387    0.0000 C   0  0  0  0  0  0  0  0  0  0  0  0
    9.3283    5.2257    0.0000 C   0  0  0  0  0  0  0  0  0  0  0  0
    9.5888    3.7485    0.0000 N   0  0  0  0  0  0  0  0  0  0  0  0
    8.4397    2.7843    0.0000 C   0  0  0  0  0  0  0  0  0  0  0  0
    7.0302    3.2973    0.0000 C   0  0  0  0  0  0  0  0  0  0  0  0
    5.8811    2.3331    0.0000 C   0  0  0  0  0  0  0  0  0  0  0  0
    8.7002    1.3071    0.0000 C   0  0  0  0  0  0  0  0  0  0  0  0
    7.5511    0.3429    0.0000 C   0  0  0  0  0  0  0  0  0  0  0  0
  1 11  1  0  0  0  0
  1 13  1  0  0  0  0
  2  4  2  0  0  0  0
  2  3  1  0  0  0  0
  3  5  2  0  0  0  0
  3 11  1  0  0  0  0
  4  6  1  0  0  0  0
  5  7  1  0  0  0  0
  6  7  2  0  0  0  0
  6  8  1  0  0  0  0
  8  9  1  0  0  0  0
  8 10  2  0  0  0  0
 11 12  2  0  0  0  0
 13 14  1  0  0  0  0
 14 15  1  0  0  0  0
 15 16  1  0  0  0  0
 16 17  1  0  0  0  0
 16 19  1  0  0  0  0
 17 18  1  0  0  0  0
 19 20  1  0  0  0  0
M  CHG  2   8   1   9  -1
M  END
