62318
 OpenBabel03021519512D

 14 15  0  0  0  0  0  0  0  0999 V2000
   -7.4714    3.6928    0.0000 N   0  0  0  0  0  0  0  0  0  0  0  0
   -6.1723    5.9428    0.0000 S   0  0  0  0  0  0  0  0  0  0  0  0
   -6.1723    1.4428    0.0000 N   0  0  0  0  0  0  0  0  0  0  0  0
   -6.1723   -0.0572    0.0000 H   0  0  0  0  0  0  0  0  0  0  0  0
   -3.4467    4.1563    0.0000 N   0  0  0  0  0  0  0  0  0  0  0  0
   -3.4467    1.7292    0.0000 N   0  0  0  0  0  0  0  0  0  0  0  0
   -6.1723    4.4428    0.0000 C   0  0  0  0  0  0  0  0  0  0  0  0
   -4.8733    3.6928    0.0000 C   0  0  0  0  0  0  0  0  0  0  0  0
   -4.8733    2.1928    0.0000 C   0  0  0  0  0  0  0  0  0  0  0  0
   -2.5650    2.9428    0.0000 C   0  0  0  0  0  0  0  0  0  0  0  0
   -7.4714    2.1928    0.0000 C   0  0  0  0  0  0  0  0  0  0  0  0
   -2.9832    0.3026    0.0000 C   0  0  0  0  0  0  0  0  0  0  0  0
   -1.5160   -0.0092    0.0000 C   0  0  0  0  0  0  0  0  0  0  0  0
   -3.9869   -0.8121    0.0000 C   0  0  0  0  0  0  0  0  0  0  0  0
  1 11  2  0  0  0  0
  1  7  1  0  0  0  0
  2  7  2  0  0  0  0
  3  9  1  0  0  0  0
  3 11  1  0  0  0  0
  3  4  1  0  0  0  0
  5 10  2  0  0  0  0
  5  8  1  0  0  0  0
  6  9  1  0  0  0  0
  6 10  1  0  0  0  0
  6 12  1  0  0  0  0
  7  8  1  0  0  0  0
  8  9  2  0  0  0  0
 12 13  1  0  0  0  0
 12 14  1  0  0  0  0
M  END
