5476
 OpenBabel03021519512D

 26 29  0  0  1  0  0  0  0  0999 V2000
    3.5221    4.3995    0.0000 H   0  0  0  0  0  0  0  0  0  0  0  0
   -0.3750    2.1495    0.0000 H   0  0  0  0  0  0  0  0  0  0  0  0
    2.2231    5.1495    0.0000 N   0  0  0  0  0  0  0  0  0  0  0  0
    8.7183   10.3995    0.0000 H   0  0  0  0  0  0  0  0  0  0  0  0
    8.7183    8.8995    0.0000 N   0  0  0  0  0  0  0  0  0  0  0  0
    6.1202    8.8995    0.0000 C   0  0  0  0  0  0  0  0  0  0  0  0
    7.4192    8.1495    0.0000 C   0  0  0  0  0  0  0  0  0  0  0  0
    4.8211    8.1495    0.0000 C   0  0  0  0  0  0  0  0  0  0  0  0
    7.4192    6.6495    0.0000 C   0  0  0  0  0  0  0  0  0  0  0  0
    4.8212    6.6495    0.0000 C   0  0  0  0  0  0  0  0  0  0  0  0
    6.1202    5.8995    0.0000 C   0  0  0  0  0  0  0  0  0  0  0  0
    8.7183    5.8995    0.0000 C   0  0  0  0  0  0  0  0  0  0  0  0
   10.0173    8.1495    0.0000 C   0  0  0  0  0  0  0  0  0  0  0  0
   10.0173    6.6495    0.0000 C   0  0  0  0  0  0  0  0  0  0  0  0
    2.2231    3.6495    0.0000 C   0  0  1  0  0  0  0  0  0  0  0  0
    3.5221    2.8995    0.0000 C   0  0  0  0  0  0  0  0  0  0  0  0
    3.5221    1.3995    0.0000 C   0  0  0  0  0  0  0  0  0  0  0  0
    0.9240    2.8995    0.0000 C   0  0  1  0  0  0  0  0  0  0  0  0
    2.2231    0.6495    0.0000 C   0  0  0  0  0  0  0  0  0  0  0  0
   -0.3750    3.6495    0.0000 C   0  0  0  0  0  0  0  0  0  0  0  0
    0.9240    5.8995    0.0000 C   0  0  0  0  0  0  0  0  0  0  0  0
   -0.3750    5.1495    0.0000 C   0  0  0  0  0  0  0  0  0  0  0  0
    0.9240    1.3995    0.0000 C   0  0  0  0  0  0  0  0  0  0  0  0
    3.5221    5.8995    0.0000 S   0  0  0  0  0  0  0  0  0  0  0  0
    2.7721    7.1986    0.0000 O   0  0  0  0  0  0  0  0  0  0  0  0
    4.2721    4.6005    0.0000 O   0  0  0  0  0  0  0  0  0  0  0  0
  3 15  1  0  0  0  0
  3 21  1  0  0  0  0
  3 24  1  0  0  0  0
  4  5  1  0  0  0  0
  5  7  1  0  0  0  0
  5 13  1  0  0  0  0
  6  8  2  0  0  0  0
  6  7  1  0  0  0  0
  7  9  2  0  0  0  0
  8 10  1  0  0  0  0
  9 11  1  0  0  0  0
  9 12  1  0  0  0  0
 10 11  2  0  0  0  0
 10 24  1  0  0  0  0
 12 14  1  0  0  0  0
 13 14  1  0  0  0  0
 15  1  1  6  0  0  0
 15 16  1  0  0  0  0
 15 18  1  0  0  0  0
 16 17  1  0  0  0  0
 17 19  1  0  0  0  0
 18  2  1  1  0  0  0
 18 20  1  0  0  0  0
 18 23  1  0  0  0  0
 19 23  1  0  0  0  0
 20 22  1  0  0  0  0
 21 22  1  0  0  0  0
 24 25  2  0  0  0  0
 24 26  2  0  0  0  0
M  END
