109885
 OpenBabel03021519512D

 13 14  0  0  0  0  0  0  0  0999 V2000
   -1.0245    3.2745    0.0000 N   0  0  0  0  0  0  0  0  0  0  0  0
    0.2745    5.5245    0.0000 N   0  0  0  0  0  0  0  0  0  0  0  0
    1.5736    3.2745    0.0000 N   0  0  0  0  0  0  0  0  0  0  0  0
    2.8726    5.5245    0.0000 N   0  0  0  0  0  0  0  0  0  0  0  0
    5.4707    7.0245    0.0000 O   0  0  0  0  0  0  0  0  0  0  0  0
    2.8726    7.0245    0.0000 C   0  0  0  0  0  0  0  0  0  0  0  0
    4.1716    7.7745    0.0000 C   0  0  0  0  0  0  0  0  0  0  0  0
    1.5736    4.7745    0.0000 C   0  0  0  0  0  0  0  0  0  0  0  0
   -1.0245    4.7745    0.0000 C   0  0  0  0  0  0  0  0  0  0  0  0
    4.1716    4.7745    0.0000 C   0  0  0  0  0  0  0  0  0  0  0  0
    5.4707    5.5245    0.0000 C   0  0  0  0  0  0  0  0  0  0  0  0
    0.2745    2.5245    0.0000 C   0  0  0  0  0  0  0  0  0  0  0  0
    0.2745    1.0245    0.0000 N   0  0  0  0  0  0  0  0  0  0  0  0
  1  9  2  0  0  0  0
  1 12  1  0  0  0  0
  2  8  2  0  0  0  0
  2  9  1  0  0  0  0
  3 12  2  0  0  0  0
  3  8  1  0  0  0  0
  4  6  1  0  0  0  0
  4  8  1  0  0  0  0
  4 10  1  0  0  0  0
  5  7  1  0  0  0  0
  5 11  1  0  0  0  0
  6  7  1  0  0  0  0
 10 11  1  0  0  0  0
 12 13  1  0  0  0  0
M  END
