123418
 OpenBabel03021519512D

 33 38  0  0  1  0  0  0  0  0999 V2000
   -1.6632   -0.7019    0.0000 O   0  0  0  0  0  0  0  0  0  0  0  0
   -0.0622    0.3409    0.0000 H   0  0  0  0  0  0  0  0  0  0  0  0
    0.2398    0.3409    0.0000 N   0  0  0  0  0  0  0  0  0  0  0  0
    1.4907   -1.7900    0.0000 N   0  0  3  0  0  0  0  0  0  0  0  0
    1.5648    2.5210    0.0000 O   0  0  0  0  0  0  0  0  0  0  0  0
    2.7907    1.8140    0.0000 O   0  0  0  0  0  0  0  0  0  0  0  0
    1.5648    1.8399    0.0000 C   0  0  0  0  0  0  0  0  0  0  0  0
    2.2007    1.4729    0.0000 C   0  0  0  0  0  0  0  0  0  0  0  0
    0.9298    1.4729    0.0000 C   0  0  0  0  0  0  0  0  0  0  0  0
    0.9298    0.7390    0.0000 C   0  0  0  0  0  0  0  0  0  0  0  0
    2.2007    0.7390    0.0000 C   0  0  0  0  0  0  0  0  0  0  0  0
    1.5648    0.3719    0.0000 C   0  0  0  0  0  0  0  0  0  0  0  0
    0.9278   -0.7320    0.0000 C   0  0  3  0  0  0  0  0  0  0  0  0
    0.2398   -0.3330    0.0000 C   0  0  3  0  0  0  0  0  0  0  0  0
   -0.3962   -0.6999    0.0000 C   0  0  3  0  0  0  0  0  0  0  0  0
   -1.0282   -0.3349    0.0000 C   0  0  3  0  0  0  0  0  0  0  0  0
    0.8748   -1.4339    0.0000 C   0  0  3  0  0  0  0  0  0  0  0  0
    2.1457   -0.7320    0.0000 C   0  0  0  0  0  0  0  0  0  0  0  0
    2.1457   -1.4120    0.0000 C   0  0  0  0  0  0  0  0  0  0  0  0
   -0.3962   -1.4339    0.0000 C   0  0  3  0  0  0  0  0  0  0  0  0
    0.2398   -1.8009    0.0000 C   0  0  0  0  0  0  0  0  0  0  0  0
   -0.6351   -2.1200    0.0000 C   0  0  0  0  0  0  0  0  0  0  0  0
   -0.2462   -2.7930    0.0000 C   0  0  0  0  0  0  0  0  0  0  0  0
   -1.3951   -2.1200    0.0000 C   0  0  0  0  0  0  0  0  0  0  0  0
   -1.6632   -1.4300    0.0000 C   0  0  0  0  0  0  0  0  0  0  0  0
   -3.3841    0.1879    0.0000 O   0  0  0  0  0  0  0  0  0  0  0  0
   -3.7541    0.8288    0.0000 C   0  0  0  0  0  0  0  0  0  0  0  0
   -2.9641    0.1879    0.0000 C   0  0  0  0  0  0  0  0  0  0  0  0
   -2.5941    0.8288    0.0000 O   0  0  0  0  0  0  0  0  0  0  0  0
   -1.9341    0.1879    0.0000 C   0  0  0  0  0  0  0  0  0  0  0  0
    0.2357    1.8740    0.0000 N   0  3  0  0  0  0  0  0  0  0  0  0
   -0.4052    1.5042    0.0000 O   0  5  0  0  0  0  0  0  0  0  0  0
    0.2360    2.6140    0.0000 O   0  0  0  0  0  0  0  0  0  0  0  0
  1 16  1  0  0  0  0
  1 25  1  0  0  0  0
  2  3  1  0  0  0  0
  3 10  1  0  0  0  0
  3 14  1  0  0  0  0
  4 19  1  0  0  0  0
  4 17  1  0  0  0  0
  4 23  1  0  0  0  0
  5  7  2  0  0  0  0
  6  8  2  0  0  0  0
  7  8  1  0  0  0  0
  7  9  1  0  0  0  0
  8 11  1  0  0  0  0
  9 10  2  0  0  0  0
  9 31  1  0  0  0  0
 10 12  1  0  0  0  0
 11 12  2  0  0  0  0
 12 13  1  0  0  0  0
 13 14  1  0  0  0  0
 13 17  1  0  0  0  0
 13 18  1  0  0  0  0
 14 15  1  0  0  0  0
 15 16  1  0  0  0  0
 15 20  1  0  0  0  0
 16 30  1  0  0  0  0
 17 21  1  0  0  0  0
 18 19  1  0  0  0  0
 20 22  1  0  0  0  0
 20 21  1  0  0  0  0
 22 24  2  0  0  0  0
 22 23  1  0  0  0  0
 24 25  1  0  0  0  0
 26 27  1  0  0  0  0
 26 28  1  0  0  0  0
 28 29  2  0  0  0  0
 28 30  1  0  0  0  0
 31 32  1  0  0  0  0
 31 33  2  0  0  0  0
M  CHG  2  31   1  32  -1
M  END
