137112
 OpenBabel03021519512D

 26 31  0  0  1  0  0  0  0  0999 V2000
    4.7776   -3.1970    0.0000 N   0  0  0  0  0  0  0  0  0  0  0  0
    6.6973   -5.2196    0.0000 N   0  0  0  0  0  0  0  0  0  0  0  0
    6.7484   -2.6078    0.0000 C   0  0  0  0  0  0  0  0  0  0  0  0
    5.4494   -3.3578    0.0000 C   0  0  0  0  0  0  0  0  0  0  0  0
    8.0475   -3.3578    0.0000 C   0  0  0  0  0  0  0  0  0  0  0  0
    5.4494   -4.8578    0.0000 C   0  0  0  0  0  0  0  0  0  0  0  0
    8.0475   -4.8578    0.0000 C   0  0  0  0  0  0  0  0  0  0  0  0
    5.0611   -3.4089    0.0000 C   0  0  3  0  0  0  0  0  0  0  0  0
    5.8111    0.4882    0.0000 C   0  0  0  0  0  0  0  0  0  0  0  0
    5.0611    1.7872    0.0000 C   0  0  0  0  0  0  0  0  0  0  0  0
    5.0611   -0.8109    0.0000 C   0  0  0  0  0  0  0  0  0  0  0  0
    5.8111   -2.1099    0.0000 C   0  0  3  0  0  0  0  0  0  0  0  0
    6.7484   -5.6078    0.0000 C   0  0  0  0  0  0  0  0  0  0  0  0
    3.5611    1.7872    0.0000 C   0  0  0  0  0  0  0  0  0  0  0  0
    3.5611   -0.8109    0.0000 C   0  0  0  0  0  0  0  0  0  0  0  0
    3.5611   -3.4089    0.0000 C   0  0  3  0  0  0  0  0  0  0  0  0
    8.1973   -5.2196    0.0000 C   0  0  3  0  0  0  0  0  0  0  0  0
    8.9473   -3.9206    0.0000 C   0  0  3  0  0  0  0  0  0  0  0  0
    2.8111    0.4882    0.0000 C   0  0  0  0  0  0  0  0  0  0  0  0
    2.8111   -2.1099    0.0000 C   0  0  3  0  0  0  0  0  0  0  0  0
    4.3111   -2.1099    0.0000 C   0  0  3  0  0  0  0  0  0  0  0  0
    6.3091   -6.6685    0.0000 C   0  0  0  0  0  0  0  0  0  0  0  0
    5.0423   -1.7205    0.0000 C   0  0  0  0  0  0  0  0  0  0  0  0
    7.6396   -4.6554    0.0000 N   0  3  0  0  0  0  0  0  0  0  0  0
    6.3494   -3.8903    0.0000 O   0  5  0  0  0  0  0  0  0  0  0  0
    7.6222   -6.1553    0.0000 O   0  0  0  0  0  0  0  0  0  0  0  0
  1 12  1  0  0  0  0
  1 21  1  0  0  0  0
  1 23  1  0  0  0  0
  2 16  1  0  0  0  0
  2 17  1  0  0  0  0
  2 22  1  0  0  0  0
  3  4  2  0  0  0  0
  3  5  1  0  0  0  0
  4  6  1  0  0  0  0
  5  7  2  0  0  0  0
  6 13  2  0  0  0  0
  6  8  1  0  0  0  0
  7 13  1  0  0  0  0
  8 12  1  0  0  0  0
  8 16  1  0  0  0  0
  9 10  2  0  0  0  0
  9 11  1  0  0  0  0
 10 14  1  0  0  0  0
 11 15  2  0  0  0  0
 11 12  1  0  0  0  0
 13 17  1  0  0  0  0
 14 19  2  0  0  0  0
 15 19  1  0  0  0  0
 15 20  1  0  0  0  0
 16 20  1  0  0  0  0
 17 18  1  0  0  0  0
 18 21  1  0  0  0  0
 18 24  1  0  0  0  0
 20 21  1  0  0  0  0
 24 25  1  0  0  0  0
 24 26  2  0  0  0  0
M  CHG  2  24   1  25  -1
M  END
