43506
 OpenBabel03021519512D

 20 22  0  0  1  0  0  0  0  0999 V2000
    5.1226   -0.2745    0.0000 N   0  0  0  0  0  0  0  0  0  0  0  0
    6.4216   -1.0245    0.0000 P   0  0  3  0  0  0  0  0  0  0  0  0
    7.1716    0.2745    0.0000 O   0  0  0  0  0  0  0  0  0  0  0  0
    5.6716   -2.3235    0.0000 O   0  0  0  0  0  0  0  0  0  0  0  0
    8.6716   -7.5197    0.0000 Cl  0  0  0  0  0  0  0  0  0  0  0  0
    7.7207   -1.7745    0.0000 N   0  0  0  0  0  0  0  0  0  0  0  0
    8.4707   -3.0735    0.0000 C   0  0  0  0  0  0  0  0  0  0  0  0
    9.2207   -1.7745    0.0000 C   0  0  3  0  0  0  0  0  0  0  0  0
    4.3726    1.0245    0.0000 C   0  0  0  0  0  0  0  0  0  0  0  0
    3.6226   -0.2745    0.0000 C   0  0  3  0  0  0  0  0  0  0  0  0
    6.4216   -3.6226    0.0000 C   0  0  0  0  0  0  0  0  0  0  0  0
    5.6716   -4.9216    0.0000 C   0  0  0  0  0  0  0  0  0  0  0  0
    7.9216   -3.6226    0.0000 C   0  0  0  0  0  0  0  0  0  0  0  0
    8.6716   -4.9216    0.0000 C   0  0  0  0  0  0  0  0  0  0  0  0
    6.4216   -6.2207    0.0000 C   0  0  0  0  0  0  0  0  0  0  0  0
    7.9216   -6.2207    0.0000 C   0  0  0  0  0  0  0  0  0  0  0  0
    2.3236   -1.0245    0.0000 C   0  0  0  0  0  0  0  0  0  0  0  0
    1.0245   -0.2745    0.0000 C   0  0  0  0  0  0  0  0  0  0  0  0
   10.5197   -1.0245    0.0000 C   0  0  0  0  0  0  0  0  0  0  0  0
   11.8187   -1.7745    0.0000 C   0  0  0  0  0  0  0  0  0  0  0  0
  1  2  1  0  0  0  0
  1  9  1  0  0  0  0
  1 10  1  0  0  0  0
  2  3  2  0  0  0  0
  2  6  1  0  0  0  0
  2  4  1  0  0  0  0
  4 11  1  0  0  0  0
  5 16  1  0  0  0  0
  6  7  1  0  0  0  0
  6  8  1  0  0  0  0
  7  8  1  0  0  0  0
  8 19  1  0  0  0  0
  9 10  1  0  0  0  0
 10 17  1  0  0  0  0
 11 13  2  0  0  0  0
 11 12  1  0  0  0  0
 12 15  2  0  0  0  0
 13 14  1  0  0  0  0
 14 16  2  0  0  0  0
 15 16  1  0  0  0  0
 17 18  1  0  0  0  0
 19 20  1  0  0  0  0
M  END
