32984
 OpenBabel03021519512D

 27 30  0  0  0  0  0  0  0  0999 V2000
   -4.7518   -6.3983    0.0000 O   0  0  0  0  0  0  0  0  0  0  0  0
   -0.0049   -8.5118    0.0000 N   0  0  0  0  0  0  0  0  0  0  0  0
    0.3336   -2.1306    0.0000 O   0  0  0  0  0  0  0  0  0  0  0  0
    1.7602   -4.0941    0.0000 O   0  0  0  0  0  0  0  0  0  0  0  0
   -2.0399   -3.5009    0.0000 C   0  0  0  0  0  0  0  0  0  0  0  0
   -2.6500   -4.8712    0.0000 C   0  0  0  0  0  0  0  0  0  0  0  0
   -0.5481   -3.3441    0.0000 C   0  0  0  0  0  0  0  0  0  0  0  0
    0.3336   -4.5576    0.0000 C   0  0  0  0  0  0  0  0  0  0  0  0
   -1.7683   -6.0847    0.0000 C   0  0  0  0  0  0  0  0  0  0  0  0
   -0.2765   -5.9280    0.0000 C   0  0  0  0  0  0  0  0  0  0  0  0
   -2.3784   -7.4551    0.0000 C   0  0  0  0  0  0  0  0  0  0  0  0
   -3.8702   -7.6119    0.0000 C   0  0  0  0  0  0  0  0  0  0  0  0
   -4.4803   -8.9822    0.0000 C   0  0  0  0  0  0  0  0  0  0  0  0
   -5.9721   -9.1390    0.0000 C   0  0  0  0  0  0  0  0  0  0  0  0
   -6.5822  -10.5093    0.0000 C   0  0  0  0  0  0  0  0  0  0  0  0
    0.6052   -7.1415    0.0000 C   0  0  0  0  0  0  0  0  0  0  0  0
   -3.5986  -10.1957    0.0000 C   0  0  0  0  0  0  0  0  0  0  0  0
   -5.7005  -11.7228    0.0000 C   0  0  0  0  0  0  0  0  0  0  0  0
   -4.2087  -11.5660    0.0000 C   0  0  0  0  0  0  0  0  0  0  0  0
   -2.1068  -10.0389    0.0000 C   0  0  0  0  0  0  0  0  0  0  0  0
   -1.4967   -8.6686    0.0000 C   0  0  0  0  0  0  0  0  0  0  0  0
    1.7602   -2.5941    0.0000 C   0  0  0  0  0  0  0  0  0  0  0  0
   -8.0740  -10.6661    0.0000 O   0  0  0  0  0  0  0  0  0  0  0  0
   -8.6841  -12.0364    0.0000 C   0  0  0  0  0  0  0  0  0  0  0  0
   -6.3106  -13.0931    0.0000 O   0  0  0  0  0  0  0  0  0  0  0  0
   -7.8024  -13.2499    0.0000 C   0  0  0  0  0  0  0  0  0  0  0  0
    0.8767   -9.7253    0.0000 C   0  0  0  0  0  0  0  0  0  0  0  0
  1 12  2  0  0  0  0
  2 16  1  0  0  0  0
  2 21  1  0  0  0  0
  2 27  1  0  0  0  0
  3  7  1  0  0  0  0
  3 22  1  0  0  0  0
  4  8  1  0  0  0  0
  4 22  1  0  0  0  0
  5  6  2  0  0  0  0
  5  7  1  0  0  0  0
  6  9  1  0  0  0  0
  7  8  2  0  0  0  0
  8 10  1  0  0  0  0
  9 10  2  0  0  0  0
  9 11  1  0  0  0  0
 10 16  1  0  0  0  0
 11 12  1  0  0  0  0
 12 13  1  0  0  0  0
 13 17  2  0  0  0  0
 13 14  1  0  0  0  0
 14 15  2  0  0  0  0
 15 18  1  0  0  0  0
 15 23  1  0  0  0  0
 17 19  1  0  0  0  0
 17 20  1  0  0  0  0
 18 19  2  0  0  0  0
 18 25  1  0  0  0  0
 20 21  1  0  0  0  0
 23 24  1  0  0  0  0
 25 26  1  0  0  0  0
M  END
