98363
 OpenBabel03021519512D

 21 21  0  0  0  0  0  0  0  0999 V2000
   -1.2624    1.0668    0.0000 S   0  0  0  0  0  0  0  0  0  0  0  0
    0.1203    1.6484    0.0000 S   0  0  0  0  0  0  0  0  0  0  0  0
    0.3239   -0.7701    0.0000 S   0  0  0  0  0  0  0  0  0  0  0  0
    1.1007    0.5131    0.0000 C   0  0  0  0  0  0  0  0  0  0  0  0
   -1.1365   -0.4279    0.0000 C   0  0  0  0  0  0  0  0  0  0  0  0
   -4.8237   -1.8958    0.0000 O   0  0  0  0  0  0  0  0  0  0  0  0
   -6.2404   -1.4029    0.0000 C   0  0  0  0  0  0  0  0  0  0  0  0
   -7.3756   -2.3833    0.0000 C   0  0  0  0  0  0  0  0  0  0  0  0
   -3.6884   -0.9154    0.0000 C   0  0  0  0  0  0  0  0  0  0  0  0
   -3.9699    0.5580    0.0000 O   0  0  0  0  0  0  0  0  0  0  0  0
   -2.2718   -1.4084    0.0000 C   0  0  0  0  0  0  0  0  0  0  0  0
   -1.9903   -2.8817    0.0000 C   0  0  0  0  0  0  0  0  0  0  0  0
   -1.7089   -4.3551    0.0000 N   0  0  0  0  0  0  0  0  0  0  0  0
    2.5954    0.6390    0.0000 C   0  0  0  0  0  0  0  0  0  0  0  0
    3.4518   -0.5925    0.0000 C   0  0  0  0  0  0  0  0  0  0  0  0
    4.3081   -1.8240    0.0000 N   0  0  0  0  0  0  0  0  0  0  0  0
    3.2337    1.9964    0.0000 C   0  0  0  0  0  0  0  0  0  0  0  0
    2.3773    3.2279    0.0000 O   0  0  0  0  0  0  0  0  0  0  0  0
    4.7284    2.1223    0.0000 O   0  0  0  0  0  0  0  0  0  0  0  0
    5.3668    3.4797    0.0000 C   0  0  0  0  0  0  0  0  0  0  0  0
    6.8615    3.6056    0.0000 C   0  0  0  0  0  0  0  0  0  0  0  0
  1  2  1  0  0  0  0
  1  5  1  0  0  0  0
  2  4  1  0  0  0  0
  3  4  1  0  0  0  0
  3  5  1  0  0  0  0
  4 14  2  0  0  0  0
  5 11  2  0  0  0  0
  6  7  1  0  0  0  0
  6  9  1  0  0  0  0
  7  8  1  0  0  0  0
  9 10  2  0  0  0  0
  9 11  1  0  0  0  0
 11 12  1  0  0  0  0
 12 13  3  0  0  0  0
 14 15  1  0  0  0  0
 14 17  1  0  0  0  0
 15 16  3  0  0  0  0
 17 18  2  0  0  0  0
 17 19  1  0  0  0  0
 19 20  1  0  0  0  0
 20 21  1  0  0  0  0
M  END
