205843
 OpenBabel03021519512D

 18 19  0  0  0  0  0  0  0  0999 V2000
    3.2768   -3.1638    0.0000 O   0  0  0  0  0  0  0  0  0  0  0  0
    2.0490   -7.0537    0.0000 C   0  0  0  0  0  0  0  0  0  0  0  0
    0.7500   -7.8037    0.0000 C   0  0  0  0  0  0  0  0  0  0  0  0
    3.3481   -7.8036    0.0000 C   0  0  0  0  0  0  0  0  0  0  0  0
    3.3481   -9.3036    0.0000 C   0  0  0  0  0  0  0  0  0  0  0  0
    0.7500   -9.3037    0.0000 C   0  0  0  0  0  0  0  0  0  0  0  0
    2.0491  -10.0537    0.0000 C   0  0  0  0  0  0  0  0  0  0  0  0
    2.2731   -2.0490    0.0000 C   0  0  0  0  0  0  0  0  0  0  0  0
    3.0231   -0.7500    0.0000 C   0  0  0  0  0  0  0  0  0  0  0  0
    4.4903   -1.0619    0.0000 C   0  0  0  0  0  0  0  0  0  0  0  0
    4.6471   -2.5536    0.0000 C   0  0  0  0  0  0  0  0  0  0  0  0
    2.0490   -5.5537    0.0000 C   0  0  0  0  0  0  0  0  0  0  0  0
    4.6471  -10.0536    0.0000 C   0  0  0  0  0  0  0  0  0  0  0  0
    4.6471   -7.0536    0.0000 N   0  0  0  0  0  0  0  0  0  0  0  0
    4.6471   -5.5536    0.0000 C   0  0  0  0  0  0  0  0  0  0  0  0
    3.3481   -4.8036    0.0000 O   0  0  0  0  0  0  0  0  0  0  0  0
    5.9462   -4.8036    0.0000 N   0  0  0  0  0  0  0  0  0  0  0  0
    5.9462   -3.3036    0.0000 C   0  0  0  0  0  0  0  0  0  0  0  0
  1  8  1  0  0  0  0
  1 11  1  0  0  0  0
  2  4  2  0  0  0  0
  2  3  1  0  0  0  0
  2 12  1  0  0  0  0
  3  6  2  0  0  0  0
  4  5  1  0  0  0  0
  4 14  1  0  0  0  0
  5  7  2  0  0  0  0
  5 13  1  0  0  0  0
  6  7  1  0  0  0  0
  8  9  2  0  0  0  0
  9 10  1  0  0  0  0
 10 11  2  0  0  0  0
 11 18  1  0  0  0  0
 14 15  1  0  0  0  0
 15 16  2  0  0  0  0
 15 17  1  0  0  0  0
 17 18  1  0  0  0  0
M  END
