66020
 OpenBabel03021519512D

 20 22  0  0  0  0  0  0  0  0999 V2000
   -2.2510   -4.3347    0.0000 O   0  0  0  0  0  0  0  0  0  0  0  0
   -2.4017   -0.3506    0.0000 N   0  0  0  0  0  0  0  0  0  0  0  0
    0.0079    2.8068    0.0000 N   0  0  0  0  0  0  0  0  0  0  0  0
   -0.1707   -2.8770    0.0000 N   0  0  0  0  0  0  0  0  0  0  0  0
    0.5471   -4.1941    0.0000 H   0  0  0  0  0  0  0  0  0  0  0  0
    1.4560    2.4154    0.0000 H   0  0  0  0  0  0  0  0  0  0  0  0
    3.8456    1.5636    0.0000 Cl  0  0  0  0  0  0  0  0  0  0  0  0
   -0.5266    4.2083    0.0000 C   0  0  0  0  0  0  0  0  0  0  0  0
   -2.0247    4.1330    0.0000 C   0  0  0  0  0  0  0  0  0  0  0  0
   -2.4161    2.6850    0.0000 C   0  0  0  0  0  0  0  0  0  0  0  0
   -1.1599    1.8653    0.0000 C   0  0  0  0  0  0  0  0  0  0  0  0
   -1.0846    0.3672    0.0000 C   0  0  0  0  0  0  0  0  0  0  0  0
    0.2978   -0.2150    0.0000 C   0  0  0  0  0  0  0  0  0  0  0  0
    1.3448    0.8591    0.0000 C   0  0  0  0  0  0  0  0  0  0  0  0
    2.7985    0.4895    0.0000 C   0  0  0  0  0  0  0  0  0  0  0  0
    3.2053   -0.9543    0.0000 C   0  0  0  0  0  0  0  0  0  0  0  0
    0.7045   -1.6588    0.0000 C   0  0  0  0  0  0  0  0  0  0  0  0
    2.1583   -2.0285    0.0000 C   0  0  0  0  0  0  0  0  0  0  0  0
   -2.6617   -1.8279    0.0000 C   0  0  0  0  0  0  0  0  0  0  0  0
   -1.6688   -2.9523    0.0000 C   0  0  0  0  0  0  0  0  0  0  0  0
  1 20  2  0  0  0  0
  2 12  2  0  0  0  0
  2 19  1  0  0  0  0
  3  8  1  0  0  0  0
  3 11  1  0  0  0  0
  3  6  1  0  0  0  0
  4 17  1  0  0  0  0
  4 20  1  0  0  0  0
  4  5  1  0  0  0  0
  7 15  1  0  0  0  0
  8  9  2  0  0  0  0
  9 10  1  0  0  0  0
 10 11  2  0  0  0  0
 11 12  1  0  0  0  0
 12 13  1  0  0  0  0
 13 17  2  0  0  0  0
 13 14  1  0  0  0  0
 14 15  2  0  0  0  0
 15 16  1  0  0  0  0
 16 18  2  0  0  0  0
 17 18  1  0  0  0  0
 19 20  1  0  0  0  0
M  END
