162292
 OpenBabel03021519512D

 14 15  0  0  0  0  0  0  0  0999 V2000
    4.7563    0.4046    0.0000 O   0  0  0  0  0  0  0  0  0  0  0  0
    2.3500    0.0878    0.0000 N   0  0  0  0  0  0  0  0  0  0  0  0
    7.8105   -1.6285    0.0000 C   0  0  0  0  0  0  0  0  0  0  0  0
    8.8711   -2.6892    0.0000 C   0  0  0  0  0  0  0  0  0  0  0  0
    6.3105   -1.6285    0.0000 C   0  0  0  0  0  0  0  0  0  0  0  0
    5.2498   -2.6892    0.0000 C   0  0  0  0  0  0  0  0  0  0  0  0
    8.8711   -4.1892    0.0000 C   0  0  0  0  0  0  0  0  0  0  0  0
    5.2498   -4.1892    0.0000 C   0  0  0  0  0  0  0  0  0  0  0  0
    7.8105   -5.2498    0.0000 C   0  0  0  0  0  0  0  0  0  0  0  0
    6.3105   -5.2498    0.0000 C   0  0  0  0  0  0  0  0  0  0  0  0
    3.6682   -0.6280    0.0000 C   0  0  0  0  0  0  0  0  0  0  0  0
    4.1105    1.7584    0.0000 C   0  0  0  0  0  0  0  0  0  0  0  0
    2.6233    1.5626    0.0000 C   0  0  0  0  0  0  0  0  0  0  0  0
    3.8640   -2.1151    0.0000 N   0  0  0  0  0  0  0  0  0  0  0  0
  1 11  1  0  0  0  0
  1 12  1  0  0  0  0
  2 11  2  0  0  0  0
  2 13  1  0  0  0  0
  3  4  1  0  0  0  0
  3  5  1  0  0  0  0
  4  7  1  0  0  0  0
  5  6  1  0  0  0  0
  6  8  1  0  0  0  0
  6 14  1  0  0  0  0
  7  9  1  0  0  0  0
  8 10  1  0  0  0  0
  9 10  1  0  0  0  0
 11 14  1  0  0  0  0
 12 13  1  0  0  0  0
M  END
