166547
 OpenBabel03021519512D

 14 16  0  0  0  0  0  0  0  0999 V2000
   -4.2024    0.7604    0.0000 Cl  0  0  0  0  0  0  0  0  0  0  0  0
   -3.4076   -2.1324    0.0000 Cl  0  0  0  0  0  0  0  0  0  0  0  0
   -0.9023   -1.4440    0.0000 N   0  0  0  0  0  0  0  0  0  0  0  0
   -1.6972    1.4488    0.0000 N   0  0  0  0  0  0  0  0  0  0  0  0
    1.0069    1.8948    0.0000 N   0  0  0  0  0  0  0  0  0  0  0  0
    1.6500   -0.4455    0.0000 N   0  0  0  0  0  0  0  0  0  0  0  0
    3.6770    0.8892    0.0000 C   0  0  0  0  0  0  0  0  0  0  0  0
    2.1786    0.9582    0.0000 C   0  0  0  0  0  0  0  0  0  0  0  0
    4.0745   -0.5571    0.0000 C   0  0  0  0  0  0  0  0  0  0  0  0
    2.8217   -1.3821    0.0000 C   0  0  0  0  0  0  0  0  0  0  0  0
   -2.7511    0.3814    0.0000 C   0  0  0  0  0  0  0  0  0  0  0  0
   -2.3537   -1.0650    0.0000 C   0  0  0  0  0  0  0  0  0  0  0  0
   -0.2459    1.0698    0.0000 C   0  0  0  0  0  0  0  0  0  0  0  0
    0.1516   -0.3766    0.0000 C   0  0  0  0  0  0  0  0  0  0  0  0
  1 11  1  0  0  0  0
  2 12  1  0  0  0  0
  3 12  2  0  0  0  0
  3 14  1  0  0  0  0
  4 11  2  0  0  0  0
  4 13  1  0  0  0  0
  5  8  2  0  0  0  0
  5 13  1  0  0  0  0
  6  8  1  0  0  0  0
  6 10  1  0  0  0  0
  6 14  1  0  0  0  0
  7  8  1  0  0  0  0
  7  9  1  0  0  0  0
  9 10  1  0  0  0  0
 11 12  1  0  0  0  0
 13 14  2  0  0  0  0
M  END
