177365
 OpenBabel03021519512D

 36 38  0  0  0  0  0  0  0  0999 V2000
    0.9240    5.8995    0.0000 N   0  0  0  0  0  0  0  0  0  0  0  0
    4.8212   12.6495    0.0000 C   0  0  0  0  0  0  0  0  0  0  0  0
    4.8212   11.1495    0.0000 C   0  0  0  0  0  0  0  0  0  0  0  0
    3.5221   13.3995    0.0000 C   0  0  0  0  0  0  0  0  0  0  0  0
    3.5221   10.3995    0.0000 C   0  0  0  0  0  0  0  0  0  0  0  0
    2.2231   12.6495    0.0000 C   0  0  0  0  0  0  0  0  0  0  0  0
    2.2231   11.1495    0.0000 C   0  0  0  0  0  0  0  0  0  0  0  0
    0.9240    8.8995    0.0000 C   0  0  0  0  0  0  0  0  0  0  0  0
   -0.3750    8.1495    0.0000 C   0  0  0  0  0  0  0  0  0  0  0  0
    2.2231    8.1495    0.0000 C   0  0  0  0  0  0  0  0  0  0  0  0
    3.5221    8.8995    0.0000 C   0  0  0  0  0  0  0  0  0  0  0  0
    4.8212    8.1495    0.0000 C   0  0  0  0  0  0  0  0  0  0  0  0
   -1.6740    8.8995    0.0000 C   0  0  0  0  0  0  0  0  0  0  0  0
   -2.9731    8.1495    0.0000 C   0  0  0  0  0  0  0  0  0  0  0  0
    4.8212    6.6495    0.0000 C   0  0  0  0  0  0  0  0  0  0  0  0
    2.2231    6.6495    0.0000 C   0  0  0  0  0  0  0  0  0  0  0  0
   -0.3750    6.6495    0.0000 C   0  0  0  0  0  0  0  0  0  0  0  0
   -2.9731    6.6495    0.0000 C   0  0  0  0  0  0  0  0  0  0  0  0
    3.5221    5.8995    0.0000 C   0  0  0  0  0  0  0  0  0  0  0  0
   -1.6740    5.8995    0.0000 C   0  0  0  0  0  0  0  0  0  0  0  0
    2.1226   14.3236    0.0000 Cl  0  0  0  0  0  0  0  0  0  0  0  0
    6.1202   13.3995    0.0000 N   0  0  0  0  0  0  0  0  0  0  0  0
    0.9240   10.3995    0.0000 N   0  0  0  0  0  0  0  0  0  0  0  0
    7.4192   12.6495    0.0000 S   0  0  0  0  0  0  0  0  0  0  0  0
    6.6692   11.3505    0.0000 O   0  0  0  0  0  0  0  0  0  0  0  0
    8.1692   13.9486    0.0000 O   0  0  0  0  0  0  0  0  0  0  0  0
    8.7183   11.8995    0.0000 C   0  0  0  0  0  0  0  0  0  0  0  0
   10.0173   12.6495    0.0000 C   0  0  0  0  0  0  0  0  0  0  0  0
   11.3163   11.8995    0.0000 C   0  0  0  0  0  0  0  0  0  0  0  0
    6.1202    5.8995    0.0000 N   0  3  0  0  0  0  0  0  0  0  0  0
    7.4192    6.6495    0.0000 O   0  5  0  0  0  0  0  0  0  0  0  0
    6.1202    4.3995    0.0000 O   0  0  0  0  0  0  0  0  0  0  0  0
   11.3163   10.3995    0.0000 N   0  0  0  0  0  0  0  0  0  0  0  0
   12.6154    9.6495    0.0000 C   0  0  0  0  0  0  0  0  0  0  0  0
   13.9144   10.3995    0.0000 N   0  0  0  0  0  0  0  0  0  0  0  0
   12.6154    8.1495    0.0000 N   0  0  0  0  0  0  0  0  0  0  0  0
  1 17  2  0  0  0  0
  1 16  1  0  0  0  0
  2  3  2  0  0  0  0
  2  4  1  0  0  0  0
  2 22  1  0  0  0  0
  3  5  1  0  0  0  0
  4  6  2  0  0  0  0
  5  7  2  0  0  0  0
  6  7  1  0  0  0  0
  7 23  1  0  0  0  0
  8  9  2  0  0  0  0
  8 10  1  0  0  0  0
  8 23  1  0  0  0  0
  9 13  1  0  0  0  0
  9 17  1  0  0  0  0
 10 16  2  0  0  0  0
 10 11  1  0  0  0  0
 11 12  2  0  0  0  0
 12 15  1  0  0  0  0
 13 14  2  0  0  0  0
 14 18  1  0  0  0  0
 15 19  2  0  0  0  0
 15 30  1  0  0  0  0
 16 19  1  0  0  0  0
 17 20  1  0  0  0  0
 18 20  2  0  0  0  0
 22 24  1  0  0  0  0
 24 25  2  0  0  0  0
 24 26  2  0  0  0  0
 24 27  1  0  0  0  0
 27 28  1  0  0  0  0
 28 29  1  0  0  0  0
 29 33  1  0  0  0  0
 30 31  1  0  0  0  0
 30 32  2  0  0  0  0
 33 34  1  0  0  0  0
 34 35  1  0  0  0  0
 34 36  2  0  0  0  0
M  CHG  2  30   1  31  -1
M  END
