22847
 OpenBabel03021519512D

 12 12  0  0  0  0  0  0  0  0999 V2000
   -4.6951   -2.6615    0.0000 C   0  0  0  0  0  0  0  0  0  0  0  0
   -3.4815   -3.5431    0.0000 C   0  0  0  0  0  0  0  0  0  0  0  0
   -5.9086   -3.5431    0.0000 C   0  0  0  0  0  0  0  0  0  0  0  0
   -3.9450   -4.9697    0.0000 C   0  0  0  0  0  0  0  0  0  0  0  0
   -5.4450   -4.9697    0.0000 C   0  0  0  0  0  0  0  0  0  0  0  0
   -2.7315   -2.2441    0.0000 N   0  0  0  0  0  0  0  0  0  0  0  0
   -3.4815   -0.9451    0.0000 C   0  0  0  0  0  0  0  0  0  0  0  0
   -2.7315    0.3540    0.0000 O   0  0  0  0  0  0  0  0  0  0  0  0
   -4.9815   -0.9451    0.0000 C   0  0  0  0  0  0  0  0  0  0  0  0
   -2.1112   -4.1532    0.0000 C   0  0  0  0  0  0  0  0  0  0  0  0
   -0.8977   -3.2716    0.0000 O   0  0  0  0  0  0  0  0  0  0  0  0
   -1.9544   -5.6450    0.0000 O   0  0  0  0  0  0  0  0  0  0  0  0
  1  2  1  0  0  0  0
  1  3  1  0  0  0  0
  2  4  1  0  0  0  0
  2  6  1  0  0  0  0
  2 10  1  0  0  0  0
  3  5  1  0  0  0  0
  4  5  1  0  0  0  0
  6  7  1  0  0  0  0
  7  8  2  0  0  0  0
  7  9  1  0  0  0  0
 10 11  2  0  0  0  0
 10 12  1  0  0  0  0
M  END
