670283
 OpenBabel03021519512D

 27 32  0  0  1  0  0  0  0  0999 V2000
    0.7500    3.0000    0.0000 C   0  0  0  0  0  0  0  0  0  0  0  0
    0.7500    1.5000    0.0000 C   0  0  0  0  0  0  0  0  0  0  0  0
    2.0490    0.7500    0.0000 C   0  0  0  0  0  0  0  0  0  0  0  0
    3.3481    1.5000    0.0000 C   0  0  0  0  0  0  0  0  0  0  0  0
    3.3481    3.0000    0.0000 C   0  0  0  0  0  0  0  0  0  0  0  0
    2.0490    3.7500    0.0000 C   0  0  0  0  0  0  0  0  0  0  0  0
    4.6471    0.7500    0.0000 C   0  0  0  0  0  0  0  0  0  0  0  0
    5.9462    1.5000    0.0000 C   0  0  0  0  0  0  0  0  0  0  0  0
    5.9462    3.0000    0.0000 C   0  0  0  0  0  0  0  0  0  0  0  0
    4.6471    3.7500    0.0000 C   0  0  0  0  0  0  0  0  0  0  0  0
    7.3727    1.0365    0.0000 C   0  0  0  0  0  0  0  0  0  0  0  0
    7.3727    3.4635    0.0000 C   0  0  0  0  0  0  0  0  0  0  0  0
    8.2544    2.2500    0.0000 C   0  0  3  0  0  0  0  0  0  0  0  0
    9.1361    1.0365    0.0000 C   0  0  0  0  0  0  0  0  0  0  0  0
   10.5627    1.5000    0.0000 C   0  0  0  0  0  0  0  0  0  0  0  0
   10.5627    3.0000    0.0000 C   0  0  0  0  0  0  0  0  0  0  0  0
    9.1361    3.4635    0.0000 C   0  0  0  0  0  0  0  0  0  0  0  0
   11.8617    0.7500    0.0000 C   0  0  0  0  0  0  0  0  0  0  0  0
   13.1608    1.5000    0.0000 C   0  0  0  0  0  0  0  0  0  0  0  0
   13.1608    3.0000    0.0000 C   0  0  0  0  0  0  0  0  0  0  0  0
   11.8617    3.7500    0.0000 C   0  0  0  0  0  0  0  0  0  0  0  0
   14.4598    0.7500    0.0000 C   0  0  0  0  0  0  0  0  0  0  0  0
   15.7588    1.5000    0.0000 C   0  0  0  0  0  0  0  0  0  0  0  0
   15.7588    3.0000    0.0000 C   0  0  0  0  0  0  0  0  0  0  0  0
   14.4598    3.7500    0.0000 C   0  0  0  0  0  0  0  0  0  0  0  0
    2.0490    5.2500    0.0000 O   0  0  0  0  0  0  0  0  0  0  0  0
   14.4598    5.2500    0.0000 O   0  0  0  0  0  0  0  0  0  0  0  0
  1  2  1  0  0  0  0
  1  6  1  0  0  0  0
  2  3  1  0  0  0  0
  3  4  1  0  0  0  0
  4  5  1  0  0  0  0
  4  7  2  0  0  0  0
  5  6  1  0  0  0  0
  5 10  2  0  0  0  0
  6 26  2  0  0  0  0
  7  8  1  0  0  0  0
  8  9  2  0  0  0  0
  8 11  1  0  0  0  0
  9 10  1  0  0  0  0
  9 12  1  0  0  0  0
 11 13  1  0  0  0  0
 12 13  1  0  0  0  0
 13 14  1  0  0  0  0
 13 17  1  0  0  0  0
 14 15  1  0  0  0  0
 15 16  2  0  0  0  0
 15 18  1  0  0  0  0
 16 17  1  0  0  0  0
 16 21  1  0  0  0  0
 18 19  2  0  0  0  0
 19 20  1  0  0  0  0
 19 22  1  0  0  0  0
 20 21  2  0  0  0  0
 20 25  1  0  0  0  0
 22 23  1  0  0  0  0
 23 24  1  0  0  0  0
 24 25  1  0  0  0  0
 25 27  2  0  0  0  0
M  END
