329676
 OpenBabel03021519512D

 15 15  0  0  0  0  0  0  0  0999 V2000
   -6.6662    4.9636    0.0000 C   0  0  0  0  0  0  0  0  0  0  0  0
   -7.7809    5.9673    0.0000 C   0  0  0  0  0  0  0  0  0  0  0  0
   -7.2763    3.5933    0.0000 N   0  0  0  0  0  0  0  0  0  0  0  0
   -8.7681    3.7500    0.0000 C   0  0  0  0  0  0  0  0  0  0  0  0
   -9.0800    5.2173    0.0000 N   0  0  0  0  0  0  0  0  0  0  0  0
   -6.5263   -0.3039    0.0000 O   0  0  0  0  0  0  0  0  0  0  0  0
   -4.2763    0.9952    0.0000 O   0  0  0  0  0  0  0  0  0  0  0  0
   -5.0263   -0.3039    0.0000 C   0  0  0  0  0  0  0  0  0  0  0  0
   -5.1990    5.2754    0.0000 N   0  3  0  0  0  0  0  0  0  0  0  0
   -4.7355    6.7020    0.0000 O   0  5  0  0  0  0  0  0  0  0  0  0
   -4.1953    4.1607    0.0000 O   0  0  0  0  0  0  0  0  0  0  0  0
   -6.5263    2.2942    0.0000 C   0  0  0  0  0  0  0  0  0  0  0  0
   -7.2763    0.9952    0.0000 C   0  0  0  0  0  0  0  0  0  0  0  0
   -9.7718    2.6353    0.0000 C   0  0  0  0  0  0  0  0  0  0  0  0
   -4.2763   -1.6029    0.0000 N   0  0  0  0  0  0  0  0  0  0  0  0
  1  3  1  0  0  0  0
  1  2  2  0  0  0  0
  1  9  1  0  0  0  0
  2  5  1  0  0  0  0
  3  4  1  0  0  0  0
  3 12  1  0  0  0  0
  4  5  2  0  0  0  0
  4 14  1  0  0  0  0
  6  8  1  0  0  0  0
  6 13  1  0  0  0  0
  7  8  2  0  0  0  0
  8 15  1  0  0  0  0
  9 10  1  0  0  0  0
  9 11  2  0  0  0  0
 12 13  1  0  0  0  0
M  CHG  2   9   1  10  -1
M  END
