401077
 OpenBabel03021519512D

 26 29  0  0  1  0  0  0  0  0999 V2000
  -10.3044   -3.6940    0.0000 O   0  0  0  0  0  0  0  0  0  0  0  0
   -8.4143   -5.5841    0.0000 N   0  0  0  0  0  0  0  0  0  0  0  0
   -7.2008   -7.9658    0.0000 O   0  0  0  0  0  0  0  0  0  0  0  0
   -3.1903   -2.4673    0.0000 N   0  0  0  0  0  0  0  0  0  0  0  0
   -2.7268   -1.0407    0.0000 H   0  0  0  0  0  0  0  0  0  0  0  0
   -0.8169   -3.8376    0.0000 C   0  0  0  0  0  0  0  0  0  0  0  0
   -2.3087   -3.6808    0.0000 C   0  0  0  0  0  0  0  0  0  0  0  0
   -0.2068   -5.2079    0.0000 C   0  0  0  0  0  0  0  0  0  0  0  0
   -1.0884   -6.4215    0.0000 C   0  0  0  0  0  0  0  0  0  0  0  0
   -3.1903   -4.8944    0.0000 C   0  0  0  0  0  0  0  0  0  0  0  0
   -2.5802   -6.2647    0.0000 C   0  0  0  0  0  0  0  0  0  0  0  0
   -4.6169   -4.4308    0.0000 C   0  0  0  0  0  0  0  0  0  0  0  0
   -4.6169   -2.9308    0.0000 C   0  0  0  0  0  0  0  0  0  0  0  0
   -9.8409   -5.1206    0.0000 C   0  0  0  0  0  0  0  0  0  0  0  0
  -10.7225   -6.3341    0.0000 C   0  0  0  0  0  0  0  0  0  0  0  0
  -12.2143   -6.4909    0.0000 C   0  0  0  0  0  0  0  0  0  0  0  0
  -12.8244   -7.8612    0.0000 C   0  0  0  0  0  0  0  0  0  0  0  0
   -9.8409   -7.5476    0.0000 C   0  0  0  0  0  0  0  0  0  0  0  0
  -11.9428   -9.0747    0.0000 C   0  0  0  0  0  0  0  0  0  0  0  0
  -10.4510   -8.9179    0.0000 C   0  0  0  0  0  0  0  0  0  0  0  0
   -8.4143   -7.0841    0.0000 C   0  0  0  0  0  0  0  0  0  0  0  0
   -7.2008   -4.7024    0.0000 C   0  0  3  0  0  0  0  0  0  0  0  0
   -7.3576   -3.2106    0.0000 C   0  0  0  0  0  0  0  0  0  0  0  0
   -6.1440   -2.3290    0.0000 O   0  0  0  0  0  0  0  0  0  0  0  0
   -8.7279   -2.6005    0.0000 O   0  0  0  0  0  0  0  0  0  0  0  0
   -5.8304   -5.3125    0.0000 C   0  0  0  0  0  0  0  0  0  0  0  0
  1 14  2  0  0  0  0
  2 14  1  0  0  0  0
  2 21  1  0  0  0  0
  2 22  1  0  0  0  0
  3 21  2  0  0  0  0
  4  7  1  0  0  0  0
  4 13  1  0  0  0  0
  4  5  1  0  0  0  0
  6  8  2  0  0  0  0
  6  7  1  0  0  0  0
  7 10  2  0  0  0  0
  8  9  1  0  0  0  0
  9 11  2  0  0  0  0
 10 11  1  0  0  0  0
 10 12  1  0  0  0  0
 12 13  2  0  0  0  0
 12 26  1  0  0  0  0
 14 15  1  0  0  0  0
 15 18  2  0  0  0  0
 15 16  1  0  0  0  0
 16 17  2  0  0  0  0
 17 19  1  0  0  0  0
 18 20  1  0  0  0  0
 18 21  1  0  0  0  0
 19 20  2  0  0  0  0
 22 23  1  0  0  0  0
 22 26  1  0  0  0  0
 23 24  2  0  0  0  0
 23 25  1  0  0  0  0
M  END
