19803
 OpenBabel03021519512D

 33 36  0  0  1  0  0  0  0  0999 V2000
    3.9514   13.5403    0.0000 C   0  0  0  0  0  0  0  0  0  0  0  0
    2.4514   13.5403    0.0000 C   0  0  0  0  0  0  0  0  0  0  0  0
   -2.7986   14.8393    0.0000 C   0  0  0  0  0  0  0  0  0  0  0  0
    4.7014   12.2412    0.0000 C   0  0  0  0  0  0  0  0  0  0  0  0
    1.7014   12.2412    0.0000 C   0  0  0  0  0  0  0  0  0  0  0  0
    0.2014   12.2412    0.0000 C   0  0  0  0  0  0  0  0  0  0  0  0
   -2.0486   13.5402    0.0000 C   0  0  0  0  0  0  0  0  0  0  0  0
   -4.2986   14.8393    0.0000 C   0  0  0  0  0  0  0  0  0  0  0  0
    3.9514   10.9422    0.0000 C   0  0  0  0  0  0  0  0  0  0  0  0
    2.4514   10.9422    0.0000 C   0  0  0  0  0  0  0  0  0  0  0  0
   -0.5486   10.9422    0.0000 C   0  0  0  0  0  0  0  0  0  0  0  0
   -2.7986   12.2412    0.0000 C   0  0  0  0  0  0  0  0  0  0  0  0
   -5.0486   13.5402    0.0000 C   0  0  0  0  0  0  0  0  0  0  0  0
   -2.0486   10.9422    0.0000 C   0  0  0  0  0  0  0  0  0  0  0  0
   -4.2986   12.2412    0.0000 C   0  0  0  0  0  0  0  0  0  0  0  0
   -0.5486    5.7460    0.0000 C   0  0  3  0  0  0  0  0  0  0  0  0
   -2.0486    5.7460    0.0000 C   0  0  3  0  0  0  0  0  0  0  0  0
   -0.5486    8.3441    0.0000 C   0  0  3  0  0  0  0  0  0  0  0  0
   -2.7986    7.0450    0.0000 C   0  0  3  0  0  0  0  0  0  0  0  0
   -2.0486    8.3441    0.0000 C   0  0  3  0  0  0  0  0  0  0  0  0
   -2.7986    9.6431    0.0000 O   0  0  0  0  0  0  0  0  0  0  0  0
   -0.5486   13.5402    0.0000 O   0  0  0  0  0  0  0  0  0  0  0  0
    0.2014    9.6431    0.0000 O   0  0  0  0  0  0  0  0  0  0  0  0
    0.2014    7.0451    0.0000 O   0  0  0  0  0  0  0  0  0  0  0  0
   -5.0486   16.1383    0.0000 O   0  0  0  0  0  0  0  0  0  0  0  0
   -5.0486   10.9422    0.0000 O   0  0  0  0  0  0  0  0  0  0  0  0
   -1.2986    7.0450    0.0000 O   0  0  0  0  0  0  0  0  0  0  0  0
    4.7014   14.8393    0.0000 O   0  0  0  0  0  0  0  0  0  0  0  0
    4.7014    9.6431    0.0000 O   0  0  0  0  0  0  0  0  0  0  0  0
   -1.2986    7.0450    0.0000 O   0  0  0  0  0  0  0  0  0  0  0  0
    6.2014   12.2412    0.0000 O   0  0  0  0  0  0  0  0  0  0  0  0
    0.2014    4.4470    0.0000 C   0  0  0  0  0  0  0  0  0  0  0  0
   -2.7986    4.4470    0.0000 O   0  0  0  0  0  0  0  0  0  0  0  0
  1  2  1  0  0  0  0
  1  4  2  0  0  0  0
  1 28  1  0  0  0  0
  2  5  2  0  0  0  0
  3  8  2  0  0  0  0
  3  7  1  0  0  0  0
  4  9  1  0  0  0  0
  4 31  1  0  0  0  0
  5  6  1  0  0  0  0
  5 10  1  0  0  0  0
  6 22  1  0  0  0  0
  6 11  2  0  0  0  0
  7 22  1  0  0  0  0
  7 12  2  0  0  0  0
  8 13  1  0  0  0  0
  8 25  1  0  0  0  0
  9 10  2  0  0  0  0
  9 29  1  0  0  0  0
 11 23  1  0  0  0  0
 11 14  1  0  0  0  0
 12 14  1  0  0  0  0
 12 15  1  0  0  0  0
 13 15  2  0  0  0  0
 14 21  2  0  0  0  0
 15 26  1  0  0  0  0
 16 24  1  0  0  0  0
 16 17  1  0  0  0  0
 16 32  1  0  0  0  0
 17 19  1  0  0  0  0
 17 33  1  0  0  0  0
 18 23  1  0  0  0  0
 18 24  1  0  0  0  0
 18 20  1  0  0  0  0
 19 20  1  0  0  0  0
 19 30  1  0  0  0  0
 20 27  1  0  0  0  0
M  END
