369986
 OpenBabel03021519512D

 24 26  0  0  0  0  0  0  0  0999 V2000
    3.9106  -14.0211    0.0000 C   0  0  0  0  0  0  0  0  0  0  0  0
    5.1658  -13.1998    0.0000 C   0  0  0  0  0  0  0  0  0  0  0  0
    2.5718  -13.3446    0.0000 C   0  0  0  0  0  0  0  0  0  0  0  0
    2.4882  -11.8470    0.0000 C   0  0  0  0  0  0  0  0  0  0  0  0
    5.0822  -11.7021    0.0000 C   0  0  0  0  0  0  0  0  0  0  0  0
    3.7434  -11.0257    0.0000 N   0  0  0  0  0  0  0  0  0  0  0  0
    3.6598   -9.5280    0.0000 C   0  0  0  0  0  0  0  0  0  0  0  0
    4.8223   -8.5801    0.0000 N   0  0  0  0  0  0  0  0  0  0  0  0
    2.3990   -8.7154    0.0000 N   0  0  0  0  0  0  0  0  0  0  0  0
    2.7823   -7.2652    0.0000 N   0  0  0  0  0  0  0  0  0  0  0  0
    4.2799   -7.1816    0.0000 N   0  0  0  0  0  0  0  0  0  0  0  0
    2.6025   -4.8143    0.0000 C   0  0  0  0  0  0  0  0  0  0  0  0
    4.1023   -4.8354    0.0000 O   0  0  0  0  0  0  0  0  0  0  0  0
    2.8510   -2.3695    0.0000 N   0  0  0  0  0  0  0  0  0  0  0  0
    5.3046   -1.5152    0.0000 C   0  0  0  0  0  0  0  0  0  0  0  0
    4.8114   -0.0986    0.0000 C   0  0  0  0  0  0  0  0  0  0  0  0
    6.7780   -1.7964    0.0000 C   0  0  0  0  0  0  0  0  0  0  0  0
    7.7582   -0.6610    0.0000 C   0  0  0  0  0  0  0  0  0  0  0  0
    5.7916    1.0368    0.0000 C   0  0  0  0  0  0  0  0  0  0  0  0
    7.2650    0.7556    0.0000 C   0  0  0  0  0  0  0  0  0  0  0  0
    1.8343   -6.1027    0.0000 C   0  0  0  0  0  0  0  0  0  0  0  0
    1.8708   -3.5049    0.0000 N   0  0  0  0  0  0  0  0  0  0  0  0
    4.3244   -2.6506    0.0000 C   0  0  0  0  0  0  0  0  0  0  0  0
    3.3380    0.1826    0.0000 O   0  0  0  0  0  0  0  0  0  0  0  0
  1  2  1  0  0  0  0
  1  3  1  0  0  0  0
  2  5  1  0  0  0  0
  3  4  1  0  0  0  0
  4  6  1  0  0  0  0
  5  6  1  0  0  0  0
  6  7  1  0  0  0  0
  7  8  1  0  0  0  0
  7  9  2  0  0  0  0
  8 11  2  0  0  0  0
  9 10  1  0  0  0  0
 10 11  1  0  0  0  0
 10 21  1  0  0  0  0
 12 13  2  0  0  0  0
 12 21  1  0  0  0  0
 12 22  1  0  0  0  0
 14 22  1  0  0  0  0
 14 23  2  0  0  0  0
 15 16  2  0  0  0  0
 15 17  1  0  0  0  0
 15 23  1  0  0  0  0
 16 19  1  0  0  0  0
 16 24  1  0  0  0  0
 17 18  2  0  0  0  0
 18 20  1  0  0  0  0
 19 20  2  0  0  0  0
M  END
