86467
 OpenBabel03021519512D

 27 30  0  0  1  0  0  0  0  0999 V2000
   -0.7705  -13.1559    0.0000 O   0  0  0  0  0  0  0  0  0  0  0  0
    2.5516   -8.8882    0.0000 H   0  0  0  0  0  0  0  0  0  0  0  0
    2.2800   -6.3044    0.0000 H   0  0  0  0  0  0  0  0  0  0  0  0
    4.7755   -7.2623    0.0000 H   0  0  0  0  0  0  0  0  0  0  0  0
    3.3083   -2.2939    0.0000 O   0  0  0  0  0  0  0  0  0  0  0  0
    3.7718   -3.7205    0.0000 C   0  0  0  0  0  0  0  0  0  0  0  0
    5.1984   -4.1840    0.0000 C   0  0  0  0  0  0  0  0  0  0  0  0
    2.8901   -4.9340    0.0000 C   0  0  1  0  0  0  0  0  0  0  0  0
    1.3983   -5.0908    0.0000 C   0  0  0  0  0  0  0  0  0  0  0  0
    0.7882   -6.4611    0.0000 C   0  0  0  0  0  0  0  0  0  0  0  0
    5.1984   -5.6840    0.0000 C   0  0  0  0  0  0  0  0  0  0  0  0
    3.7718   -6.1476    0.0000 C   0  0  1  0  0  0  0  0  0  0  0  0
    1.6699   -7.6747    0.0000 C   0  0  1  0  0  0  0  0  0  0  0  0
    3.1617   -7.5179    0.0000 C   0  0  1  0  0  0  0  0  0  0  0  0
    1.0598   -9.0450    0.0000 C   0  0  0  0  0  0  0  0  0  0  0  0
   -0.4320   -9.2018    0.0000 C   0  0  0  0  0  0  0  0  0  0  0  0
   -1.0421  -10.5721    0.0000 C   0  0  0  0  0  0  0  0  0  0  0  0
    4.0434   -8.7314    0.0000 C   0  0  0  0  0  0  0  0  0  0  0  0
    1.9415  -10.2585    0.0000 C   0  0  0  0  0  0  0  0  0  0  0  0
   -0.1604  -11.7856    0.0000 C   0  0  0  0  0  0  0  0  0  0  0  0
    3.4333  -10.1017    0.0000 C   0  0  0  0  0  0  0  0  0  0  0  0
    1.3314  -11.6288    0.0000 C   0  0  0  0  0  0  0  0  0  0  0  0
   -3.1440  -12.0992    0.0000 C   0  0  0  0  0  0  0  0  0  0  0  0
   -2.5339  -10.7289    0.0000 O   0  0  0  0  0  0  0  0  0  0  0  0
   -4.6358  -12.2560    0.0000 O   0  0  0  0  0  0  0  0  0  0  0  0
   -2.2623  -13.3127    0.0000 C   0  0  0  0  0  0  0  0  0  0  0  0
    2.1401   -3.6350    0.0000 C   0  0  0  0  0  0  0  0  0  0  0  0
  1 20  1  0  0  0  0
  1 26  1  0  0  0  0
  5  6  2  0  0  0  0
  6  7  1  0  0  0  0
  6  8  1  0  0  0  0
  7 11  1  0  0  0  0
  8  9  1  0  0  0  0
  8 12  1  0  0  0  0
  8 27  1  1  0  0  0
  9 10  1  0  0  0  0
 10 13  1  0  0  0  0
 11 12  1  0  0  0  0
 12  4  1  6  0  0  0
 12 14  1  0  0  0  0
 13  2  1  6  0  0  0
 13 15  1  0  0  0  0
 13 14  1  0  0  0  0
 14  3  1  1  0  0  0
 14 18  1  0  0  0  0
 15 19  2  0  0  0  0
 15 16  1  0  0  0  0
 16 17  2  0  0  0  0
 17 20  1  0  0  0  0
 18 21  1  0  0  0  0
 19 21  1  0  0  0  0
 19 22  1  0  0  0  0
 20 22  2  0  0  0  0
 23 24  2  0  0  0  0
 23 25  1  0  0  0  0
 23 26  1  0  0  0  0
M  END
