52241
 OpenBabel03021519512D

 22 24  0  0  1  0  0  0  0  0999 V2000
   -8.2703    3.8246    0.0000 C   0  0  0  0  0  0  0  0  0  0  0  0
   -7.5203    2.5255    0.0000 C   0  0  0  0  0  0  0  0  0  0  0  0
  -10.5203    7.7217    0.0000 C   0  0  0  0  0  0  0  0  0  0  0  0
  -11.2703    6.4226    0.0000 C   0  0  0  0  0  0  0  0  0  0  0  0
   -9.0203    7.7217    0.0000 C   0  0  0  0  0  0  0  0  0  0  0  0
   -8.2703    6.4227    0.0000 C   0  0  0  0  0  0  0  0  0  0  0  0
  -10.5203    5.1236    0.0000 C   0  0  0  0  0  0  0  0  0  0  0  0
   -9.0203    5.1236    0.0000 C   0  0  0  0  0  0  0  0  0  0  0  0
   -5.4713    3.4765    0.0000 C   0  0  0  0  0  0  0  0  0  0  0  0
   -4.1722    4.2265    0.0000 C   0  0  0  0  0  0  0  0  0  0  0  0
   -5.4713    1.9765    0.0000 C   0  0  0  0  0  0  0  0  0  0  0  0
   -2.8732    3.4765    0.0000 C   0  0  0  0  0  0  0  0  0  0  0  0
   -4.1722    1.2265    0.0000 C   0  0  0  0  0  0  0  0  0  0  0  0
   -2.8732    1.9765    0.0000 C   0  0  0  0  0  0  0  0  0  0  0  0
   -9.3684    1.2265    0.0000 C   0  0  0  0  0  0  0  0  0  0  0  0
  -10.6674    0.4765    0.0000 C   0  0  0  0  0  0  0  0  0  0  0  0
   -8.0693    0.4765    0.0000 C   0  0  0  0  0  0  0  0  0  0  0  0
   -8.0693   -1.0235    0.0000 C   0  0  0  0  0  0  0  0  0  0  0  0
  -10.6674   -1.0235    0.0000 C   0  0  0  0  0  0  0  0  0  0  0  0
   -9.3684   -1.7735    0.0000 C   0  0  0  0  0  0  0  0  0  0  0  0
   -6.7703    1.2265    0.0000 C   0  0  3  0  0  0  0  0  0  0  0  0
   -6.0203   -0.0725    0.0000 O   0  0  0  0  0  0  0  0  0  0  0  0
  1  8  1  0  0  0  0
  1  2  3  0  0  0  0
  2 21  1  0  0  0  0
  3  5  2  0  0  0  0
  3  4  1  0  0  0  0
  4  7  2  0  0  0  0
  5  6  1  0  0  0  0
  6  8  2  0  0  0  0
  7  8  1  0  0  0  0
  9 10  2  0  0  0  0
  9 11  1  0  0  0  0
 10 12  1  0  0  0  0
 11 13  2  0  0  0  0
 11 21  1  0  0  0  0
 12 14  2  0  0  0  0
 13 14  1  0  0  0  0
 15 16  2  0  0  0  0
 15 17  1  0  0  0  0
 16 19  1  0  0  0  0
 17 18  2  0  0  0  0
 17 21  1  0  0  0  0
 18 20  1  0  0  0  0
 19 20  2  0  0  0  0
 21 22  1  0  0  0  0
M  END
