122819
 OpenBabel03021519512D

 49 56  0  0  1  0  0  0  0  0999 V2000
   -7.6364   -0.1709    0.0000 S   0  0  0  0  0  0  0  0  0  0  0  0
  -10.8402   11.3504    0.0000 O   0  0  0  0  0  0  0  0  0  0  0  0
   -5.7244    1.6971    0.0000 C   0  0  2  0  0  0  0  0  0  0  0  0
   -9.4136   13.3139    0.0000 O   0  0  0  0  0  0  0  0  0  0  0  0
   -4.2281    1.8017    0.0000 O   0  0  0  0  0  0  0  0  0  0  0  0
   -6.3345    3.0674    0.0000 O   0  0  0  0  0  0  0  0  0  0  0  0
   -3.5705    3.1499    0.0000 C   0  0  0  0  0  0  0  0  0  0  0  0
   -5.2481    5.6370    0.0000 O   0  0  0  0  0  0  0  0  0  0  0  0
   -7.5833    6.7759    0.0000 O   0  0  0  0  0  0  0  0  0  0  0  0
   -3.3244   10.1609    0.0000 H   0  0  0  0  0  0  0  0  0  0  0  0
   -5.9598    6.5336    0.0000 H   0  0  0  0  0  0  0  0  0  0  0  0
   -1.6880    9.4644    0.0000 O   0  0  0  0  0  0  0  0  0  0  0  0
   -2.9015    7.0827    0.0000 O   0  0  0  0  0  0  0  0  0  0  0  0
   -2.2932   14.0571    0.0000 C   0  0  0  0  0  0  0  0  0  0  0  0
   -3.7850   14.2139    0.0000 C   0  0  0  0  0  0  0  0  0  0  0  0
   -1.6831   12.6868    0.0000 C   0  0  0  0  0  0  0  0  0  0  0  0
   -2.5648   11.4733    0.0000 C   0  0  0  0  0  0  0  0  0  0  0  0
   -4.6667   13.0004    0.0000 C   0  0  0  0  0  0  0  0  0  0  0  0
   -4.0566   11.6300    0.0000 C   0  0  0  0  0  0  0  0  0  0  0  0
   -4.9382   10.4165    0.0000 C   0  0  2  0  0  0  0  0  0  0  0  0
   -6.4300   10.5733    0.0000 C   0  0  0  0  0  0  0  0  0  0  0  0
   -4.3281    9.0462    0.0000 C   0  0  1  0  0  0  0  0  0  0  0  0
   -2.9015    8.5827    0.0000 C   0  0  0  0  0  0  0  0  0  0  0  0
   -7.0401   11.9436    0.0000 C   0  0  0  0  0  0  0  0  0  0  0  0
   -8.5319   12.1004    0.0000 C   0  0  0  0  0  0  0  0  0  0  0  0
   -5.2098    7.8327    0.0000 C   0  0  2  0  0  0  0  0  0  0  0  0
   -7.3117    9.3598    0.0000 C   0  0  0  0  0  0  0  0  0  0  0  0
   -9.4136   10.8869    0.0000 C   0  0  0  0  0  0  0  0  0  0  0  0
   -4.3281    6.6191    0.0000 C   0  0  0  0  0  0  0  0  0  0  0  0
   -6.7016    7.9895    0.0000 C   0  0  1  0  0  0  0  0  0  0  0  0
   -8.8035    9.5166    0.0000 C   0  0  0  0  0  0  0  0  0  0  0  0
  -10.8402   12.8504    0.0000 C   0  0  0  0  0  0  0  0  0  0  0  0
   -4.4093    4.3935    0.0000 C   0  0  3  0  0  0  0  0  0  0  0  0
   -5.0669    3.0453    0.0000 C   0  0  3  0  0  0  0  0  0  0  0  0
   -6.5632    2.9406    0.0000 C   0  0  3  0  0  0  0  0  0  0  0  0
   -7.4020    4.1842    0.0000 C   0  0  3  0  0  0  0  0  0  0  0  0
   -6.7445    5.5324    0.0000 C   0  0  3  0  0  0  0  0  0  0  0  0
   -7.1563    1.2502    0.0000 C   0  0  0  0  0  0  0  0  0  0  0  0
   -8.3595    2.1459    0.0000 C   0  0  0  0  0  0  0  0  0  0  0  0
   -9.5832    1.2784    0.0000 C   0  0  0  0  0  0  0  0  0  0  0  0
   -9.1363   -0.1535    0.0000 C   0  0  0  0  0  0  0  0  0  0  0  0
   -4.3951   15.5842    0.0000 O   0  0  0  0  0  0  0  0  0  0  0  0
   -5.8869   15.7410    0.0000 C   0  0  0  0  0  0  0  0  0  0  0  0
   -5.9057    4.2888    0.0000 O   0  0  0  0  0  0  0  0  0  0  0  0
   -8.8984    4.0796    0.0000 O   0  0  0  0  0  0  0  0  0  0  0  0
   -1.4115   15.2706    0.0000 O   0  0  0  0  0  0  0  0  0  0  0  0
   -0.1913   12.5300    0.0000 O   0  0  0  0  0  0  0  0  0  0  0  0
    0.4188   11.1597    0.0000 C   0  0  0  0  0  0  0  0  0  0  0  0
   -5.4468    0.2230    0.0000 H   0  0  0  0  0  0  0  0  0  0  0  0
  1 38  1  0  0  0  0
  1 41  1  0  0  0  0
  2 28  1  0  0  0  0
  2 32  1  0  0  0  0
  3  5  1  0  0  0  0
  3  6  1  0  0  0  0
  3 38  1  0  0  0  0
  3 49  1  6  0  0  0
  4 25  1  0  0  0  0
  4 32  1  0  0  0  0
  5  7  1  0  0  0  0
  6 34  1  0  0  0  0
  7 33  1  0  0  0  0
  8 33  1  0  0  0  0
  8 37  1  0  0  0  0
  9 37  1  0  0  0  0
 12 23  2  0  0  0  0
 13 23  1  0  0  0  0
 13 29  1  0  0  0  0
 14 16  2  0  0  0  0
 14 15  1  0  0  0  0
 14 46  1  0  0  0  0
 15 18  2  0  0  0  0
 15 42  1  0  0  0  0
 16 17  1  0  0  0  0
 16 47  1  0  0  0  0
 17 19  2  0  0  0  0
 18 19  1  0  0  0  0
 20 19  1  1  0  0  0
 20 21  1  0  0  0  0
 20 22  1  0  0  0  0
 21 27  2  0  0  0  0
 21 24  1  0  0  0  0
 22 10  1  6  0  0  0
 22 23  1  0  0  0  0
 22 26  1  0  0  0  0
 24 25  2  0  0  0  0
 25 28  1  0  0  0  0
 26 11  1  1  0  0  0
 26 29  1  0  0  0  0
 26 30  1  0  0  0  0
 27 30  1  0  0  0  0
 27 31  1  0  0  0  0
 28 31  2  0  0  0  0
 30  9  1  6  0  0  0
 33 34  1  0  0  0  0
 34 35  1  0  0  0  0
 35 36  1  0  0  0  0
 35 44  1  0  0  0  0
 36 37  1  0  0  0  0
 36 45  1  0  0  0  0
 38 39  2  0  0  0  0
 39 40  1  0  0  0  0
 40 41  2  0  0  0  0
 42 43  1  0  0  0  0
 47 48  1  0  0  0  0
M  END
