5564
 OpenBabel03021519512D

 20 22  0  0  1  0  0  0  0  0999 V2000
   -2.3273   -7.0310    0.0000 N   0  0  0  0  0  0  0  0  0  0  0  0
   -0.1284   -8.7152    0.0000 C   0  0  2  0  0  0  0  0  0  0  0  0
    0.6216  -10.0143    0.0000 C   0  0  2  0  0  0  0  0  0  0  0  0
   -3.3880  -10.6867    0.0000 C   0  0  0  0  0  0  0  0  0  0  0  0
   -2.3273   -9.6260    0.0000 C   0  0  3  0  0  0  0  0  0  0  0  0
   -0.8784  -10.0143    0.0000 C   0  0  0  0  0  0  0  0  0  0  0  0
   -2.3273   -5.5310    0.0000 C   0  0  0  0  0  0  0  0  0  0  0  0
    0.7847   -7.5252    0.0000 C   0  0  0  0  0  0  0  0  0  0  0  0
    2.2719   -7.7210    0.0000 O   0  0  0  0  0  0  0  0  0  0  0  0
    3.1850   -6.5309    0.0000 C   0  0  0  0  0  0  0  0  0  0  0  0
    4.6722   -6.7267    0.0000 O   0  0  0  0  0  0  0  0  0  0  0  0
    2.6110   -5.1451    0.0000 C   0  0  0  0  0  0  0  0  0  0  0  0
    1.1238   -4.9493    0.0000 C   0  0  0  0  0  0  0  0  0  0  0  0
    0.5498   -3.5635    0.0000 C   0  0  0  0  0  0  0  0  0  0  0  0
    1.4629   -2.3735    0.0000 C   0  0  0  0  0  0  0  0  0  0  0  0
    2.9501   -2.5693    0.0000 C   0  0  0  0  0  0  0  0  0  0  0  0
    3.5241   -3.9551    0.0000 C   0  0  0  0  0  0  0  0  0  0  0  0
    1.9206  -10.7643    0.0000 O   0  0  0  0  0  0  0  0  0  0  0  0
   -3.3880   -9.1867    0.0000 C   0  0  0  0  0  0  0  0  0  0  0  0
   -2.3273   -8.1260    0.0000 C   0  0  3  0  0  0  0  0  0  0  0  0
  1  5  1  0  0  0  0
  1  7  1  0  0  0  0
  1 20  1  0  0  0  0
  2  3  1  0  0  0  0
  2  8  1  1  0  0  0
  2 20  1  0  0  0  0
  3  6  1  0  0  0  0
  3 18  1  1  0  0  0
  4  5  1  0  0  0  0
  4 19  1  0  0  0  0
  5  6  1  0  0  0  0
  8  9  1  0  0  0  0
  9 10  1  0  0  0  0
 10 11  2  0  0  0  0
 10 12  1  0  0  0  0
 12 13  2  0  0  0  0
 12 17  1  0  0  0  0
 13 14  1  0  0  0  0
 14 15  2  0  0  0  0
 15 16  1  0  0  0  0
 16 17  2  0  0  0  0
 19 20  1  0  0  0  0
M  END
