72947
 OpenBabel03021519512D

 20 21  0  0  0  0  0  0  0  0999 V2000
    5.9894   -0.1408    0.0000 O   0  0  0  0  0  0  0  0  0  0  0  0
    6.9960   -9.1622    0.0000 O   0  0  0  0  0  0  0  0  0  0  0  0
    7.8795   -2.0310    0.0000 O   0  0  0  0  0  0  0  0  0  0  0  0
    6.4529   -1.5674    0.0000 C   0  0  0  0  0  0  0  0  0  0  0  0
    5.5712   -2.7810    0.0000 C   0  0  0  0  0  0  0  0  0  0  0  0
    4.0794   -2.9378    0.0000 C   0  0  0  0  0  0  0  0  0  0  0  0
    3.4693   -4.3081    0.0000 C   0  0  0  0  0  0  0  0  0  0  0  0
    6.4529   -3.9945    0.0000 C   0  0  0  0  0  0  0  0  0  0  0  0
    4.3510   -5.5216    0.0000 C   0  0  0  0  0  0  0  0  0  0  0  0
    5.8428   -5.3648    0.0000 C   0  0  0  0  0  0  0  0  0  0  0  0
    7.8795   -3.5310    0.0000 C   0  0  0  0  0  0  0  0  0  0  0  0
    1.9775   -4.4649    0.0000 O   0  0  0  0  0  0  0  0  0  0  0  0
    1.3674   -5.8352    0.0000 C   0  0  0  0  0  0  0  0  0  0  0  0
    3.7409   -6.8919    0.0000 O   0  0  0  0  0  0  0  0  0  0  0  0
    2.2491   -7.0487    0.0000 C   0  0  0  0  0  0  0  0  0  0  0  0
    3.1977   -1.7242    0.0000 N   0  3  0  0  0  0  0  0  0  0  0  0
    1.7060   -1.8810    0.0000 O   0  5  0  0  0  0  0  0  0  0  0  0
    3.8078   -0.3539    0.0000 O   0  0  0  0  0  0  0  0  0  0  0  0
    6.7245   -6.5783    0.0000 N   0  0  0  0  0  0  0  0  0  0  0  0
    6.1144   -7.9486    0.0000 C   0  0  0  0  0  0  0  0  0  0  0  0
  1  4  2  0  0  0  0
  2 20  2  0  0  0  0
  3  4  1  0  0  0  0
  3 11  1  0  0  0  0
  4  5  1  0  0  0  0
  5  8  2  0  0  0  0
  5  6  1  0  0  0  0
  6  7  2  0  0  0  0
  6 16  1  0  0  0  0
  7  9  1  0  0  0  0
  7 12  1  0  0  0  0
  8 10  1  0  0  0  0
  8 11  1  0  0  0  0
  9 10  2  0  0  0  0
  9 14  1  0  0  0  0
 10 19  1  0  0  0  0
 12 13  1  0  0  0  0
 14 15  1  0  0  0  0
 16 17  1  0  0  0  0
 16 18  2  0  0  0  0
 19 20  1  0  0  0  0
M  CHG  2  16   1  17  -1
M  END
