83961
 OpenBabel03021519512D

 21 23  0  0  0  0  0  0  0  0999 V2000
    1.6740    1.3995    0.0000 N   0  0  0  0  0  0  0  0  0  0  0  0
    2.9731    3.6495    0.0000 Cl  0  0  0  0  0  0  0  0  0  0  0  0
    2.9731   -0.8505    0.0000 N   0  0  0  0  0  0  0  0  0  0  0  0
    5.6987    1.8630    0.0000 N   0  0  0  0  0  0  0  0  0  0  0  0
    5.6987   -0.5640    0.0000 N   0  0  0  0  0  0  0  0  0  0  0  0
    2.9731    2.1495    0.0000 C   0  0  0  0  0  0  0  0  0  0  0  0
    4.2721    1.3995    0.0000 C   0  0  0  0  0  0  0  0  0  0  0  0
    4.2721   -0.1005    0.0000 C   0  0  0  0  0  0  0  0  0  0  0  0
    6.5804    0.6495    0.0000 C   0  0  0  0  0  0  0  0  0  0  0  0
    1.6740   -0.1005    0.0000 C   0  0  0  0  0  0  0  0  0  0  0  0
    8.6332   -1.1877    0.0000 C   0  0  0  0  0  0  0  0  0  0  0  0
   10.1004   -1.4996    0.0000 C   0  0  0  0  0  0  0  0  0  0  0  0
    7.6295   -2.3025    0.0000 C   0  0  0  0  0  0  0  0  0  0  0  0
   10.5639   -2.9262    0.0000 C   0  0  0  0  0  0  0  0  0  0  0  0
    8.0930   -3.7290    0.0000 C   0  0  0  0  0  0  0  0  0  0  0  0
    9.5602   -4.0409    0.0000 C   0  0  0  0  0  0  0  0  0  0  0  0
    6.1622   -1.9906    0.0000 C   0  0  0  0  0  0  0  0  0  0  0  0
   12.0311   -3.2380    0.0000 C   0  0  0  0  0  0  0  0  0  0  0  0
   13.0348   -2.1233    0.0000 O   0  0  0  0  0  0  0  0  0  0  0  0
   12.4947   -4.6646    0.0000 O   0  0  0  0  0  0  0  0  0  0  0  0
   13.9619   -4.9765    0.0000 C   0  0  0  0  0  0  0  0  0  0  0  0
  1  6  2  0  0  0  0
  1 10  1  0  0  0  0
  2  6  1  0  0  0  0
  3 10  2  0  0  0  0
  3  8  1  0  0  0  0
  4  9  2  0  0  0  0
  4  7  1  0  0  0  0
  5  8  1  0  0  0  0
  5  9  1  0  0  0  0
  5 17  1  0  0  0  0
  6  7  1  0  0  0  0
  7  8  2  0  0  0  0
 11 12  2  0  0  0  0
 11 13  1  0  0  0  0
 12 14  1  0  0  0  0
 13 15  2  0  0  0  0
 13 17  1  0  0  0  0
 14 16  2  0  0  0  0
 14 18  1  0  0  0  0
 15 16  1  0  0  0  0
 18 19  2  0  0  0  0
 18 20  1  0  0  0  0
 20 21  1  0  0  0  0
M  END
