29073
 OpenBabel03021519512D

 20 20  0  0  0  0  0  0  0  0999 V2000
   -6.1471   -0.7500    0.0000 C   0  0  0  0  0  0  0  0  0  0  0  0
   -4.8481   -1.5000    0.0000 C   0  0  0  0  0  0  0  0  0  0  0  0
   -7.4462   -1.5000    0.0000 C   0  0  0  0  0  0  0  0  0  0  0  0
   -4.8481   -3.0000    0.0000 C   0  0  0  0  0  0  0  0  0  0  0  0
   -7.4461   -3.0000    0.0000 C   0  0  0  0  0  0  0  0  0  0  0  0
   -6.1471   -3.7500    0.0000 C   0  0  0  0  0  0  0  0  0  0  0  0
  -11.3433   -3.7500    0.0000 C   0  0  0  0  0  0  0  0  0  0  0  0
  -12.0933   -2.4510    0.0000 C   0  0  0  0  0  0  0  0  0  0  0  0
  -12.6423   -4.5000    0.0000 C   0  0  0  0  0  0  0  0  0  0  0  0
  -10.5933   -5.0491    0.0000 C   0  0  0  0  0  0  0  0  0  0  0  0
  -10.0442   -3.0000    0.0000 C   0  0  0  0  0  0  0  0  0  0  0  0
  -10.0442   -1.5000    0.0000 O   0  0  0  0  0  0  0  0  0  0  0  0
   -8.7452   -3.7500    0.0000 N   0  0  0  0  0  0  0  0  0  0  0  0
   -3.5490   -0.7500    0.0000 N   0  0  0  0  0  0  0  0  0  0  0  0
   -2.2500   -1.5000    0.0000 C   0  0  0  0  0  0  0  0  0  0  0  0
   -0.9510   -0.7500    0.0000 O   0  0  0  0  0  0  0  0  0  0  0  0
   -2.2500   -3.0000    0.0000 C   0  0  0  0  0  0  0  0  0  0  0  0
   -3.7500   -3.0000    0.0000 C   0  0  0  0  0  0  0  0  0  0  0  0
   -2.2500   -4.5000    0.0000 C   0  0  0  0  0  0  0  0  0  0  0  0
   -0.7500   -3.0000    0.0000 C   0  0  0  0  0  0  0  0  0  0  0  0
  1  2  2  0  0  0  0
  1  3  1  0  0  0  0
  2  4  1  0  0  0  0
  2 14  1  0  0  0  0
  3  5  2  0  0  0  0
  4  6  2  0  0  0  0
  5  6  1  0  0  0  0
  5 13  1  0  0  0  0
  7  8  1  0  0  0  0
  7  9  1  0  0  0  0
  7 10  1  0  0  0  0
  7 11  1  0  0  0  0
 11 12  2  0  0  0  0
 11 13  1  0  0  0  0
 14 15  1  0  0  0  0
 15 16  2  0  0  0  0
 15 17  1  0  0  0  0
 17 18  1  0  0  0  0
 17 19  1  0  0  0  0
 17 20  1  0  0  0  0
M  END
