19061
 OpenBabel03021519512D

 26 29  0  0  0  0  0  0  0  0999 V2000
    0.3750    2.1495    0.0000 Cl  0  0  0  0  0  0  0  0  0  0  0  0
    1.6741    7.3995    0.0000 N   0  0  0  0  0  0  0  0  0  0  0  0
   -0.9240    7.3995    0.0000 N   0  0  0  0  0  0  0  0  0  0  0  0
   -2.0387    9.9032    0.0000 N   0  0  0  0  0  0  0  0  0  0  0  0
    2.9731    6.6495    0.0000 Cl  0  0  0  0  0  0  0  0  0  0  0  0
   -1.4286   11.2735    0.0000 N   0  0  0  0  0  0  0  0  0  0  0  0
   -2.2231    5.1495    0.0000 C   0  0  0  0  0  0  0  0  0  0  0  0
   -3.5221    4.3995    0.0000 C   0  0  0  0  0  0  0  0  0  0  0  0
   -0.9240    4.3995    0.0000 C   0  0  0  0  0  0  0  0  0  0  0  0
   -0.9240    2.8995    0.0000 C   0  0  0  0  0  0  0  0  0  0  0  0
   -3.5221    2.8995    0.0000 C   0  0  0  0  0  0  0  0  0  0  0  0
   -2.2231    2.1495    0.0000 C   0  0  0  0  0  0  0  0  0  0  0  0
   -0.9240    8.8995    0.0000 C   0  0  0  0  0  0  0  0  0  0  0  0
    0.3750    9.6495    0.0000 C   0  0  0  0  0  0  0  0  0  0  0  0
    1.6741    8.8995    0.0000 C   0  0  0  0  0  0  0  0  0  0  0  0
    0.0632   11.1167    0.0000 C   0  0  0  0  0  0  0  0  0  0  0  0
    0.3750    6.6495    0.0000 C   0  0  0  0  0  0  0  0  0  0  0  0
    4.2721    8.8995    0.0000 C   0  0  0  0  0  0  0  0  0  0  0  0
    4.2721    7.3995    0.0000 C   0  0  0  0  0  0  0  0  0  0  0  0
    5.5712    9.6495    0.0000 C   0  0  0  0  0  0  0  0  0  0  0  0
    5.5712    6.6495    0.0000 C   0  0  0  0  0  0  0  0  0  0  0  0
    6.8702    8.8995    0.0000 C   0  0  0  0  0  0  0  0  0  0  0  0
    6.8702    7.3995    0.0000 C   0  0  0  0  0  0  0  0  0  0  0  0
    0.3750    5.1495    0.0000 N   0  0  0  0  0  0  0  0  0  0  0  0
    2.9731    9.6495    0.0000 N   0  0  0  0  0  0  0  0  0  0  0  0
   -3.5059    9.5914    0.0000 C   0  0  0  0  0  0  0  0  0  0  0  0
  1 10  1  0  0  0  0
  2 15  2  0  0  0  0
  2 17  1  0  0  0  0
  3 17  2  0  0  0  0
  3 13  1  0  0  0  0
  4  6  1  0  0  0  0
  4 13  1  0  0  0  0
  4 26  1  0  0  0  0
  5 19  1  0  0  0  0
  6 16  2  0  0  0  0
  7  8  2  0  0  0  0
  7  9  1  0  0  0  0
  8 11  1  0  0  0  0
  9 10  2  0  0  0  0
  9 24  1  0  0  0  0
 10 12  1  0  0  0  0
 11 12  2  0  0  0  0
 13 14  2  0  0  0  0
 14 15  1  0  0  0  0
 14 16  1  0  0  0  0
 15 25  1  0  0  0  0
 17 24  1  0  0  0  0
 18 19  2  0  0  0  0
 18 20  1  0  0  0  0
 18 25  1  0  0  0  0
 19 21  1  0  0  0  0
 20 22  2  0  0  0  0
 21 23  2  0  0  0  0
 22 23  1  0  0  0  0
M  END
