93260
 OpenBabel03021519512D

 11 10  0  0  0  0  0  0  0  0999 V2000
   -0.2745    3.6226    0.0000 N   0  0  0  0  0  0  0  0  0  0  0  0
   -1.0245    4.9216    0.0000 C   0  0  0  0  0  0  0  0  0  0  0  0
   -2.5245    4.9216    0.0000 C   0  0  0  0  0  0  0  0  0  0  0  0
   -1.0245    2.3236    0.0000 C   0  0  0  0  0  0  0  0  0  0  0  0
   -2.5245    2.3236    0.0000 C   0  0  0  0  0  0  0  0  0  0  0  0
    1.2255    3.6226    0.0000 C   0  0  0  0  0  0  0  0  0  0  0  0
    1.9755    4.9216    0.0000 C   0  0  0  0  0  0  0  0  0  0  0  0
    1.2255    6.2207    0.0000 O   0  0  0  0  0  0  0  0  0  0  0  0
    1.9755    7.5197    0.0000 C   0  0  0  0  0  0  0  0  0  0  0  0
    1.2255    8.8188    0.0000 C   0  0  0  0  0  0  0  0  0  0  0  0
   -0.2745    8.8188    0.0000 C   0  0  0  0  0  0  0  0  0  0  0  0
  1  2  1  0  0  0  0
  1  4  1  0  0  0  0
  1  6  1  0  0  0  0
  2  3  1  0  0  0  0
  4  5  1  0  0  0  0
  6  7  1  0  0  0  0
  7  8  1  0  0  0  0
  8  9  1  0  0  0  0
  9 10  1  0  0  0  0
 10 11  2  0  0  0  0
M  END
