136065
 OpenBabel03021519512D

 14 15  0  0  0  0  0  0  0  0999 V2000
   -0.7500    3.7500    0.0000 N   0  0  0  0  0  0  0  0  0  0  0  0
   -0.7500    5.2500    0.0000 N   0  0  0  0  0  0  0  0  0  0  0  0
   -2.0491    6.0000    0.0000 N   0  0  0  0  0  0  0  0  0  0  0  0
   -4.6471    7.5000    0.0000 O   0  0  0  0  0  0  0  0  0  0  0  0
   -3.3481    5.2500    0.0000 C   0  0  0  0  0  0  0  0  0  0  0  0
   -4.6471    6.0000    0.0000 C   0  0  0  0  0  0  0  0  0  0  0  0
    0.5490    1.5000    0.0000 C   0  0  0  0  0  0  0  0  0  0  0  0
    0.5490    3.0000    0.0000 C   0  0  0  0  0  0  0  0  0  0  0  0
    1.8481    0.7500    0.0000 C   0  0  0  0  0  0  0  0  0  0  0  0
    1.8481    3.7500    0.0000 C   0  0  0  0  0  0  0  0  0  0  0  0
    3.1471    1.5000    0.0000 C   0  0  0  0  0  0  0  0  0  0  0  0
    3.1471    3.0000    0.0000 C   0  0  0  0  0  0  0  0  0  0  0  0
   -2.0491    7.5000    0.0000 C   0  0  0  0  0  0  0  0  0  0  0  0
   -3.3481    8.2500    0.0000 C   0  0  0  0  0  0  0  0  0  0  0  0
  1  8  1  0  0  0  0
  1  2  2  0  0  0  0
  2  3  1  0  0  0  0
  3  5  1  0  0  0  0
  3 13  1  0  0  0  0
  4  6  1  0  0  0  0
  4 14  1  0  0  0  0
  5  6  1  0  0  0  0
  7  9  2  0  0  0  0
  7  8  1  0  0  0  0
  8 10  2  0  0  0  0
  9 11  1  0  0  0  0
 10 12  1  0  0  0  0
 11 12  2  0  0  0  0
 13 14  1  0  0  0  0
M  END
