622608
 OpenBabel03021519512D

 16 16  0  0  0  0  0  0  0  0999 V2000
  -10.3300   -4.8942    0.0000 N   0  0  0  0  0  0  0  0  0  0  0  0
  -11.7004   -4.2841    0.0000 C   0  0  0  0  0  0  0  0  0  0  0  0
  -10.1733   -6.3860    0.0000 C   0  0  0  0  0  0  0  0  0  0  0  0
   -9.1165   -4.0126    0.0000 C   0  0  0  0  0  0  0  0  0  0  0  0
   -7.6899   -4.4761    0.0000 N   0  0  0  0  0  0  0  0  0  0  0  0
   -6.8083   -3.2626    0.0000 C   0  0  0  0  0  0  0  0  0  0  0  0
   -7.6899   -2.0490    0.0000 S   0  0  0  0  0  0  0  0  0  0  0  0
   -9.1165   -2.5126    0.0000 S   0  0  0  0  0  0  0  0  0  0  0  0
   -5.3083   -3.2626    0.0000 N   0  0  0  0  0  0  0  0  0  0  0  0
   -4.5583   -1.9635    0.0000 C   0  0  0  0  0  0  0  0  0  0  0  0
   -3.0583   -1.9635    0.0000 C   0  0  0  0  0  0  0  0  0  0  0  0
   -2.1766   -0.7500    0.0000 C   0  0  0  0  0  0  0  0  0  0  0  0
   -0.7500   -1.2135    0.0000 C   0  0  0  0  0  0  0  0  0  0  0  0
   -0.7500   -2.7135    0.0000 C   0  0  0  0  0  0  0  0  0  0  0  0
   -2.1766   -3.1771    0.0000 O   0  0  0  0  0  0  0  0  0  0  0  0
   -6.2252   -7.8860    0.0000 Br  0  0  0  0  0  0  0  0  0  0  0  0
  1  2  1  0  0  0  0
  1  3  1  0  0  0  0
  1  4  1  0  0  0  0
  4  5  2  0  0  0  0
  4  8  1  0  0  0  0
  5  6  1  0  0  0  0
  6  7  1  0  0  0  0
  6  9  2  0  0  0  0
  7  8  1  0  0  0  0
  9 10  1  0  0  0  0
 10 11  1  0  0  0  0
 11 12  2  0  0  0  0
 11 15  1  0  0  0  0
 12 13  1  0  0  0  0
 13 14  2  0  0  0  0
 14 15  1  0  0  0  0
M  END
