96491
 OpenBabel03021519512D

 17 17  0  0  0  0  0  0  0  0999 V2000
    4.8266    1.9751    0.0000 N   0  0  0  0  0  0  0  0  0  0  0  0
    6.2890    2.3089    0.0000 C   0  0  0  0  0  0  0  0  0  0  0  0
    7.4617    1.3737    0.0000 C   0  0  0  0  0  0  0  0  0  0  0  0
    8.7608    2.1237    0.0000 C   0  0  0  0  0  0  0  0  0  0  0  0
   10.0598    1.3737    0.0000 C   0  0  0  0  0  0  0  0  0  0  0  0
   10.0598   -0.1263    0.0000 C   0  0  0  0  0  0  0  0  0  0  0  0
    8.7608   -0.8763    0.0000 C   0  0  0  0  0  0  0  0  0  0  0  0
    7.4617   -0.1263    0.0000 C   0  0  0  0  0  0  0  0  0  0  0  0
    6.2890   -1.0616    0.0000 C   0  0  0  0  0  0  0  0  0  0  0  0
    4.8266   -0.7278    0.0000 C   0  0  0  0  0  0  0  0  0  0  0  0
    4.1758    0.6236    0.0000 C   0  0  0  0  0  0  0  0  0  0  0  0
    3.8914    3.1479    0.0000 C   0  0  0  0  0  0  0  0  0  0  0  0
    2.4081    2.9243    0.0000 C   0  0  0  0  0  0  0  0  0  0  0  0
    8.7608   -2.3763    0.0000 N   0  0  0  0  0  0  0  0  0  0  0  0
    7.4618   -3.1263    0.0000 O   0  0  0  0  0  0  0  0  0  0  0  0
   11.3589   -0.8763    0.0000 N   0  0  0  0  0  0  0  0  0  0  0  0
   12.6579   -0.1263    0.0000 O   0  0  0  0  0  0  0  0  0  0  0  0
  1  2  1  0  0  0  0
  1 11  1  0  0  0  0
  1 12  1  0  0  0  0
  2  3  1  0  0  0  0
  3  4  1  0  0  0  0
  4  5  1  0  0  0  0
  5  6  1  0  0  0  0
  6  7  1  0  0  0  0
  6 16  2  0  0  0  0
  7  8  1  0  0  0  0
  7 14  2  0  0  0  0
  8  9  1  0  0  0  0
  9 10  1  0  0  0  0
 10 11  1  0  0  0  0
 12 13  1  0  0  0  0
 14 15  1  0  0  0  0
 16 17  1  0  0  0  0
M  END
