293334
 OpenBabel03021519512D

 16 16  0  0  0  0  0  0  0  0999 V2000
   -2.6527    0.0791    0.0000 C   0  0  0  0  0  0  0  0  0  0  0  0
   -2.6122   -1.4203    0.0000 C   0  0  0  0  0  0  0  0  0  0  0  0
   -1.1736   -1.8451    0.0000 N   0  0  0  0  0  0  0  0  0  0  0  0
   -0.6716   -3.2587    0.0000 H   0  0  0  0  0  0  0  0  0  0  0  0
   -0.8144    2.0196    0.0000 C   0  0  0  0  0  0  0  0  0  0  0  0
   -1.2392    0.5810    0.0000 C   0  0  0  0  0  0  0  0  0  0  0  0
    0.6438    2.3710    0.0000 O   0  0  0  0  0  0  0  0  0  0  0  0
   -0.3250   -0.6082    0.0000 C   0  0  0  0  0  0  0  0  0  0  0  0
   -1.8479    3.1068    0.0000 O   0  0  0  0  0  0  0  0  0  0  0  0
    1.2447   -3.1648    0.0000 O   0  0  0  0  0  0  0  0  0  0  0  0
    1.9593   -1.8459    0.0000 C   0  0  0  0  0  0  0  0  0  0  0  0
    1.1744   -0.5677    0.0000 C   0  0  0  0  0  0  0  0  0  0  0  0
   -1.4231    4.5454    0.0000 C   0  0  0  0  0  0  0  0  0  0  0  0
    0.0352    4.8968    0.0000 C   0  0  0  0  0  0  0  0  0  0  0  0
    3.4587   -1.8054    0.0000 N   0  0  0  0  0  0  0  0  0  0  0  0
    4.2436   -3.0837    0.0000 C   0  0  0  0  0  0  0  0  0  0  0  0
  1  6  1  0  0  0  0
  1  2  2  0  0  0  0
  2  3  1  0  0  0  0
  3  8  1  0  0  0  0
  3  4  1  0  0  0  0
  5  7  2  0  0  0  0
  5  9  1  0  0  0  0
  5  6  1  0  0  0  0
  6  8  2  0  0  0  0
  8 12  1  0  0  0  0
  9 13  1  0  0  0  0
 10 11  2  0  0  0  0
 11 12  1  0  0  0  0
 11 15  1  0  0  0  0
 13 14  1  0  0  0  0
 15 16  1  0  0  0  0
M  END
