140892
 OpenBabel03021519512D

 17 18  0  0  0  0  0  0  0  0999 V2000
   -0.2745   10.0245    0.0000 C   0  0  0  0  0  0  0  0  0  0  0  0
   -0.2745   11.5245    0.0000 C   0  0  0  0  0  0  0  0  0  0  0  0
    1.0245    9.2745    0.0000 C   0  0  0  0  0  0  0  0  0  0  0  0
    1.0245   12.2745    0.0000 C   0  0  0  0  0  0  0  0  0  0  0  0
    2.3236   10.0245    0.0000 C   0  0  0  0  0  0  0  0  0  0  0  0
    2.3236   11.5245    0.0000 C   0  0  0  0  0  0  0  0  0  0  0  0
   -0.2745    5.5245    0.0000 C   0  0  0  0  0  0  0  0  0  0  0  0
   -1.5736    4.7745    0.0000 C   0  0  0  0  0  0  0  0  0  0  0  0
    1.0245    4.7745    0.0000 C   0  0  0  0  0  0  0  0  0  0  0  0
    1.0245    3.2745    0.0000 C   0  0  0  0  0  0  0  0  0  0  0  0
   -1.5736    3.2745    0.0000 C   0  0  0  0  0  0  0  0  0  0  0  0
   -0.2745    2.5245    0.0000 C   0  0  0  0  0  0  0  0  0  0  0  0
   -2.8726    2.5245    0.0000 O   0  0  0  0  0  0  0  0  0  0  0  0
    2.3236    5.5245    0.0000 N   0  0  0  0  0  0  0  0  0  0  0  0
    2.3236    7.0245    0.0000 C   0  0  0  0  0  0  0  0  0  0  0  0
    3.6226    7.7745    0.0000 S   0  0  0  0  0  0  0  0  0  0  0  0
    1.0245    7.7745    0.0000 N   0  0  0  0  0  0  0  0  0  0  0  0
  1  2  2  0  0  0  0
  1  3  1  0  0  0  0
  2  4  1  0  0  0  0
  3  5  2  0  0  0  0
  3 17  1  0  0  0  0
  4  6  2  0  0  0  0
  5  6  1  0  0  0  0
  7  8  2  0  0  0  0
  7  9  1  0  0  0  0
  8 11  1  0  0  0  0
  9 10  2  0  0  0  0
  9 14  1  0  0  0  0
 10 12  1  0  0  0  0
 11 12  2  0  0  0  0
 11 13  1  0  0  0  0
 14 15  1  0  0  0  0
 15 16  2  0  0  0  0
 15 17  1  0  0  0  0
M  END
