8179
 OpenBabel03021519512D

 16 17  0  0  0  0  0  0  0  0999 V2000
    5.2582    0.0127    0.0000 N   0  0  0  0  0  0  0  0  0  0  0  0
    7.4754    0.9999    0.0000 N   0  0  0  0  0  0  0  0  0  0  0  0
    6.2619   -1.1020    0.0000 N   0  0  0  0  0  0  0  0  0  0  0  0
    5.9500   -2.5692    0.0000 H   0  0  0  0  0  0  0  0  0  0  0  0
   10.2303   -0.4919    0.0000 C   0  0  0  0  0  0  0  0  0  0  0  0
    8.9313   -1.2419    0.0000 C   0  0  0  0  0  0  0  0  0  0  0  0
   11.5293   -1.2419    0.0000 C   0  0  0  0  0  0  0  0  0  0  0  0
   11.5293   -2.7419    0.0000 C   0  0  0  0  0  0  0  0  0  0  0  0
    8.9313   -2.7419    0.0000 C   0  0  0  0  0  0  0  0  0  0  0  0
    7.6322   -0.4919    0.0000 C   0  0  0  0  0  0  0  0  0  0  0  0
   10.2303   -3.4919    0.0000 C   0  0  0  0  0  0  0  0  0  0  0  0
    6.0082    1.3118    0.0000 C   0  0  0  0  0  0  0  0  0  0  0  0
    3.0246    1.6253    0.0000 N   0  0  0  0  0  0  0  0  0  0  0  0
    3.9063    2.8389    0.0000 C   0  0  0  0  0  0  0  0  0  0  0  0
    3.2962    4.2092    0.0000 O   0  0  0  0  0  0  0  0  0  0  0  0
    5.3981    2.6821    0.0000 N   0  0  0  0  0  0  0  0  0  0  0  0
  1 12  2  0  0  0  0
  1  3  1  0  0  0  0
  2 10  2  0  0  0  0
  2 12  1  0  0  0  0
  3 10  1  0  0  0  0
  3  4  1  0  0  0  0
  5  7  2  0  0  0  0
  5  6  1  0  0  0  0
  6  9  2  0  0  0  0
  6 10  1  0  0  0  0
  7  8  1  0  0  0  0
  8 11  2  0  0  0  0
  9 11  1  0  0  0  0
 12 16  1  0  0  0  0
 13 14  1  0  0  0  0
 14 15  2  0  0  0  0
 14 16  1  0  0  0  0
M  END
