133075
 OpenBabel03021519512D

 24 26  0  0  0  0  0  0  0  0999 V2000
  -15.1040    1.9305    0.0000 C   0  0  0  0  0  0  0  0  0  0  0  0
  -15.1040    0.4305    0.0000 C   0  0  0  0  0  0  0  0  0  0  0  0
  -13.8049   -0.3195    0.0000 C   0  0  0  0  0  0  0  0  0  0  0  0
  -12.5059    0.4305    0.0000 C   0  0  0  0  0  0  0  0  0  0  0  0
  -12.5059    1.9305    0.0000 C   0  0  0  0  0  0  0  0  0  0  0  0
  -13.8049    2.6805    0.0000 C   0  0  0  0  0  0  0  0  0  0  0  0
  -11.0793   -0.0331    0.0000 C   0  0  0  0  0  0  0  0  0  0  0  0
  -10.1976    1.1805    0.0000 C   0  0  0  0  0  0  0  0  0  0  0  0
  -10.6158   -1.4596    0.0000 N   0  0  0  0  0  0  0  0  0  0  0  0
   -8.6976    1.1805    0.0000 O   0  0  0  0  0  0  0  0  0  0  0  0
   -9.1486   -1.7715    0.0000 C   0  0  0  0  0  0  0  0  0  0  0  0
   -8.6851   -3.1981    0.0000 C   0  0  0  0  0  0  0  0  0  0  0  0
   -7.2178   -3.5100    0.0000 C   0  0  0  0  0  0  0  0  0  0  0  0
   -6.2141   -2.3953    0.0000 C   0  0  0  0  0  0  0  0  0  0  0  0
   -6.6777   -0.9687    0.0000 C   0  0  0  0  0  0  0  0  0  0  0  0
   -8.1449   -0.6568    0.0000 C   0  0  0  0  0  0  0  0  0  0  0  0
   -4.7469   -2.7071    0.0000 S   0  0  0  0  0  0  0  0  0  0  0  0
   -3.0085   -0.7764    0.0000 C   0  0  0  0  0  0  0  0  0  0  0  0
   -3.2797   -3.0190    0.0000 O   0  0  0  0  0  0  0  0  0  0  0  0
   -5.0588   -4.1743    0.0000 O   0  0  0  0  0  0  0  0  0  0  0  0
  -11.0793    2.3940    0.0000 N   0  0  0  0  0  0  0  0  0  0  0  0
   -4.4350   -1.2399    0.0000 N   0  0  0  0  0  0  0  0  0  0  0  0
   -1.8937   -1.7801    0.0000 N   0  0  0  0  0  0  0  0  0  0  0  0
   -2.6966    0.6909    0.0000 N   0  0  0  0  0  0  0  0  0  0  0  0
  1  2  2  0  0  0  0
  1  6  1  0  0  0  0
  2  3  1  0  0  0  0
  3  4  2  0  0  0  0
  4  5  1  0  0  0  0
  4  7  1  0  0  0  0
  5  6  2  0  0  0  0
  5 21  1  0  0  0  0
  7  8  1  0  0  0  0
  7  9  2  0  0  0  0
  8 10  2  0  0  0  0
  8 21  1  0  0  0  0
  9 11  1  0  0  0  0
 11 12  2  0  0  0  0
 11 16  1  0  0  0  0
 12 13  1  0  0  0  0
 13 14  2  0  0  0  0
 14 15  1  0  0  0  0
 14 17  1  0  0  0  0
 15 16  2  0  0  0  0
 17 19  2  0  0  0  0
 17 20  2  0  0  0  0
 17 22  1  0  0  0  0
 18 22  1  0  0  0  0
 18 23  2  0  0  0  0
 18 24  1  0  0  0  0
M  END
