19990
 OpenBabel03021519512D

 56 59  0  0  1  0  0  0  0  0999 V2000
    4.7504  -14.4118    0.0000 O   0  0  0  0  0  0  0  0  0  0  0  0
    6.9888  -14.2573    0.0000 N   0  0  0  0  0  0  0  0  0  0  0  0
    6.2202  -15.5454    0.0000 H   0  0  0  0  0  0  0  0  0  0  0  0
   14.1017  -18.3534    0.0000 O   0  0  0  0  0  0  0  0  0  0  0  0
   15.3370  -11.5914    0.0000 O   0  0  0  0  0  0  0  0  0  0  0  0
   16.6572  -13.8290    0.0000 O   0  0  0  0  0  0  0  0  0  0  0  0
    8.8246   -2.6720    0.0000 C   0  0  3  0  0  0  0  0  0  0  0  0
   10.3164   -2.5153    0.0000 C   0  0  3  0  0  0  0  0  0  0  0  0
   16.1238   -6.5685    0.0000 C   0  0  0  0  0  0  0  0  0  0  0  0
   14.0451  -12.3536    0.0000 C   0  0  0  0  0  0  0  0  0  0  0  0
   15.2041   -5.3936    0.0000 C   0  0  0  0  0  0  0  0  0  0  0  0
   14.4309   -4.1175    0.0000 C   0  0  3  0  0  0  0  0  0  0  0  0
   13.2009   -3.2590    0.0000 C   0  0  3  0  0  0  0  0  0  0  0  0
   11.8031   -2.7147    0.0000 C   0  0  3  0  0  0  0  0  0  0  0  0
    7.4118   -3.1760    0.0000 C   0  0  3  0  0  0  0  0  0  0  0  0
   14.0592  -13.8536    0.0000 C   0  0  0  0  0  0  0  0  0  0  0  0
    6.1577   -3.9988    0.0000 C   0  0  3  0  0  0  0  0  0  0  0  0
    5.1328   -5.0941    0.0000 C   0  0  3  0  0  0  0  0  0  0  0  0
   15.3653  -14.5913    0.0000 C   0  0  0  0  0  0  0  0  0  0  0  0
   12.7673  -14.6158    0.0000 C   0  0  0  0  0  0  0  0  0  0  0  0
   11.3321  -15.0519    0.0000 C   0  0  0  0  0  0  0  0  0  0  0  0
    9.8346  -15.1374    0.0000 C   0  0  0  0  0  0  0  0  0  0  0  0
    4.3951   -6.4002    0.0000 C   0  0  3  0  0  0  0  0  0  0  0  0
   15.3794  -16.0912    0.0000 C   0  0  0  0  0  0  0  0  0  0  0  0
   12.7815  -16.1157    0.0000 C   0  0  0  0  0  0  0  0  0  0  0  0
    8.3591  -14.8675    0.0000 C   0  0  0  0  0  0  0  0  0  0  0  0
    3.9862   -7.8434    0.0000 C   0  0  0  0  0  0  0  0  0  0  0  0
   14.0875  -16.8534    0.0000 C   0  0  0  0  0  0  0  0  0  0  0  0
   11.4965  -16.8895    0.0000 C   0  0  0  0  0  0  0  0  0  0  0  0
    3.9289   -9.3423    0.0000 C   0  0  0  0  0  0  0  0  0  0  0  0
    5.8010  -13.3412    0.0000 C   0  0  0  0  0  0  0  0  0  0  0  0
    4.8627  -12.1709    0.0000 C   0  0  0  0  0  0  0  0  0  0  0  0
    4.4804  -10.7287    0.0000 C   0  0  0  0  0  0  0  0  0  0  0  0
   16.6430  -12.3291    0.0000 C   0  0  0  0  0  0  0  0  0  0  0  0
    3.9236   -4.2066    0.0000 O   0  0  0  0  0  0  0  0  0  0  0  0
    5.1917   -2.8512    0.0000 C   0  0  0  0  0  0  0  0  0  0  0  0
    3.0107   -5.8228    0.0000 C   0  0  0  0  0  0  0  0  0  0  0  0
    6.7437   -1.8330    0.0000 O   0  0  0  0  0  0  0  0  0  0  0  0
    6.7262    0.6965    0.0000 C   0  0  0  0  0  0  0  0  0  0  0  0
    7.0589   -0.7661    0.0000 O   0  0  0  0  0  0  0  0  0  0  0  0
    8.4919   -1.2093    0.0000 C   0  0  0  0  0  0  0  0  0  0  0  0
    9.5923   -0.1899    0.0000 O   0  0  0  0  0  0  0  0  0  0  0  0
   10.3379   -1.0154    0.0000 O   0  0  0  0  0  0  0  0  0  0  0  0
    3.5893  -12.9637    0.0000 C   0  0  0  0  0  0  0  0  0  0  0  0
   12.1776   -1.2622    0.0000 C   0  0  0  0  0  0  0  0  0  0  0  0
   13.9073   -1.9358    0.0000 O   0  0  0  0  0  0  0  0  0  0  0  0
   14.6774   -2.6379    0.0000 O   0  0  0  0  0  0  0  0  0  0  0  0
   15.8728   -3.7042    0.0000 C   0  0  0  0  0  0  0  0  0  0  0  0
   11.4736  -18.3894    0.0000 O   0  0  0  0  0  0  0  0  0  0  0  0
    9.7417  -16.6346    0.0000 C   0  0  0  0  0  0  0  0  0  0  0  0
   17.6201   -6.4632    0.0000 C   0  0  0  0  0  0  0  0  0  0  0  0
   11.5948  -16.5288    0.0000 O   0  0  0  0  0  0  0  0  0  0  0  0
   10.4472  -17.4947    0.0000 C   0  0  0  0  0  0  0  0  0  0  0  0
   10.7099  -18.9715    0.0000 O   0  0  0  0  0  0  0  0  0  0  0  0
    9.0369  -16.9838    0.0000 C   0  0  0  0  0  0  0  0  0  0  0  0
   16.6855  -16.8289    0.0000 C   0  0  0  0  0  0  0  0  0  0  0  0
  1 31  2  0  0  0  0
  2 26  1  0  0  0  0
  2 31  1  0  0  0  0
  2  3  1  0  0  0  0
  4 28  2  0  0  0  0
  5 10  1  0  0  0  0
  5 34  1  0  0  0  0
  6 19  1  0  0  0  0
  6 34  1  0  0  0  0
  7  8  1  0  0  0  0
  7 15  1  0  0  0  0
  7 41  1  0  0  0  0
  8 14  1  0  0  0  0
  8 43  1  0  0  0  0
  9 11  2  0  0  0  0
  9 10  1  0  0  0  0
  9 51  1  0  0  0  0
 10 16  2  0  0  0  0
 11 12  1  0  0  0  0
 12 13  1  0  0  0  0
 12 47  1  0  0  0  0
 12 48  1  0  0  0  0
 13 14  1  0  0  0  0
 13 46  1  0  0  0  0
 14 45  1  0  0  0  0
 15 17  1  0  0  0  0
 15 38  1  0  0  0  0
 16 19  1  0  0  0  0
 16 20  1  0  0  0  0
 17 18  1  0  0  0  0
 17 36  1  0  0  0  0
 18 23  1  0  0  0  0
 18 35  1  0  0  0  0
 19 24  2  0  0  0  0
 20 25  2  0  0  0  0
 20 21  1  0  0  0  0
 21 22  2  0  0  0  0
 21 52  1  0  0  0  0
 22 26  1  0  0  0  0
 22 50  1  0  0  0  0
 23 27  1  0  0  0  0
 23 37  1  0  0  0  0
 24 28  1  0  0  0  0
 24 56  1  0  0  0  0
 25 28  1  0  0  0  0
 25 29  1  0  0  0  0
 26 29  2  0  0  0  0
 27 30  2  0  0  0  0
 29 49  1  0  0  0  0
 30 33  1  0  0  0  0
 31 32  1  0  0  0  0
 32 33  2  0  0  0  0
 32 44  1  0  0  0  0
 39 40  1  0  0  0  0
 40 41  1  0  0  0  0
 41 42  2  0  0  0  0
 52 53  1  0  0  0  0
 53 54  2  0  0  0  0
 53 55  1  0  0  0  0
M  END
