4921
 OpenBabel03021519512D

 17 19  0  0  0  0  0  0  0  0999 V2000
   -4.5669   -4.2451    0.0000 O   0  0  0  0  0  0  0  0  0  0  0  0
   -2.6768   -6.1352    0.0000 N   0  0  0  0  0  0  0  0  0  0  0  0
   -1.4633   -8.5169    0.0000 O   0  0  0  0  0  0  0  0  0  0  0  0
   -0.0367   -5.7171    0.0000 N   0  0  0  0  0  0  0  0  0  0  0  0
   -1.4633   -3.7535    0.0000 N   0  0  0  0  0  0  0  0  0  0  0  0
   -0.0367   -3.2900    0.0000 N   0  0  0  0  0  0  0  0  0  0  0  0
    0.4268   -1.8634    0.0000 H   0  0  0  0  0  0  0  0  0  0  0  0
   -4.1034   -5.6717    0.0000 C   0  0  0  0  0  0  0  0  0  0  0  0
   -4.9851   -6.8852    0.0000 C   0  0  0  0  0  0  0  0  0  0  0  0
   -6.4769   -7.0420    0.0000 C   0  0  0  0  0  0  0  0  0  0  0  0
   -7.0870   -8.4123    0.0000 C   0  0  0  0  0  0  0  0  0  0  0  0
   -4.1034   -8.0988    0.0000 C   0  0  0  0  0  0  0  0  0  0  0  0
   -6.2053   -9.6259    0.0000 C   0  0  0  0  0  0  0  0  0  0  0  0
   -2.6768   -7.6352    0.0000 C   0  0  0  0  0  0  0  0  0  0  0  0
   -4.7135   -9.4691    0.0000 C   0  0  0  0  0  0  0  0  0  0  0  0
   -1.4633   -5.2535    0.0000 C   0  0  0  0  0  0  0  0  0  0  0  0
    0.8450   -4.5035    0.0000 C   0  0  0  0  0  0  0  0  0  0  0  0
  1  8  2  0  0  0  0
  2  8  1  0  0  0  0
  2 14  1  0  0  0  0
  2 16  1  0  0  0  0
  3 14  2  0  0  0  0
  4 17  2  0  0  0  0
  4 16  1  0  0  0  0
  5  6  1  0  0  0  0
  5 16  2  0  0  0  0
  6 17  1  0  0  0  0
  6  7  1  0  0  0  0
  8  9  1  0  0  0  0
  9 12  2  0  0  0  0
  9 10  1  0  0  0  0
 10 11  2  0  0  0  0
 11 13  1  0  0  0  0
 12 14  1  0  0  0  0
 12 15  1  0  0  0  0
 13 15  2  0  0  0  0
M  END
