43998
 OpenBabel03021519512D

 25 27  0  0  0  0  0  0  0  0999 V2000
   -4.8211   -8.1495    0.0000 N   0  0  0  0  0  0  0  0  0  0  0  0
   -4.8212   -6.6495    0.0000 H   0  0  0  0  0  0  0  0  0  0  0  0
   -0.9240   -5.8995    0.0000 C   0  0  0  0  0  0  0  0  0  0  0  0
   -0.9240   -1.3995    0.0000 C   0  0  0  0  0  0  0  0  0  0  0  0
   -2.2231   -2.1495    0.0000 C   0  0  0  0  0  0  0  0  0  0  0  0
    0.3750   -2.1495    0.0000 C   0  0  0  0  0  0  0  0  0  0  0  0
    0.3750   -3.6495    0.0000 C   0  0  0  0  0  0  0  0  0  0  0  0
   -2.2231   -3.6495    0.0000 C   0  0  0  0  0  0  0  0  0  0  0  0
   -0.9240   -4.3995    0.0000 C   0  0  0  0  0  0  0  0  0  0  0  0
    1.6740   -5.8995    0.0000 C   0  0  0  0  0  0  0  0  0  0  0  0
    2.9731   -6.6495    0.0000 C   0  0  0  0  0  0  0  0  0  0  0  0
    0.3750   -6.6495    0.0000 C   0  0  0  0  0  0  0  0  0  0  0  0
    2.9731   -8.1495    0.0000 C   0  0  0  0  0  0  0  0  0  0  0  0
    0.3750   -8.1495    0.0000 C   0  0  0  0  0  0  0  0  0  0  0  0
    1.6740   -8.8995    0.0000 C   0  0  0  0  0  0  0  0  0  0  0  0
   -3.5221   -8.8995    0.0000 C   0  0  0  0  0  0  0  0  0  0  0  0
   -3.5221  -10.3995    0.0000 C   0  0  0  0  0  0  0  0  0  0  0  0
   -4.8211  -11.1495    0.0000 C   0  0  0  0  0  0  0  0  0  0  0  0
   -6.1202  -10.3995    0.0000 C   0  0  0  0  0  0  0  0  0  0  0  0
   -6.1202   -8.8995    0.0000 C   0  0  0  0  0  0  0  0  0  0  0  0
   -7.4192  -11.1495    0.0000 N   0  3  0  0  0  0  0  0  0  0  0  0
   -8.7183  -10.3995    0.0000 O   0  5  0  0  0  0  0  0  0  0  0  0
   -7.4192  -12.6495    0.0000 O   0  0  0  0  0  0  0  0  0  0  0  0
   -2.2231   -8.1495    0.0000 N   0  0  0  0  0  0  0  0  0  0  0  0
   -2.2231   -6.6495    0.0000 N   0  0  0  0  0  0  0  0  0  0  0  0
  1 16  1  0  0  0  0
  1 20  1  0  0  0  0
  1  2  1  0  0  0  0
  3  9  1  0  0  0  0
  3 12  1  0  0  0  0
  3 25  2  0  0  0  0
  4  6  2  0  0  0  0
  4  5  1  0  0  0  0
  5  8  2  0  0  0  0
  6  7  1  0  0  0  0
  7  9  2  0  0  0  0
  8  9  1  0  0  0  0
 10 11  2  0  0  0  0
 10 12  1  0  0  0  0
 11 13  1  0  0  0  0
 12 14  2  0  0  0  0
 13 15  2  0  0  0  0
 14 15  1  0  0  0  0
 16 17  1  0  0  0  0
 16 24  2  0  0  0  0
 17 18  2  0  0  0  0
 18 19  1  0  0  0  0
 19 20  2  0  0  0  0
 19 21  1  0  0  0  0
 21 22  1  0  0  0  0
 21 23  2  0  0  0  0
 24 25  1  0  0  0  0
M  CHG  2  21   1  22  -1
M  END
