135184
 OpenBabel03021519512D

 21 23  0  0  1  0  0  0  0  0999 V2000
   -6.8702    5.8995    0.0000 C   0  0  0  0  0  0  0  0  0  0  0  0
   -8.1692    5.1495    0.0000 C   0  0  0  0  0  0  0  0  0  0  0  0
   -5.5712    5.1495    0.0000 C   0  0  0  0  0  0  0  0  0  0  0  0
   -5.5712    3.6495    0.0000 C   0  0  0  0  0  0  0  0  0  0  0  0
   -8.1692    3.6495    0.0000 C   0  0  0  0  0  0  0  0  0  0  0  0
   -6.8702    2.8995    0.0000 C   0  0  0  0  0  0  0  0  0  0  0  0
   -6.3492   -3.0549    0.0000 C   0  0  3  0  0  0  0  0  0  0  0  0
   -8.0550   -3.3557    0.0000 C   0  0  0  0  0  0  0  0  0  0  0  0
   -7.7588   -2.5419    0.0000 C   0  0  0  0  0  0  0  0  0  0  0  0
   -6.0888   -4.5321    0.0000 C   0  0  0  0  0  0  0  0  0  0  0  0
   -8.9078   -3.5061    0.0000 C   0  0  0  0  0  0  0  0  0  0  0  0
   -7.2378   -5.4963    0.0000 C   0  0  0  0  0  0  0  0  0  0  0  0
   -8.6474   -4.9833    0.0000 C   0  0  3  0  0  0  0  0  0  0  0  0
   -6.8702    7.3995    0.0000 C   0  0  0  0  0  0  0  0  0  0  0  0
   -6.8702    1.3995    0.0000 S   0  0  0  0  0  0  0  0  0  0  0  0
   -8.3702    1.3995    0.0000 O   0  0  0  0  0  0  0  0  0  0  0  0
   -5.3702    1.3995    0.0000 O   0  0  0  0  0  0  0  0  0  0  0  0
   -6.8702   -0.1005    0.0000 N   0  0  0  0  0  0  0  0  0  0  0  0
   -5.4606   -0.6135    0.0000 N   0  0  0  0  0  0  0  0  0  0  0  0
   -5.2002   -2.0907    0.0000 C   0  0  0  0  0  0  0  0  0  0  0  0
   -3.7906   -2.6037    0.0000 O   0  0  0  0  0  0  0  0  0  0  0  0
  1  3  2  0  0  0  0
  1  2  1  0  0  0  0
  1 14  1  0  0  0  0
  2  5  2  0  0  0  0
  3  4  1  0  0  0  0
  4  6  2  0  0  0  0
  5  6  1  0  0  0  0
  6 15  1  0  0  0  0
  7  8  1  0  0  0  0
  7  9  1  0  0  0  0
  7 10  1  0  0  0  0
  7 20  1  0  0  0  0
  8 13  1  0  0  0  0
  9 11  1  0  0  0  0
 10 12  1  0  0  0  0
 11 13  1  0  0  0  0
 12 13  1  0  0  0  0
 15 16  2  0  0  0  0
 15 17  2  0  0  0  0
 15 18  1  0  0  0  0
 18 19  1  0  0  0  0
 19 20  1  0  0  0  0
 20 21  2  0  0  0  0
M  END
