295358
 OpenBabel03021519512D

 28 29  0  0  0  0  0  0  0  0999 V2000
  -14.7850   -6.0304    0.0000 F   0  0  0  0  0  0  0  0  0  0  0  0
  -14.1964   -3.8495    0.0000 C   0  0  0  0  0  0  0  0  0  0  0  0
  -13.9360   -2.3723    0.0000 C   0  0  0  0  0  0  0  0  0  0  0  0
  -13.0474   -4.8137    0.0000 C   0  0  0  0  0  0  0  0  0  0  0  0
  -13.3078   -6.2909    0.0000 C   0  0  0  0  0  0  0  0  0  0  0  0
  -13.5683   -7.7681    0.0000 F   0  0  0  0  0  0  0  0  0  0  0  0
  -12.5264   -1.8592    0.0000 N   0  0  0  0  0  0  0  0  0  0  0  0
  -11.6378   -4.3006    0.0000 N   0  0  0  0  0  0  0  0  0  0  0  0
  -11.8306   -6.5513    0.0000 F   0  0  0  0  0  0  0  0  0  0  0  0
  -11.3773   -2.8234    0.0000 C   0  0  0  0  0  0  0  0  0  0  0  0
   -7.5197   -2.5246    0.0000 C   0  0  0  0  0  0  0  0  0  0  0  0
   -7.5197   -1.0246    0.0000 N   0  0  0  0  0  0  0  0  0  0  0  0
   -7.7207    1.2254    0.0000 F   0  0  0  0  0  0  0  0  0  0  0  0
   -6.2207   -0.2745    0.0000 C   0  0  0  0  0  0  0  0  0  0  0  0
   -6.2207    1.2255    0.0000 C   0  0  0  0  0  0  0  0  0  0  0  0
   -6.2207    2.7255    0.0000 F   0  0  0  0  0  0  0  0  0  0  0  0
   -6.2207   -3.2745    0.0000 N   0  0  0  0  0  0  0  0  0  0  0  0
   -4.7207    1.2255    0.0000 F   0  0  0  0  0  0  0  0  0  0  0  0
   -4.9216   -2.5245    0.0000 C   0  0  0  0  0  0  0  0  0  0  0  0
   -4.9216   -1.0245    0.0000 C   0  0  0  0  0  0  0  0  0  0  0  0
  -15.0850   -1.4081    0.0000 C   0  0  0  0  0  0  0  0  0  0  0  0
  -16.4946   -1.9211    0.0000 C   0  0  0  0  0  0  0  0  0  0  0  0
  -14.8246    0.0691    0.0000 C   0  0  0  0  0  0  0  0  0  0  0  0
   -9.9678   -2.3104    0.0000 N   0  0  0  0  0  0  0  0  0  0  0  0
   -8.8187   -3.2746    0.0000 N   0  0  0  0  0  0  0  0  0  0  0  0
   -3.6226   -3.2745    0.0000 C   0  0  0  0  0  0  0  0  0  0  0  0
   -2.3235   -2.5245    0.0000 C   0  0  0  0  0  0  0  0  0  0  0  0
   -3.6226   -4.7745    0.0000 C   0  0  0  0  0  0  0  0  0  0  0  0
  1  5  1  0  0  0  0
  2  4  2  0  0  0  0
  2  3  1  0  0  0  0
  3  7  2  0  0  0  0
  3 21  1  0  0  0  0
  4  5  1  0  0  0  0
  4  8  1  0  0  0  0
  5  6  1  0  0  0  0
  5  9  1  0  0  0  0
  7 10  1  0  0  0  0
  8 10  2  0  0  0  0
 10 24  1  0  0  0  0
 11 12  2  0  0  0  0
 11 17  1  0  0  0  0
 11 25  1  0  0  0  0
 12 14  1  0  0  0  0
 13 15  1  0  0  0  0
 14 15  1  0  0  0  0
 14 20  2  0  0  0  0
 15 16  1  0  0  0  0
 15 18  1  0  0  0  0
 17 19  2  0  0  0  0
 19 20  1  0  0  0  0
 19 26  1  0  0  0  0
 21 22  1  0  0  0  0
 21 23  1  0  0  0  0
 24 25  1  0  0  0  0
 26 27  1  0  0  0  0
 26 28  1  0  0  0  0
M  END
