70895
 OpenBabel03021519512D

 20 22  0  0  1  0  0  0  0  0999 V2000
    2.9731   -3.6495    0.0000 Cl  0  0  0  0  0  0  0  0  0  0  0  0
    4.2721   -1.3995    0.0000 N   0  0  0  0  0  0  0  0  0  0  0  0
    5.5712   -3.6495    0.0000 N   0  0  0  0  0  0  0  0  0  0  0  0
    8.2968   -0.9360    0.0000 N   0  0  0  0  0  0  0  0  0  0  0  0
    8.2968   -3.3630    0.0000 N   0  0  0  0  0  0  0  0  0  0  0  0
   10.6785   -2.1495    0.0000 Cl  0  0  0  0  0  0  0  0  0  0  0  0
   10.2275   -5.1015    0.0000 O   0  0  0  0  0  0  0  0  0  0  0  0
    5.5711   -0.6495    0.0000 C   0  0  0  0  0  0  0  0  0  0  0  0
    6.8702   -1.3995    0.0000 C   0  0  0  0  0  0  0  0  0  0  0  0
    6.8702   -2.8995    0.0000 C   0  0  0  0  0  0  0  0  0  0  0  0
    9.1785   -2.1495    0.0000 C   0  0  0  0  0  0  0  0  0  0  0  0
    4.2721   -2.8995    0.0000 C   0  0  0  0  0  0  0  0  0  0  0  0
   10.6911   -6.5281    0.0000 C   0  0  0  0  0  0  0  0  0  0  0  0
    9.6874   -7.6428    0.0000 C   0  0  0  0  0  0  0  0  0  0  0  0
    8.2202   -7.3309    0.0000 C   0  0  0  0  0  0  0  0  0  0  0  0
    7.7566   -5.9043    0.0000 C   0  0  0  0  0  0  0  0  0  0  0  0
    8.7603   -4.7896    0.0000 C   0  0  3  0  0  0  0  0  0  0  0  0
    5.5711    0.8505    0.0000 N   0  0  0  0  0  0  0  0  0  0  0  0
    4.2721    1.6005    0.0000 C   0  0  0  0  0  0  0  0  0  0  0  0
    6.8702    1.6005    0.0000 C   0  0  0  0  0  0  0  0  0  0  0  0
  1 12  1  0  0  0  0
  2  8  2  0  0  0  0
  2 12  1  0  0  0  0
  3 12  2  0  0  0  0
  3 10  1  0  0  0  0
  4 11  2  0  0  0  0
  4  9  1  0  0  0  0
  5 10  1  0  0  0  0
  5 11  1  0  0  0  0
  5 17  1  0  0  0  0
  6 11  1  0  0  0  0
  7 13  1  0  0  0  0
  7 17  1  0  0  0  0
  8  9  1  0  0  0  0
  8 18  1  0  0  0  0
  9 10  2  0  0  0  0
 13 14  1  0  0  0  0
 14 15  1  0  0  0  0
 15 16  1  0  0  0  0
 16 17  1  0  0  0  0
 18 19  1  0  0  0  0
 18 20  1  0  0  0  0
M  END
