270071
 OpenBabel03021519512D

 26 28  0  0  0  0  0  0  0  0999 V2000
    0.7500   -9.0933    0.0000 C   0  0  0  0  0  0  0  0  0  0  0  0
    0.7500  -10.5933    0.0000 C   0  0  0  0  0  0  0  0  0  0  0  0
    2.0490   -8.3433    0.0000 C   0  0  0  0  0  0  0  0  0  0  0  0
    2.0490  -11.3433    0.0000 C   0  0  0  0  0  0  0  0  0  0  0  0
    3.3481   -9.0933    0.0000 C   0  0  0  0  0  0  0  0  0  0  0  0
    3.3481  -10.5933    0.0000 C   0  0  0  0  0  0  0  0  0  0  0  0
    4.7747   -8.6297    0.0000 S   0  0  0  0  0  0  0  0  0  0  0  0
    5.6563   -9.8433    0.0000 C   0  0  0  0  0  0  0  0  0  0  0  0
    4.7747  -11.0568    0.0000 N   0  0  0  0  0  0  0  0  0  0  0  0
    7.1563   -9.8433    0.0000 N   0  0  0  0  0  0  0  0  0  0  0  0
    9.4063  -11.1423    0.0000 S   0  0  0  0  0  0  0  0  0  0  0  0
    9.4063  -12.6423    0.0000 O   0  0  0  0  0  0  0  0  0  0  0  0
    9.4063   -9.6423    0.0000 O   0  0  0  0  0  0  0  0  0  0  0  0
   10.9063  -11.1423    0.0000 C   0  0  0  0  0  0  0  0  0  0  0  0
   11.6563  -12.4413    0.0000 C   0  0  0  0  0  0  0  0  0  0  0  0
   11.6563   -9.8432    0.0000 C   0  0  0  0  0  0  0  0  0  0  0  0
   13.1563  -12.4413    0.0000 C   0  0  0  0  0  0  0  0  0  0  0  0
   13.1563   -9.8432    0.0000 C   0  0  0  0  0  0  0  0  0  0  0  0
   13.9063  -11.1423    0.0000 C   0  0  0  0  0  0  0  0  0  0  0  0
   16.1563   -9.8432    0.0000 C   0  0  0  0  0  0  0  0  0  0  0  0
   15.4063   -8.5442    0.0000 O   0  0  0  0  0  0  0  0  0  0  0  0
    5.2382  -12.4834    0.0000 C   0  0  0  0  0  0  0  0  0  0  0  0
    7.9063  -11.1423    0.0000 N   0  0  0  0  0  0  0  0  0  0  0  0
   13.9064  -13.7404    0.0000 N   0  0  0  0  0  0  0  0  0  0  0  0
   15.4063  -11.1423    0.0000 N   0  0  0  0  0  0  0  0  0  0  0  0
   17.6563   -9.8432    0.0000 C   0  0  0  0  0  0  0  0  0  0  0  0
  1  3  2  0  0  0  0
  1  2  1  0  0  0  0
  2  4  2  0  0  0  0
  3  5  1  0  0  0  0
  4  6  1  0  0  0  0
  5  7  1  0  0  0  0
  5  6  2  0  0  0  0
  6  9  1  0  0  0  0
  7  8  1  0  0  0  0
  8 10  2  0  0  0  0
  8  9  1  0  0  0  0
  9 22  1  0  0  0  0
 10 23  1  0  0  0  0
 11 13  2  0  0  0  0
 11 12  2  0  0  0  0
 11 14  1  0  0  0  0
 11 23  1  0  0  0  0
 14 16  2  0  0  0  0
 14 15  1  0  0  0  0
 15 17  2  0  0  0  0
 16 18  1  0  0  0  0
 17 19  1  0  0  0  0
 17 24  1  0  0  0  0
 18 19  2  0  0  0  0
 19 25  1  0  0  0  0
 20 21  2  0  0  0  0
 20 25  1  0  0  0  0
 20 26  1  0  0  0  0
M  END
