108655
 OpenBabel03021519512D

 12 11  0  0  0  0  0  0  0  0999 V2000
   -2.5245    0.2745    0.0000 C   0  0  0  0  0  0  0  0  0  0  0  0
   -3.2745   -1.0245    0.0000 C   0  0  0  0  0  0  0  0  0  0  0  0
   -1.0245    0.2745    0.0000 C   0  0  0  0  0  0  0  0  0  0  0  0
   -3.2745    1.5736    0.0000 C   0  0  0  0  0  0  0  0  0  0  0  0
   -4.7745    1.5736    0.0000 C   0  0  0  0  0  0  0  0  0  0  0  0
   -5.5245    2.8726    0.0000 C   0  0  0  0  0  0  0  0  0  0  0  0
   -4.7745    4.1716    0.0000 C   0  0  0  0  0  0  0  0  0  0  0  0
   -3.2745    4.1716    0.0000 C   0  0  0  0  0  0  0  0  0  0  0  0
   -5.5245    5.4707    0.0000 C   0  0  0  0  0  0  0  0  0  0  0  0
   -7.0245    5.4707    0.0000 C   0  0  0  0  0  0  0  0  0  0  0  0
   -7.7745    6.7697    0.0000 O   0  0  0  0  0  0  0  0  0  0  0  0
   -7.7745    4.1716    0.0000 N   0  0  0  0  0  0  0  0  0  0  0  0
  1  2  1  0  0  0  0
  1  3  1  0  0  0  0
  1  4  2  0  0  0  0
  4  5  1  0  0  0  0
  5  6  1  0  0  0  0
  6  7  1  0  0  0  0
  7  8  1  0  0  0  0
  7  9  2  0  0  0  0
  9 10  1  0  0  0  0
 10 11  2  0  0  0  0
 10 12  1  0  0  0  0
M  END
