236254
 OpenBabel03021519512D

 20 22  0  0  0  0  0  0  0  0999 V2000
   -6.6536   -5.2480    0.0000 C   0  0  0  0  0  0  0  0  0  0  0  0
   -6.1901   -6.6746    0.0000 N   0  0  0  0  0  0  0  0  0  0  0  0
   -5.4401   -4.3664    0.0000 C   0  0  0  0  0  0  0  0  0  0  0  0
   -4.6901   -6.6746    0.0000 N   0  3  0  0  0  0  0  0  0  0  0  0
   -4.2266   -5.2480    0.0000 C   0  0  0  0  0  0  0  0  0  0  0  0
   -3.8084   -7.8881    0.0000 O   0  5  0  0  0  0  0  0  0  0  0  0
   -7.0718   -7.8882    0.0000 O   0  0  0  0  0  0  0  0  0  0  0  0
   -8.0802   -4.7845    0.0000 C   0  0  0  0  0  0  0  0  0  0  0  0
   -9.1949   -5.7882    0.0000 C   0  0  0  0  0  0  0  0  0  0  0  0
  -10.6215   -5.3247    0.0000 C   0  0  0  0  0  0  0  0  0  0  0  0
  -10.9334   -3.8575    0.0000 C   0  0  0  0  0  0  0  0  0  0  0  0
   -9.8187   -2.8538    0.0000 C   0  0  0  0  0  0  0  0  0  0  0  0
   -8.3921   -3.3173    0.0000 C   0  0  0  0  0  0  0  0  0  0  0  0
   -5.4401   -2.8664    0.0000 C   0  0  0  0  0  0  0  0  0  0  0  0
   -2.8000   -4.7845    0.0000 C   0  0  0  0  0  0  0  0  0  0  0  0
   -2.4881   -3.3173    0.0000 C   0  0  0  0  0  0  0  0  0  0  0  0
   -1.0616   -2.8538    0.0000 C   0  0  0  0  0  0  0  0  0  0  0  0
    0.0532   -3.8575    0.0000 C   0  0  0  0  0  0  0  0  0  0  0  0
   -0.2587   -5.3247    0.0000 C   0  0  0  0  0  0  0  0  0  0  0  0
   -1.6853   -5.7882    0.0000 C   0  0  0  0  0  0  0  0  0  0  0  0
  1  3  2  0  0  0  0
  1  2  1  0  0  0  0
  1  8  1  0  0  0  0
  2  4  1  0  0  0  0
  2  7  1  0  0  0  0
  3  5  1  0  0  0  0
  3 14  1  0  0  0  0
  4  5  2  0  0  0  0
  4  6  1  0  0  0  0
  5 15  1  0  0  0  0
  8  9  2  0  0  0  0
  8 13  1  0  0  0  0
  9 10  1  0  0  0  0
 10 11  2  0  0  0  0
 11 12  1  0  0  0  0
 12 13  2  0  0  0  0
 15 16  2  0  0  0  0
 15 20  1  0  0  0  0
 16 17  1  0  0  0  0
 17 18  2  0  0  0  0
 18 19  1  0  0  0  0
 19 20  2  0  0  0  0
M  CHG  2   4   1   6  -1
M  END
