122253
 OpenBabel03021519512D

 22 27  0  0  1  0  0  0  0  0999 V2000
   -7.9274   -7.5000    0.0000 O   0  0  0  0  0  0  0  0  0  0  0  0
   -6.6284   -5.2500    0.0000 N   0  0  0  0  0  0  0  0  0  0  0  0
   -3.9028   -1.0365    0.0000 N   0  0  0  0  0  0  0  0  0  0  0  0
   -6.6284   -0.7500    0.0000 C   0  0  0  0  0  0  0  0  0  0  0  0
   -5.3294   -1.5000    0.0000 C   0  0  3  0  0  0  0  0  0  0  0  0
   -7.9274   -1.5000    0.0000 C   0  0  3  0  0  0  0  0  0  0  0  0
   -5.3294   -3.0000    0.0000 C   0  0  3  0  0  0  0  0  0  0  0  0
   -7.9274   -3.0000    0.0000 C   0  0  0  0  0  0  0  0  0  0  0  0
   -4.2687   -4.0607    0.0000 C   0  0  0  0  0  0  0  0  0  0  0  0
   -3.9028   -3.4635    0.0000 C   0  0  0  0  0  0  0  0  0  0  0  0
   -3.0211   -2.2500    0.0000 C   0  0  0  0  0  0  0  0  0  0  0  0
   -6.6284   -3.7500    0.0000 C   0  0  0  0  0  0  0  0  0  0  0  0
   -9.2265   -3.7500    0.0000 C   0  0  0  0  0  0  0  0  0  0  0  0
   -2.7687   -4.0607    0.0000 C   0  0  0  0  0  0  0  0  0  0  0  0
   -2.0187   -5.3597    0.0000 C   0  0  0  0  0  0  0  0  0  0  0  0
   -2.7687   -6.6587    0.0000 C   0  0  0  0  0  0  0  0  0  0  0  0
   -5.0187   -5.3597    0.0000 C   0  0  0  0  0  0  0  0  0  0  0  0
   -9.2265   -5.2500    0.0000 C   0  0  0  0  0  0  0  0  0  0  0  0
   -4.2687   -6.6587    0.0000 C   0  0  0  0  0  0  0  0  0  0  0  0
   -7.9274   -6.0000    0.0000 C   0  0  0  0  0  0  0  0  0  0  0  0
   -4.7845   -2.2500    0.0000 C   0  0  0  0  0  0  0  0  0  0  0  0
   -5.3046   -0.8431    0.0000 O   0  0  0  0  0  0  0  0  0  0  0  0
  1 20  2  0  0  0  0
  2 12  1  0  0  0  0
  2 17  1  0  0  0  0
  2 20  1  0  0  0  0
  3  5  1  0  0  0  0
  3 11  1  0  0  0  0
  3 21  1  0  0  0  0
  4  5  1  0  0  0  0
  4  6  1  0  0  0  0
  5  7  1  0  0  0  0
  6  8  1  0  0  0  0
  6 21  1  0  0  0  0
  7  9  1  0  0  0  0
  7 10  1  0  0  0  0
  7 12  1  0  0  0  0
  8 12  2  0  0  0  0
  8 13  1  0  0  0  0
  9 17  2  0  0  0  0
  9 14  1  0  0  0  0
 10 11  1  0  0  0  0
 13 18  2  0  0  0  0
 14 15  2  0  0  0  0
 15 16  1  0  0  0  0
 16 19  2  0  0  0  0
 17 19  1  0  0  0  0
 18 20  1  0  0  0  0
 21 22  2  0  0  0  0
M  END
