298793
 OpenBabel03021519512D

 18 19  0  0  0  0  0  0  0  0999 V2000
    2.0664    6.8991    0.0000 H   0  0  0  0  0  0  0  0  0  0  0  0
    2.5794    5.4895    0.0000 C   0  0  0  0  0  0  0  0  0  0  0  0
    4.0566    5.2291    0.0000 N   0  3  0  0  0  0  0  0  0  0  0  0
    4.5697    3.8195    0.0000 O   0  5  0  0  0  0  0  0  0  0  0  0
    6.4980    6.1177    0.0000 C   0  0  0  0  0  0  0  0  0  0  0  0
    6.4980    7.6177    0.0000 C   0  0  0  0  0  0  0  0  0  0  0  0
    7.7971    5.3677    0.0000 C   0  0  0  0  0  0  0  0  0  0  0  0
    7.7971    8.3677    0.0000 C   0  0  0  0  0  0  0  0  0  0  0  0
    9.0961    7.6177    0.0000 C   0  0  0  0  0  0  0  0  0  0  0  0
    9.0961    6.1177    0.0000 C   0  0  0  0  0  0  0  0  0  0  0  0
    1.6152    4.3405    0.0000 C   0  0  0  0  0  0  0  0  0  0  0  0
    2.1283    2.9309    0.0000 C   0  0  0  0  0  0  0  0  0  0  0  0
    1.1641    1.7819    0.0000 C   0  0  0  0  0  0  0  0  0  0  0  0
   -0.3131    2.0423    0.0000 C   0  0  0  0  0  0  0  0  0  0  0  0
   -0.8262    3.4519    0.0000 C   0  0  0  0  0  0  0  0  0  0  0  0
    0.1380    4.6009    0.0000 C   0  0  0  0  0  0  0  0  0  0  0  0
    5.0208    6.3781    0.0000 C   0  0  0  0  0  0  0  0  0  0  0  0
    5.9850    4.7081    0.0000 O   0  0  0  0  0  0  0  0  0  0  0  0
  1  2  1  0  0  0  0
  2  3  2  0  0  0  0
  2 11  1  0  0  0  0
  3  4  1  0  0  0  0
  3 17  1  0  0  0  0
  5  6  1  0  0  0  0
  5  7  1  0  0  0  0
  5 17  1  0  0  0  0
  5 18  1  0  0  0  0
  6  8  1  0  0  0  0
  7 10  1  0  0  0  0
  8  9  1  0  0  0  0
  9 10  1  0  0  0  0
 11 12  2  0  0  0  0
 11 16  1  0  0  0  0
 12 13  1  0  0  0  0
 13 14  2  0  0  0  0
 14 15  1  0  0  0  0
 15 16  2  0  0  0  0
M  CHG  2   3   1   4  -1
M  END
