36582
 OpenBabel03021519512D

 16 17  0  0  1  0  0  0  0  0999 V2000
   -2.2231   -3.6495    0.0000 O   0  0  0  0  0  0  0  0  0  0  0  0
   -2.2231   -6.6495    0.0000 O   0  0  0  0  0  0  0  0  0  0  0  0
   -4.8211   -3.6495    0.0000 C   0  0  0  0  0  0  0  0  0  0  0  0
   -6.1202   -4.3995    0.0000 C   0  0  0  0  0  0  0  0  0  0  0  0
   -3.5221   -4.3995    0.0000 C   0  0  0  0  0  0  0  0  0  0  0  0
   -3.5221   -5.8995    0.0000 C   0  0  0  0  0  0  0  0  0  0  0  0
   -6.1202   -5.8995    0.0000 C   0  0  0  0  0  0  0  0  0  0  0  0
   -4.8211   -6.6495    0.0000 C   0  0  0  0  0  0  0  0  0  0  0  0
   -0.9240   -4.3995    0.0000 C   0  0  3  0  0  0  0  0  0  0  0  0
   -0.9240   -5.8995    0.0000 C   0  0  0  0  0  0  0  0  0  0  0  0
    0.3750   -3.6495    0.0000 C   0  0  0  0  0  0  0  0  0  0  0  0
    1.6741   -4.3995    0.0000 O   0  0  0  0  0  0  0  0  0  0  0  0
    0.3750   -2.1495    0.0000 N   0  0  0  0  0  0  0  0  0  0  0  0
    1.6740   -1.3995    0.0000 C   0  0  0  0  0  0  0  0  0  0  0  0
    2.9731   -2.1495    0.0000 C   0  0  0  0  0  0  0  0  0  0  0  0
    2.9731   -3.6495    0.0000 C   0  0  0  0  0  0  0  0  0  0  0  0
  1  5  1  0  0  0  0
  1  9  1  0  0  0  0
  2  6  1  0  0  0  0
  2 10  1  0  0  0  0
  3  4  2  0  0  0  0
  3  5  1  0  0  0  0
  4  7  1  0  0  0  0
  5  6  2  0  0  0  0
  6  8  1  0  0  0  0
  7  8  2  0  0  0  0
  9 10  1  0  0  0  0
  9 11  1  0  0  0  0
 11 12  2  0  0  0  0
 11 13  1  0  0  0  0
 13 14  1  0  0  0  0
 14 15  1  0  0  0  0
 15 16  2  0  0  0  0
M  END
