27032
 OpenBabel03021519512D

 18 20  0  0  0  0  0  0  0  0999 V2000
    6.9815    1.6159    0.0000 H   0  0  0  0  0  0  0  0  0  0  0  0
    5.8667    0.6122    0.0000 N   0  0  0  0  0  0  0  0  0  0  0  0
    8.6216   -0.8796    0.0000 C   0  0  0  0  0  0  0  0  0  0  0  0
    9.9207   -1.6296    0.0000 C   0  0  0  0  0  0  0  0  0  0  0  0
    7.3226   -1.6296    0.0000 C   0  0  0  0  0  0  0  0  0  0  0  0
    9.9207   -3.1296    0.0000 C   0  0  0  0  0  0  0  0  0  0  0  0
    7.3226   -3.1296    0.0000 C   0  0  0  0  0  0  0  0  0  0  0  0
    6.0235   -0.8796    0.0000 C   0  0  0  0  0  0  0  0  0  0  0  0
    4.6532   -1.4897    0.0000 C   0  0  0  0  0  0  0  0  0  0  0  0
    8.6216   -3.8796    0.0000 C   0  0  0  0  0  0  0  0  0  0  0  0
    3.6495   -0.3750    0.0000 C   0  0  0  0  0  0  0  0  0  0  0  0
    3.6495    2.2231    0.0000 C   0  0  0  0  0  0  0  0  0  0  0  0
    2.1495    2.2231    0.0000 C   0  0  0  0  0  0  0  0  0  0  0  0
    4.3995    0.9241    0.0000 C   0  0  0  0  0  0  0  0  0  0  0  0
    1.3995    0.9240    0.0000 C   0  0  0  0  0  0  0  0  0  0  0  0
    2.1495   -0.3750    0.0000 C   0  0  0  0  0  0  0  0  0  0  0  0
   11.2197   -3.8796    0.0000 O   0  0  0  0  0  0  0  0  0  0  0  0
   12.5187   -3.1296    0.0000 C   0  0  0  0  0  0  0  0  0  0  0  0
  1  2  1  0  0  0  0
  2  8  1  0  0  0  0
  2 14  1  0  0  0  0
  3  4  2  0  0  0  0
  3  5  1  0  0  0  0
  4  6  1  0  0  0  0
  5  7  2  0  0  0  0
  5  8  1  0  0  0  0
  6 10  2  0  0  0  0
  6 17  1  0  0  0  0
  7 10  1  0  0  0  0
  8  9  2  0  0  0  0
  9 11  1  0  0  0  0
 11 14  2  0  0  0  0
 11 16  1  0  0  0  0
 12 13  2  0  0  0  0
 12 14  1  0  0  0  0
 13 15  1  0  0  0  0
 15 16  2  0  0  0  0
 17 18  1  0  0  0  0
M  END
