299968
 OpenBabel03021519512D

 18 19  0  0  0  0  0  0  0  0999 V2000
   -6.1928   -6.5852    0.0000 N   0  0  0  0  0  0  0  0  0  0  0  0
   -4.5688   -8.3889    0.0000 C   0  0  0  0  0  0  0  0  0  0  0  0
   -4.8225   -5.9751    0.0000 C   0  0  0  0  0  0  0  0  0  0  0  0
   -3.8188   -7.0898    0.0000 N   0  0  0  0  0  0  0  0  0  0  0  0
   -2.4485   -6.4797    0.0000 C   0  0  0  0  0  0  0  0  0  0  0  0
   -4.0725   -4.6761    0.0000 S   0  0  0  0  0  0  0  0  0  0  0  0
   -2.6053   -4.9880    0.0000 C   0  0  0  0  0  0  0  0  0  0  0  0
   -1.1494   -7.2297    0.0000 C   0  0  0  0  0  0  0  0  0  0  0  0
   -1.1494   -8.7297    0.0000 N   0  0  0  0  0  0  0  0  0  0  0  0
    0.1496   -6.4797    0.0000 C   0  0  0  0  0  0  0  0  0  0  0  0
    0.1496   -4.9797    0.0000 O   0  0  0  0  0  0  0  0  0  0  0  0
    1.4486   -7.2297    0.0000 O   0  0  0  0  0  0  0  0  0  0  0  0
   -6.0360   -8.0770    0.0000 N   0  0  0  0  0  0  0  0  0  0  0  0
   -5.0323   -9.8155    0.0000 C   0  0  0  0  0  0  0  0  0  0  0  0
   -3.1985   -8.9990    0.0000 C   0  0  0  0  0  0  0  0  0  0  0  0
    0.1496   -9.4797    0.0000 O   0  0  0  0  0  0  0  0  0  0  0  0
    1.4486   -4.2297    0.0000 C   0  0  0  0  0  0  0  0  0  0  0  0
    1.4486   -2.7297    0.0000 C   0  0  0  0  0  0  0  0  0  0  0  0
  1  3  2  0  0  0  0
  1 13  1  0  0  0  0
  2  4  1  0  0  0  0
  2 13  1  0  0  0  0
  2 14  1  0  0  0  0
  2 15  1  0  0  0  0
  3  6  1  0  0  0  0
  3  4  1  0  0  0  0
  4  5  1  0  0  0  0
  5  7  2  0  0  0  0
  5  8  1  0  0  0  0
  6  7  1  0  0  0  0
  8 10  1  0  0  0  0
  8  9  2  0  0  0  0
  9 16  1  0  0  0  0
 10 11  1  0  0  0  0
 10 12  2  0  0  0  0
 11 17  1  0  0  0  0
 17 18  1  0  0  0  0
M  END
