42135
 OpenBabel03021519512D

 17 18  0  0  0  0  0  0  0  0999 V2000
   -8.5245    2.3236    0.0000 C   0  0  0  0  0  0  0  0  0  0  0  0
   -7.7745    1.0245    0.0000 C   0  0  0  0  0  0  0  0  0  0  0  0
   -4.0245   -0.2745    0.0000 C   0  0  0  0  0  0  0  0  0  0  0  0
   -5.5245   -0.2745    0.0000 C   0  0  0  0  0  0  0  0  0  0  0  0
   -8.5245   -0.2745    0.0000 C   0  0  0  0  0  0  0  0  0  0  0  0
  -10.7745    1.0245    0.0000 C   0  0  0  0  0  0  0  0  0  0  0  0
   -3.2745   -1.5736    0.0000 C   0  0  0  0  0  0  0  0  0  0  0  0
   -6.2745   -1.5736    0.0000 C   0  0  0  0  0  0  0  0  0  0  0  0
   -4.0245   -2.8726    0.0000 C   0  0  0  0  0  0  0  0  0  0  0  0
   -5.5245   -2.8726    0.0000 C   0  0  0  0  0  0  0  0  0  0  0  0
  -10.0245    2.3236    0.0000 N   0  0  0  0  0  0  0  0  0  0  0  0
  -10.0245   -0.2745    0.0000 N   0  0  0  0  0  0  0  0  0  0  0  0
   -8.5245   -2.8726    0.0000 H   0  0  0  0  0  0  0  0  0  0  0  0
   -7.7745   -1.5736    0.0000 N   0  0  0  0  0  0  0  0  0  0  0  0
   -1.7745   -1.5736    0.0000 Br  0  0  0  0  0  0  0  0  0  0  0  0
  -12.2745    1.0245    0.0000 N   0  0  0  0  0  0  0  0  0  0  0  0
   -7.7745    3.6226    0.0000 N   0  0  0  0  0  0  0  0  0  0  0  0
  1 11  2  0  0  0  0
  1  2  1  0  0  0  0
  1 17  1  0  0  0  0
  2  5  2  0  0  0  0
  3  7  1  0  0  0  0
  3  4  2  0  0  0  0
  4  8  1  0  0  0  0
  5 14  1  0  0  0  0
  5 12  1  0  0  0  0
  6 11  1  0  0  0  0
  6 12  2  0  0  0  0
  6 16  1  0  0  0  0
  7 15  1  0  0  0  0
  7  9  2  0  0  0  0
  8 14  1  0  0  0  0
  8 10  2  0  0  0  0
  9 10  1  0  0  0  0
 13 14  1  0  0  0  0
M  END
