138389
 OpenBabel03021519512D

 18 19  0  0  0  0  0  0  0  0999 V2000
    3.5221    7.3995    0.0000 N   0  0  0  0  0  0  0  0  0  0  0  0
    3.5221    4.3995    0.0000 N   0  0  0  0  0  0  0  0  0  0  0  0
    3.5221    2.8995    0.0000 H   0  0  0  0  0  0  0  0  0  0  0  0
    6.1202    4.3995    0.0000 O   0  0  0  0  0  0  0  0  0  0  0  0
    4.8211   11.1495    0.0000 Cl  0  0  0  0  0  0  0  0  0  0  0  0
    0.9240    7.3995    0.0000 C   0  0  0  0  0  0  0  0  0  0  0  0
   -0.3750    6.6495    0.0000 C   0  0  0  0  0  0  0  0  0  0  0  0
    2.2231    6.6495    0.0000 C   0  0  0  0  0  0  0  0  0  0  0  0
    2.2231    5.1495    0.0000 C   0  0  0  0  0  0  0  0  0  0  0  0
   -0.3750    5.1495    0.0000 C   0  0  0  0  0  0  0  0  0  0  0  0
    0.9240    4.3995    0.0000 C   0  0  0  0  0  0  0  0  0  0  0  0
    4.8211    6.6495    0.0000 C   0  0  0  0  0  0  0  0  0  0  0  0
    4.8211    5.1495    0.0000 C   0  0  0  0  0  0  0  0  0  0  0  0
   -1.6740    7.3995    0.0000 C   0  0  0  0  0  0  0  0  0  0  0  0
   -1.6740    4.3995    0.0000 C   0  0  0  0  0  0  0  0  0  0  0  0
    3.5221    8.8995    0.0000 C   0  0  0  0  0  0  0  0  0  0  0  0
    2.2231    9.6495    0.0000 O   0  0  0  0  0  0  0  0  0  0  0  0
    4.8211    9.6495    0.0000 C   0  0  0  0  0  0  0  0  0  0  0  0
  1  8  1  0  0  0  0
  1 12  1  0  0  0  0
  1 16  1  0  0  0  0
  2  9  1  0  0  0  0
  2 13  1  0  0  0  0
  2  3  1  0  0  0  0
  4 13  2  0  0  0  0
  5 18  1  0  0  0  0
  6  7  2  0  0  0  0
  6  8  1  0  0  0  0
  7 10  1  0  0  0  0
  7 14  1  0  0  0  0
  8  9  2  0  0  0  0
  9 11  1  0  0  0  0
 10 11  2  0  0  0  0
 10 15  1  0  0  0  0
 12 13  1  0  0  0  0
 16 17  2  0  0  0  0
 16 18  1  0  0  0  0
M  END
