45745
 OpenBabel03021519512D

 19 20  0  0  0  0  0  0  0  0999 V2000
    3.1907    6.7716    0.0000 O   0  0  0  0  0  0  0  0  0  0  0  0
   -0.9240    7.3995    0.0000 C   0  0  0  0  0  0  0  0  0  0  0  0
    0.3750    6.6495    0.0000 C   0  0  0  0  0  0  0  0  0  0  0  0
   -2.2231    6.6495    0.0000 C   0  0  0  0  0  0  0  0  0  0  0  0
    0.3750    5.1495    0.0000 C   0  0  0  0  0  0  0  0  0  0  0  0
   -2.2231    5.1495    0.0000 C   0  0  0  0  0  0  0  0  0  0  0  0
   -0.9240    4.3995    0.0000 C   0  0  0  0  0  0  0  0  0  0  0  0
    3.8949    5.4472    0.0000 C   0  0  0  0  0  0  0  0  0  0  0  0
    5.3721    5.7077    0.0000 C   0  0  0  0  0  0  0  0  0  0  0  0
    5.5808    7.1931    0.0000 C   0  0  0  0  0  0  0  0  0  0  0  0
    4.2326    7.8507    0.0000 C   0  0  0  0  0  0  0  0  0  0  0  0
   -0.9240    2.8995    0.0000 N   0  3  0  0  0  0  0  0  0  0  0  0
   -2.2231    2.1495    0.0000 O   0  5  0  0  0  0  0  0  0  0  0  0
    0.3750    2.1495    0.0000 O   0  0  0  0  0  0  0  0  0  0  0  0
    1.6740    7.3995    0.0000 N   0  0  0  0  0  0  0  0  0  0  0  0
    1.4136    8.8767    0.0000 C   0  0  0  0  0  0  0  0  0  0  0  0
    0.0040    9.3898    0.0000 O   0  0  0  0  0  0  0  0  0  0  0  0
    2.5626    9.8409    0.0000 N   0  0  0  0  0  0  0  0  0  0  0  0
    3.9722    9.3279    0.0000 C   0  0  0  0  0  0  0  0  0  0  0  0
  1  8  1  0  0  0  0
  1 11  1  0  0  0  0
  2  4  2  0  0  0  0
  2  3  1  0  0  0  0
  3  5  2  0  0  0  0
  3 15  1  0  0  0  0
  4  6  1  0  0  0  0
  5  7  1  0  0  0  0
  6  7  2  0  0  0  0
  7 12  1  0  0  0  0
  8  9  2  0  0  0  0
  9 10  1  0  0  0  0
 10 11  2  0  0  0  0
 11 19  1  0  0  0  0
 12 13  1  0  0  0  0
 12 14  2  0  0  0  0
 15 16  1  0  0  0  0
 16 17  2  0  0  0  0
 16 18  1  0  0  0  0
 18 19  1  0  0  0  0
M  CHG  2  12   1  13  -1
M  END
