109084
 OpenBabel03021519512D

 16 18  0  0  0  0  0  0  0  0999 V2000
   -5.2966   -5.4241    0.0000 N   0  0  0  0  0  0  0  0  0  0  0  0
   -0.1005   -3.9240    0.0000 N   0  0  0  0  0  0  0  0  0  0  0  0
    1.3995   -3.9240    0.0000 C   0  0  0  0  0  0  0  0  0  0  0  0
    0.6495   -5.2231    0.0000 C   0  0  0  0  0  0  0  0  0  0  0  0
   -7.8947   -5.4241    0.0000 C   0  0  0  0  0  0  0  0  0  0  0  0
   -9.1937   -6.1741    0.0000 C   0  0  0  0  0  0  0  0  0  0  0  0
   -6.5957   -6.1741    0.0000 C   0  0  0  0  0  0  0  0  0  0  0  0
   -6.5956   -7.6741    0.0000 C   0  0  0  0  0  0  0  0  0  0  0  0
   -9.1937   -7.6741    0.0000 C   0  0  0  0  0  0  0  0  0  0  0  0
   -5.2966   -8.4241    0.0000 C   0  0  0  0  0  0  0  0  0  0  0  0
   -3.9976   -6.1741    0.0000 C   0  0  0  0  0  0  0  0  0  0  0  0
   -3.9976   -7.6741    0.0000 C   0  0  0  0  0  0  0  0  0  0  0  0
   -7.8947   -8.4241    0.0000 C   0  0  0  0  0  0  0  0  0  0  0  0
   -2.6985   -5.4240    0.0000 O   0  0  0  0  0  0  0  0  0  0  0  0
   -2.6985   -3.9240    0.0000 C   0  0  0  0  0  0  0  0  0  0  0  0
   -1.3995   -3.1740    0.0000 C   0  0  0  0  0  0  0  0  0  0  0  0
  1 11  2  0  0  0  0
  1  7  1  0  0  0  0
  2  3  1  0  0  0  0
  2  4  1  0  0  0  0
  2 16  1  0  0  0  0
  3  4  1  0  0  0  0
  5  6  2  0  0  0  0
  5  7  1  0  0  0  0
  6  9  1  0  0  0  0
  7  8  2  0  0  0  0
  8 10  1  0  0  0  0
  8 13  1  0  0  0  0
  9 13  2  0  0  0  0
 10 12  2  0  0  0  0
 11 12  1  0  0  0  0
 11 14  1  0  0  0  0
 14 15  1  0  0  0  0
 15 16  1  0  0  0  0
M  END
