306752
 OpenBabel03021519512D

 16 17  0  0  0  0  0  0  0  0999 V2000
   -3.2745    1.0245    0.0000 C   0  0  0  0  0  0  0  0  0  0  0  0
   -4.7745    1.0245    0.0000 C   0  0  0  0  0  0  0  0  0  0  0  0
   -9.4144    3.6939    0.0000 C   0  0  0  0  0  0  0  0  0  0  0  0
   -2.5245   -0.2745    0.0000 C   0  0  0  0  0  0  0  0  0  0  0  0
   -5.5245   -0.2745    0.0000 C   0  0  0  0  0  0  0  0  0  0  0  0
   -3.2745   -1.5736    0.0000 C   0  0  0  0  0  0  0  0  0  0  0  0
   -4.7745   -1.5736    0.0000 C   0  0  0  0  0  0  0  0  0  0  0  0
  -11.5163    2.4803    0.0000 C   0  0  0  0  0  0  0  0  0  0  0  0
  -10.5291    4.6976    0.0000 N   0  0  0  0  0  0  0  0  0  0  0  0
  -11.8282    3.9476    0.0000 N   0  0  0  0  0  0  0  0  0  0  0  0
  -10.0245    2.3235    0.0000 N   0  0  0  0  0  0  0  0  0  0  0  0
   -7.7745    1.0245    0.0000 C   0  0  0  0  0  0  0  0  0  0  0  0
   -7.0245    2.3235    0.0000 O   0  0  0  0  0  0  0  0  0  0  0  0
   -2.5245   -2.8726    0.0000 Cl  0  0  0  0  0  0  0  0  0  0  0  0
   -9.2745    1.0245    0.0000 N   0  0  0  0  0  0  0  0  0  0  0  0
   -7.0245   -0.2745    0.0000 N   0  0  0  0  0  0  0  0  0  0  0  0
  1  2  1  0  0  0  0
  1  4  2  0  0  0  0
  2  5  2  0  0  0  0
  3  9  2  0  0  0  0
  3 11  1  0  0  0  0
  4  6  1  0  0  0  0
  5 16  1  0  0  0  0
  5  7  1  0  0  0  0
  6 14  1  0  0  0  0
  6  7  2  0  0  0  0
  8 11  1  0  0  0  0
  8 10  2  0  0  0  0
  9 10  1  0  0  0  0
 11 15  1  0  0  0  0
 12 13  2  0  0  0  0
 12 15  1  0  0  0  0
 12 16  1  0  0  0  0
M  END
