216618
 OpenBabel03021519512D

 18 19  0  0  0  0  0  0  0  0999 V2000
    2.9731    0.6495    0.0000 N   0  0  0  0  0  0  0  0  0  0  0  0
    5.5712   -0.8505    0.0000 N   0  0  0  0  0  0  0  0  0  0  0  0
    5.5712    0.6495    0.0000 C   0  0  0  0  0  0  0  0  0  0  0  0
    4.2721    1.3995    0.0000 C   0  0  0  0  0  0  0  0  0  0  0  0
   10.7673   -0.8504    0.0000 C   0  0  0  0  0  0  0  0  0  0  0  0
    9.4683   -1.6005    0.0000 C   0  0  0  0  0  0  0  0  0  0  0  0
   12.0663   -1.6004    0.0000 C   0  0  0  0  0  0  0  0  0  0  0  0
    9.4683   -3.1005    0.0000 C   0  0  0  0  0  0  0  0  0  0  0  0
   12.0664   -3.1004    0.0000 C   0  0  0  0  0  0  0  0  0  0  0  0
   10.7673   -3.8504    0.0000 C   0  0  0  0  0  0  0  0  0  0  0  0
    4.2721   -1.6005    0.0000 C   0  0  0  0  0  0  0  0  0  0  0  0
    2.9731   -0.8505    0.0000 C   0  0  0  0  0  0  0  0  0  0  0  0
    1.6740    1.3995    0.0000 C   0  0  0  0  0  0  0  0  0  0  0  0
    6.8702   -1.6005    0.0000 C   0  0  0  0  0  0  0  0  0  0  0  0
    6.8702   -3.1005    0.0000 O   0  0  0  0  0  0  0  0  0  0  0  0
    8.1692   -0.8505    0.0000 N   0  0  0  0  0  0  0  0  0  0  0  0
   10.7673   -5.3504    0.0000 S   0  0  0  0  0  0  0  0  0  0  0  0
   12.0664   -6.1004    0.0000 C   0  0  0  0  0  0  0  0  0  0  0  0
  1  4  1  0  0  0  0
  1 12  1  0  0  0  0
  1 13  1  0  0  0  0
  2  3  1  0  0  0  0
  2 11  1  0  0  0  0
  2 14  1  0  0  0  0
  3  4  1  0  0  0  0
  5  7  2  0  0  0  0
  5  6  1  0  0  0  0
  6  8  2  0  0  0  0
  6 16  1  0  0  0  0
  7  9  1  0  0  0  0
  8 10  1  0  0  0  0
  9 10  2  0  0  0  0
 10 17  1  0  0  0  0
 11 12  1  0  0  0  0
 14 15  2  0  0  0  0
 14 16  1  0  0  0  0
 17 18  1  0  0  0  0
M  END
