332452
 OpenBabel03021519512D

 18 19  0  0  0  0  0  0  0  0999 V2000
   -4.9324    0.8001    0.0000 C   0  0  0  0  0  0  0  0  0  0  0  0
   -3.7287    1.6951    0.0000 C   0  0  0  0  0  0  0  0  0  0  0  0
   -4.7592   -0.6899    0.0000 C   0  0  0  0  0  0  0  0  0  0  0  0
   -2.3517    1.1001    0.0000 C   0  0  0  0  0  0  0  0  0  0  0  0
   -3.3823   -1.2849    0.0000 C   0  0  0  0  0  0  0  0  0  0  0  0
   -2.1785   -0.3899    0.0000 C   0  0  0  0  0  0  0  0  0  0  0  0
   -1.1480    1.9950    0.0000 F   0  0  0  0  0  0  0  0  0  0  0  0
   -3.2091   -2.7749    0.0000 Cl  0  0  0  0  0  0  0  0  0  0  0  0
    1.5667   -2.4124    0.0000 O   0  0  0  0  0  0  0  0  0  0  0  0
    1.6549   -0.9150    0.0000 C   0  0  0  0  0  0  0  0  0  0  0  0
    2.9957   -0.2426    0.0000 C   0  0  0  0  0  0  0  0  0  0  0  0
    3.2399    1.2374    0.0000 C   0  0  0  0  0  0  0  0  0  0  0  0
    4.3278   -0.9322    0.0000 S   0  0  0  0  0  0  0  0  0  0  0  0
    5.3953    0.1216    0.0000 N   0  0  0  0  0  0  0  0  0  0  0  0
    4.7230    1.4625    0.0000 N   0  0  0  0  0  0  0  0  0  0  0  0
   -0.8016   -0.9849    0.0000 C   0  0  0  0  0  0  0  0  0  0  0  0
    0.4022   -0.0899    0.0000 N   0  0  0  0  0  0  0  0  0  0  0  0
    2.1861    2.3049    0.0000 C   0  0  0  0  0  0  0  0  0  0  0  0
  1  2  2  0  0  0  0
  1  3  1  0  0  0  0
  2  4  1  0  0  0  0
  3  5  2  0  0  0  0
  4  7  1  0  0  0  0
  4  6  2  0  0  0  0
  5  6  1  0  0  0  0
  5  8  1  0  0  0  0
  6 16  1  0  0  0  0
  9 10  2  0  0  0  0
 10 11  1  0  0  0  0
 10 17  1  0  0  0  0
 11 13  1  0  0  0  0
 11 12  2  0  0  0  0
 12 15  1  0  0  0  0
 12 18  1  0  0  0  0
 13 14  1  0  0  0  0
 14 15  2  0  0  0  0
 16 17  1  0  0  0  0
M  END
