42199
 OpenBabel03021519512D

 28 30  0  0  1  0  0  0  0  0999 V2000
    6.8312    0.9387    0.0000 N   0  0  0  0  0  0  0  0  0  0  0  0
    6.2576    2.7982    0.0000 C   0  0  3  0  0  0  0  0  0  0  0  0
    4.9061    2.1474    0.0000 C   0  0  0  0  0  0  0  0  0  0  0  0
    7.6090    2.1474    0.0000 C   0  0  0  0  0  0  0  0  0  0  0  0
    7.9428    0.6850    0.0000 C   0  0  3  0  0  0  0  0  0  0  0  0
    4.5723    0.6850    0.0000 C   0  0  0  0  0  0  0  0  0  0  0  0
    7.0076   -0.4878    0.0000 C   0  0  0  0  0  0  0  0  0  0  0  0
    5.5076   -0.4878    0.0000 C   0  0  3  0  0  0  0  0  0  0  0  0
   12.8439    8.5364    0.0000 C   0  0  0  0  0  0  0  0  0  0  0  0
   11.4105    8.0943    0.0000 S   0  0  0  0  0  0  0  0  0  0  0  0
   11.8527    6.6609    0.0000 O   0  0  0  0  0  0  0  0  0  0  0  0
    9.9772    7.6522    0.0000 O   0  0  0  0  0  0  0  0  0  0  0  0
   10.9684    9.5276    0.0000 O   0  0  0  0  0  0  0  0  0  0  0  0
    5.3688    1.2725    0.0000 C   0  0  0  0  0  0  0  0  0  0  0  0
    9.4052    0.3512    0.0000 O   0  0  0  0  0  0  0  0  0  0  0  0
   10.4255    1.4508    0.0000 C   0  0  3  0  0  0  0  0  0  0  0  0
   11.8879    1.1170    0.0000 C   0  0  0  0  0  0  0  0  0  0  0  0
   12.9081    2.2166    0.0000 C   0  0  0  0  0  0  0  0  0  0  0  0
   14.3705    1.8828    0.0000 C   0  0  0  0  0  0  0  0  0  0  0  0
   14.8127    0.4494    0.0000 C   0  0  0  0  0  0  0  0  0  0  0  0
   13.7924   -0.6502    0.0000 C   0  0  0  0  0  0  0  0  0  0  0  0
   12.3300   -0.3164    0.0000 C   0  0  0  0  0  0  0  0  0  0  0  0
    9.9833    2.8841    0.0000 C   0  0  0  0  0  0  0  0  0  0  0  0
    8.5209    3.2179    0.0000 C   0  0  0  0  0  0  0  0  0  0  0  0
    8.0788    4.6513    0.0000 C   0  0  0  0  0  0  0  0  0  0  0  0
    9.0991    5.7508    0.0000 C   0  0  0  0  0  0  0  0  0  0  0  0
   10.5615    5.4171    0.0000 C   0  0  0  0  0  0  0  0  0  0  0  0
   11.0036    3.9837    0.0000 C   0  0  0  0  0  0  0  0  0  0  0  0
  1  2  1  0  0  0  0
  1  8  1  0  0  0  0
  1 14  1  0  0  0  0
  2  3  1  0  0  0  0
  2  4  1  0  0  0  0
  3  6  1  0  0  0  0
  4  5  1  0  0  0  0
  5  7  1  0  0  0  0
  5 15  1  0  0  0  0
  6  8  1  0  0  0  0
  7  8  1  0  0  0  0
  9 10  1  0  0  0  0
 10 11  2  0  0  0  0
 10 12  2  0  0  0  0
 10 13  1  0  0  0  0
 15 16  1  0  0  0  0
 16 17  1  0  0  0  0
 16 23  1  0  0  0  0
 17 18  2  0  0  0  0
 17 22  1  0  0  0  0
 18 19  1  0  0  0  0
 19 20  2  0  0  0  0
 20 21  1  0  0  0  0
 21 22  2  0  0  0  0
 23 24  2  0  0  0  0
 23 28  1  0  0  0  0
 24 25  1  0  0  0  0
 25 26  2  0  0  0  0
 26 27  1  0  0  0  0
 27 28  2  0  0  0  0
M  END
