81462
 OpenBabel03021519512D

 13 15  0  0  1  0  0  0  0  0999 V2000
    5.4391    0.7258    0.0000 N   0  0  3  0  0  0  0  0  0  0  0  0
    5.4390    3.7258    0.0000 C   0  0  0  0  0  0  0  0  0  0  0  0
    6.7381    2.9758    0.0000 C   0  0  0  0  0  0  0  0  0  0  0  0
    6.7381    1.4758    0.0000 C   0  0  3  0  0  0  0  0  0  0  0  0
    4.1400    1.4758    0.0000 C   0  0  3  0  0  0  0  0  0  0  0  0
    2.8410    0.7258    0.0000 C   0  0  0  0  0  0  0  0  0  0  0  0
    2.8410   -0.7742    0.0000 C   0  0  0  0  0  0  0  0  0  0  0  0
    8.0371   -0.7742    0.0000 C   0  0  0  0  0  0  0  0  0  0  0  0
    6.7381   -1.5242    0.0000 C   0  0  0  0  0  0  0  0  0  0  0  0
    5.4391   -0.7742    0.0000 C   0  0  3  0  0  0  0  0  0  0  0  0
    8.0371    0.7258    0.0000 N   0  0  0  0  0  0  0  0  0  0  0  0
    4.1400   -1.5242    0.0000 N   0  0  0  0  0  0  0  0  0  0  0  0
    4.1400    2.9758    0.0000 N   0  0  0  0  0  0  0  0  0  0  0  0
  1  4  1  0  0  0  0
  1  5  1  0  0  0  0
  1 10  1  0  0  0  0
  2  3  1  0  0  0  0
  2 13  1  0  0  0  0
  3  4  1  0  0  0  0
  4 11  1  0  0  0  0
  5  6  1  0  0  0  0
  5 13  1  0  0  0  0
  6  7  1  0  0  0  0
  7 12  1  0  0  0  0
  8  9  1  0  0  0  0
  8 11  1  0  0  0  0
  9 10  1  0  0  0  0
 10 12  1  0  0  0  0
M  END
