12650
 OpenBabel03021519512D

 19 20  0  0  0  0  0  0  0  0999 V2000
   -9.2826   -1.5067    0.0000 O   0  0  0  0  0  0  0  0  0  0  0  0
   -2.8539   -6.4431    0.0000 N   0  0  0  0  0  0  0  0  0  0  0  0
   -2.8538   -7.9431    0.0000 N   0  0  0  0  0  0  0  0  0  0  0  0
   -0.2558   -7.9431    0.0000 C   0  0  0  0  0  0  0  0  0  0  0  0
   -1.5548   -8.6931    0.0000 C   0  0  0  0  0  0  0  0  0  0  0  0
    1.0433   -8.6931    0.0000 C   0  0  0  0  0  0  0  0  0  0  0  0
    1.0433  -10.1931    0.0000 C   0  0  0  0  0  0  0  0  0  0  0  0
   -1.5548  -10.1931    0.0000 C   0  0  0  0  0  0  0  0  0  0  0  0
   -0.2558  -10.9431    0.0000 C   0  0  0  0  0  0  0  0  0  0  0  0
   -4.1529   -4.1931    0.0000 C   0  0  0  0  0  0  0  0  0  0  0  0
   -5.4519   -3.4431    0.0000 C   0  0  0  0  0  0  0  0  0  0  0  0
   -4.1529   -5.6931    0.0000 C   0  0  0  0  0  0  0  0  0  0  0  0
   -5.4519   -6.4431    0.0000 C   0  0  0  0  0  0  0  0  0  0  0  0
   -6.7510   -4.1931    0.0000 C   0  0  0  0  0  0  0  0  0  0  0  0
   -6.7510   -5.6931    0.0000 C   0  0  0  0  0  0  0  0  0  0  0  0
   -8.8944   -2.9556    0.0000 As  0  0  0  0  0  0  0  0  0  0  0  0
   -7.3944   -2.9556    0.0000 O   0  0  0  0  0  0  0  0  0  0  0  0
   -9.9550   -4.0163    0.0000 O   0  0  0  0  0  0  0  0  0  0  0  0
    2.3423  -10.9431    0.0000 O   0  0  0  0  0  0  0  0  0  0  0  0
  1 16  2  0  0  0  0
  2 12  1  0  0  0  0
  2  3  2  0  0  0  0
  3  5  1  0  0  0  0
  4  6  2  0  0  0  0
  4  5  1  0  0  0  0
  5  8  2  0  0  0  0
  6  7  1  0  0  0  0
  7  9  2  0  0  0  0
  7 19  1  0  0  0  0
  8  9  1  0  0  0  0
 10 11  2  0  0  0  0
 10 12  1  0  0  0  0
 11 14  1  0  0  0  0
 12 13  2  0  0  0  0
 13 15  1  0  0  0  0
 14 15  2  0  0  0  0
 14 16  1  0  0  0  0
 16 17  1  0  0  0  0
 16 18  1  0  0  0  0
M  END
