40500
 OpenBabel03021519512D

 17 18  0  0  0  0  0  0  0  0999 V2000
   -0.6495   -3.9823    0.0000 N   0  0  0  0  0  0  0  0  0  0  0  0
   -3.2896   -3.5642    0.0000 O   0  0  0  0  0  0  0  0  0  0  0  0
   -1.3995   -1.6740    0.0000 O   0  0  0  0  0  0  0  0  0  0  0  0
   -1.8630   -3.1006    0.0000 C   0  0  0  0  0  0  0  0  0  0  0  0
   -3.2476   -5.4823    0.0000 C   0  0  0  0  0  0  0  0  0  0  0  0
   -1.9486   -6.2323    0.0000 C   0  0  0  0  0  0  0  0  0  0  0  0
   -4.5466   -6.2323    0.0000 C   0  0  0  0  0  0  0  0  0  0  0  0
   -1.9486   -7.7323    0.0000 C   0  0  0  0  0  0  0  0  0  0  0  0
   -4.5466   -7.7323    0.0000 C   0  0  0  0  0  0  0  0  0  0  0  0
   -3.2476   -8.4823    0.0000 C   0  0  0  0  0  0  0  0  0  0  0  0
    0.1005   -1.6740    0.0000 C   0  0  0  0  0  0  0  0  0  0  0  0
    0.5640   -3.1006    0.0000 C   0  0  0  0  0  0  0  0  0  0  0  0
   -5.8457   -5.4823    0.0000 O   0  0  0  0  0  0  0  0  0  0  0  0
   -7.1447   -6.2323    0.0000 C   0  0  0  0  0  0  0  0  0  0  0  0
   -5.8457   -8.4823    0.0000 O   0  0  0  0  0  0  0  0  0  0  0  0
   -7.1447   -7.7323    0.0000 C   0  0  0  0  0  0  0  0  0  0  0  0
   -0.6495   -5.4823    0.0000 C   0  0  0  0  0  0  0  0  0  0  0  0
  1  4  1  0  0  0  0
  1 12  1  0  0  0  0
  1 17  1  0  0  0  0
  2  4  2  0  0  0  0
  3  4  1  0  0  0  0
  3 11  1  0  0  0  0
  5  6  2  0  0  0  0
  5  7  1  0  0  0  0
  6  8  1  0  0  0  0
  6 17  1  0  0  0  0
  7  9  2  0  0  0  0
  7 13  1  0  0  0  0
  8 10  2  0  0  0  0
  9 10  1  0  0  0  0
  9 15  1  0  0  0  0
 11 12  1  0  0  0  0
 13 14  1  0  0  0  0
 15 16  1  0  0  0  0
M  END
