305780
 OpenBabel03021519512D

 26 28  0  0  0  0  0  0  0  0999 V2000
  -11.1423   -2.2500    0.0000 C   0  0  0  0  0  0  0  0  0  0  0  0
  -13.7404   -2.2500    0.0000 C   0  0  0  0  0  0  0  0  0  0  0  0
   -3.3481   -2.2500    0.0000 C   0  0  0  0  0  0  0  0  0  0  0  0
   -5.9462   -2.2500    0.0000 C   0  0  0  0  0  0  0  0  0  0  0  0
   -9.8433   -3.0000    0.0000 C   0  0  0  0  0  0  0  0  0  0  0  0
  -12.4413   -3.0000    0.0000 C   0  0  0  0  0  0  0  0  0  0  0  0
  -15.0394   -3.0000    0.0000 C   0  0  0  0  0  0  0  0  0  0  0  0
   -4.6471   -3.0000    0.0000 C   0  0  0  0  0  0  0  0  0  0  0  0
   -7.2452   -3.0000    0.0000 C   0  0  0  0  0  0  0  0  0  0  0  0
   -9.8433   -4.5000    0.0000 C   0  0  0  0  0  0  0  0  0  0  0  0
  -12.4413   -4.5000    0.0000 C   0  0  0  0  0  0  0  0  0  0  0  0
  -15.0394   -4.5000    0.0000 C   0  0  0  0  0  0  0  0  0  0  0  0
   -2.0490   -4.5000    0.0000 C   0  0  0  0  0  0  0  0  0  0  0  0
   -4.6471   -4.5000    0.0000 C   0  0  0  0  0  0  0  0  0  0  0  0
   -7.2452   -4.5000    0.0000 C   0  0  0  0  0  0  0  0  0  0  0  0
  -11.1423   -5.2500    0.0000 C   0  0  0  0  0  0  0  0  0  0  0  0
  -13.7404   -5.2500    0.0000 C   0  0  0  0  0  0  0  0  0  0  0  0
   -5.9461   -5.2500    0.0000 C   0  0  0  0  0  0  0  0  0  0  0  0
   -8.5442   -2.2500    0.0000 S   0  0  0  0  0  0  0  0  0  0  0  0
   -3.3481   -5.2500    0.0000 N   0  0  0  0  0  0  0  0  0  0  0  0
   -2.0490   -3.0000    0.0000 N   0  0  0  0  0  0  0  0  0  0  0  0
   -3.3481   -0.7500    0.0000 N   0  0  0  0  0  0  0  0  0  0  0  0
   -0.7500   -5.2500    0.0000 N   0  0  0  0  0  0  0  0  0  0  0  0
   -9.1937   -6.7500    0.0000 C   0  0  0  0  0  0  0  0  0  0  0  0
   -7.8947   -7.5000    0.0000 C   0  0  0  0  0  0  0  0  0  0  0  0
   -6.5957   -6.7500    0.0000 O   0  0  0  0  0  0  0  0  0  0  0  0
  1  5  2  0  0  0  0
  1  6  1  0  0  0  0
  2  7  2  0  0  0  0
  2  6  1  0  0  0  0
  3 21  2  0  0  0  0
  3  8  1  0  0  0  0
  3 22  1  0  0  0  0
  4  8  2  0  0  0  0
  4  9  1  0  0  0  0
  5 19  1  0  0  0  0
  5 10  1  0  0  0  0
  6 11  2  0  0  0  0
  7 12  1  0  0  0  0
  8 14  1  0  0  0  0
  9 19  1  0  0  0  0
  9 15  2  0  0  0  0
 10 16  2  0  0  0  0
 11 16  1  0  0  0  0
 11 17  1  0  0  0  0
 12 17  2  0  0  0  0
 13 21  1  0  0  0  0
 13 20  2  0  0  0  0
 13 23  1  0  0  0  0
 14 18  2  0  0  0  0
 14 20  1  0  0  0  0
 15 18  1  0  0  0  0
 24 25  1  0  0  0  0
 25 26  1  0  0  0  0
M  END
