175415
 OpenBabel03021519512D

 16 17  0  0  0  0  0  0  0  0999 V2000
   -6.4131   -4.0711    0.0000 N   0  0  0  0  0  0  0  0  0  0  0  0
   -5.4861   -6.9243    0.0000 N   0  0  0  0  0  0  0  0  0  0  0  0
   -3.7324   -3.5013    0.0000 N   0  0  0  0  0  0  0  0  0  0  0  0
   -3.7324   -2.0013    0.0000 H   0  0  0  0  0  0  0  0  0  0  0  0
   -2.9824   -5.8096    0.0000 N   0  0  0  0  0  0  0  0  0  0  0  0
   -7.4168   -5.1859    0.0000 C   0  0  0  0  0  0  0  0  0  0  0  0
   -6.9533   -6.6124    0.0000 C   0  0  0  0  0  0  0  0  0  0  0  0
   -2.5189   -4.3830    0.0000 C   0  0  0  0  0  0  0  0  0  0  0  0
   -4.9459   -4.3830    0.0000 C   0  0  0  0  0  0  0  0  0  0  0  0
   -4.4824   -5.8096    0.0000 C   0  0  0  0  0  0  0  0  0  0  0  0
   -8.8840   -4.8740    0.0000 C   0  0  0  0  0  0  0  0  0  0  0  0
   -7.9570   -7.7272    0.0000 C   0  0  0  0  0  0  0  0  0  0  0  0
   -1.0923   -3.9195    0.0000 C   0  0  0  0  0  0  0  0  0  0  0  0
   -1.5558   -2.4929    0.0000 F   0  0  0  0  0  0  0  0  0  0  0  0
   -0.6287   -5.3461    0.0000 F   0  0  0  0  0  0  0  0  0  0  0  0
    0.3343   -3.4559    0.0000 F   0  0  0  0  0  0  0  0  0  0  0  0
  1  6  2  0  0  0  0
  1  9  1  0  0  0  0
  2  7  2  0  0  0  0
  2 10  1  0  0  0  0
  3  8  1  0  0  0  0
  3  9  1  0  0  0  0
  3  4  1  0  0  0  0
  5  8  2  0  0  0  0
  5 10  1  0  0  0  0
  6  7  1  0  0  0  0
  6 11  1  0  0  0  0
  7 12  1  0  0  0  0
  8 13  1  0  0  0  0
  9 10  2  0  0  0  0
 13 14  1  0  0  0  0
 13 15  1  0  0  0  0
 13 16  1  0  0  0  0
M  END
