349156
 OpenBabel03021519512D

 25 28  0  0  1  0  0  0  0  0999 V2000
    1.4201    4.8371    0.0000 O   0  0  0  0  0  0  0  0  0  0  0  0
    2.8467    6.8006    0.0000 O   0  0  0  0  0  0  0  0  0  0  0  0
    4.6771    0.2626    0.0000 O   0  0  0  0  0  0  0  0  0  0  0  0
    8.8139    3.7464    0.0000 H   0  0  0  0  0  0  0  0  0  0  0  0
    9.6955    4.9599    0.0000 C   0  0  1  0  0  0  0  0  0  0  0  0
    8.2038    5.1167    0.0000 C   0  0  1  0  0  0  0  0  0  0  0  0
   10.3057    3.5896    0.0000 C   0  0  2  0  0  0  0  0  0  0  0  0
    7.3221    3.9032    0.0000 C   0  0  1  0  0  0  0  0  0  0  0  0
    9.4240    2.3761    0.0000 C   0  0  2  0  0  0  0  0  0  0  0  0
    7.9322    2.5329    0.0000 C   0  0  2  0  0  0  0  0  0  0  0  0
    5.8303    4.0600    0.0000 C   0  0  0  0  0  0  0  0  0  0  0  0
    5.2202    5.4303    0.0000 C   0  0  0  0  0  0  0  0  0  0  0  0
    3.7284    5.5871    0.0000 C   0  0  0  0  0  0  0  0  0  0  0  0
    4.9486    2.8464    0.0000 C   0  0  0  0  0  0  0  0  0  0  0  0
    2.8467    4.3735    0.0000 C   0  0  0  0  0  0  0  0  0  0  0  0
    6.4404    2.6897    0.0000 H   0  0  0  0  0  0  0  0  0  0  0  0
    5.5587    1.4761    0.0000 C   0  0  0  0  0  0  0  0  0  0  0  0
    3.4568    3.0032    0.0000 C   0  0  0  0  0  0  0  0  0  0  0  0
    1.4201    6.3371    0.0000 C   0  0  0  0  0  0  0  0  0  0  0  0
    2.5752    1.7897    0.0000 O   0  0  0  0  0  0  0  0  0  0  0  0
    7.5936    6.4870    0.0000 O   0  0  0  0  0  0  0  0  0  0  0  0
    7.0505    1.3193    0.0000 N   0  0  0  0  0  0  0  0  0  0  0  0
   10.5772    6.1735    0.0000 O   0  0  0  0  0  0  0  0  0  0  0  0
   10.0341    1.0058    0.0000 O   0  0  0  0  0  0  0  0  0  0  0  0
   11.7975    3.4328    0.0000 O   0  0  0  0  0  0  0  0  0  0  0  0
  1 15  1  0  0  0  0
  1 19  1  0  0  0  0
  2 13  1  0  0  0  0
  2 19  1  0  0  0  0
  3 17  2  0  0  0  0
  5  6  1  0  0  0  0
  5  7  1  0  0  0  0
  5 23  1  6  0  0  0
  6  8  1  0  0  0  0
  6 21  1  1  0  0  0
  7  9  1  0  0  0  0
  7 25  1  1  0  0  0
  8 10  1  0  0  0  0
  8 11  1  0  0  0  0
  8 16  1  6  0  0  0
  9 10  1  0  0  0  0
  9 24  1  1  0  0  0
 10  4  1  1  0  0  0
 10 22  1  0  0  0  0
 11 12  2  0  0  0  0
 11 14  1  0  0  0  0
 12 13  1  0  0  0  0
 13 15  2  0  0  0  0
 14 18  2  0  0  0  0
 14 17  1  0  0  0  0
 15 18  1  0  0  0  0
 17 22  1  0  0  0  0
 18 20  1  0  0  0  0
M  END
