215276
 OpenBabel03021519512D

 15 15  0  0  0  0  0  0  0  0999 V2000
    2.0490   -3.0000    0.0000 C   0  0  0  0  0  0  0  0  0  0  0  0
    3.3481   -3.7500    0.0000 C   0  0  0  0  0  0  0  0  0  0  0  0
    0.7500   -3.7500    0.0000 C   0  0  0  0  0  0  0  0  0  0  0  0
    0.7500   -5.2500    0.0000 C   0  0  0  0  0  0  0  0  0  0  0  0
    3.3481   -5.2500    0.0000 C   0  0  0  0  0  0  0  0  0  0  0  0
    2.0491   -6.0000    0.0000 C   0  0  0  0  0  0  0  0  0  0  0  0
    2.0490   -1.5000    0.0000 C   0  0  0  0  0  0  0  0  0  0  0  0
    2.0491   -7.5000    0.0000 C   0  0  0  0  0  0  0  0  0  0  0  0
    4.6471   -3.0000    0.0000 C   0  0  0  0  0  0  0  0  0  0  0  0
    4.6471   -1.5000    0.0000 O   0  0  0  0  0  0  0  0  0  0  0  0
    5.9462   -3.7500    0.0000 C   0  0  0  0  0  0  0  0  0  0  0  0
    7.2452   -3.0000    0.0000 C   0  0  0  0  0  0  0  0  0  0  0  0
    7.2452   -1.5000    0.0000 C   0  0  0  0  0  0  0  0  0  0  0  0
    5.9462   -0.7500    0.0000 O   0  0  0  0  0  0  0  0  0  0  0  0
    8.5442   -0.7500    0.0000 O   0  0  0  0  0  0  0  0  0  0  0  0
  1  2  2  0  0  0  0
  1  3  1  0  0  0  0
  1  7  1  0  0  0  0
  2  5  1  0  0  0  0
  2  9  1  0  0  0  0
  3  4  2  0  0  0  0
  4  6  1  0  0  0  0
  5  6  2  0  0  0  0
  6  8  1  0  0  0  0
  9 10  2  0  0  0  0
  9 11  1  0  0  0  0
 11 12  1  0  0  0  0
 12 13  1  0  0  0  0
 13 14  2  0  0  0  0
 13 15  1  0  0  0  0
M  END
