109813
 OpenBabel03021519512D

 14 15  0  0  0  0  0  0  0  0999 V2000
   -4.4224   -2.2500    0.0000 N   0  0  0  0  0  0  0  0  0  0  0  0
   -7.0205   -2.2500    0.0000 C   0  0  0  0  0  0  0  0  0  0  0  0
   -5.7215   -3.0000    0.0000 C   0  0  0  0  0  0  0  0  0  0  0  0
   -8.3195   -3.0000    0.0000 C   0  0  0  0  0  0  0  0  0  0  0  0
   -5.7215   -4.5000    0.0000 C   0  0  0  0  0  0  0  0  0  0  0  0
   -8.3195   -4.5000    0.0000 C   0  0  0  0  0  0  0  0  0  0  0  0
   -4.4224   -5.2500    0.0000 C   0  0  0  0  0  0  0  0  0  0  0  0
   -3.1234   -3.0000    0.0000 C   0  0  0  0  0  0  0  0  0  0  0  0
   -3.1234   -4.5000    0.0000 C   0  0  0  0  0  0  0  0  0  0  0  0
   -7.0205   -5.2500    0.0000 C   0  0  0  0  0  0  0  0  0  0  0  0
   -7.0205   -0.7500    0.0000 C   0  0  0  0  0  0  0  0  0  0  0  0
   -7.0205   -6.7500    0.0000 C   0  0  0  0  0  0  0  0  0  0  0  0
   -4.4224   -6.7500    0.0000 O   0  0  0  0  0  0  0  0  0  0  0  0
   -1.8243   -2.2500    0.0000 C   0  0  0  0  0  0  0  0  0  0  0  0
  1  8  2  0  0  0  0
  1  3  1  0  0  0  0
  2  4  2  0  0  0  0
  2  3  1  0  0  0  0
  2 11  1  0  0  0  0
  3  5  2  0  0  0  0
  4  6  1  0  0  0  0
  5  7  1  0  0  0  0
  5 10  1  0  0  0  0
  6 10  2  0  0  0  0
  7  9  2  0  0  0  0
  7 13  1  0  0  0  0
  8  9  1  0  0  0  0
  8 14  1  0  0  0  0
 10 12  1  0  0  0  0
M  END
