80997
 OpenBabel03021519512D

 38 43  0  0  1  0  0  0  0  0999 V2000
  -12.9593   -0.1909    0.0000 N   0  0  0  0  0  0  0  0  0  0  0  0
  -12.9593   -1.6909    0.0000 N   0  0  0  0  0  0  0  0  0  0  0  0
   -7.9390   -3.8383    0.0000 H   0  0  0  0  0  0  0  0  0  0  0  0
   -5.5656   -2.7816    0.0000 H   0  0  0  0  0  0  0  0  0  0  0  0
   -5.7054   -5.4509    0.0000 H   0  0  0  0  0  0  0  0  0  0  0  0
   -2.6472   -3.4019    0.0000 C   0  0  2  0  0  0  0  0  0  0  0  0
   -4.0738   -2.9384    0.0000 C   0  0  1  0  0  0  0  0  0  0  0  0
   -2.6472   -4.9019    0.0000 C   0  0  1  0  0  0  0  0  0  0  0  0
   -4.6839   -1.5680    0.0000 C   0  0  0  0  0  0  0  0  0  0  0  0
   -6.1757   -1.4113    0.0000 C   0  0  1  0  0  0  0  0  0  0  0  0
   -4.0737   -5.3654    0.0000 C   0  0  0  0  0  0  0  0  0  0  0  0
   -4.9554   -4.1519    0.0000 C   0  0  1  0  0  0  0  0  0  0  0  0
   -7.0573   -2.6248    0.0000 C   0  0  1  0  0  0  0  0  0  0  0  0
   -6.4472   -3.9951    0.0000 C   0  0  1  0  0  0  0  0  0  0  0  0
   -8.5491   -2.4680    0.0000 C   0  0  1  0  0  0  0  0  0  0  0  0
   -9.1592   -1.0977    0.0000 C   0  0  0  0  0  0  0  0  0  0  0  0
  -10.6510   -0.9409    0.0000 C   0  0  0  0  0  0  0  0  0  0  0  0
  -11.5327    0.2726    0.0000 C   0  0  0  0  0  0  0  0  0  0  0  0
   -7.3289   -5.2086    0.0000 C   0  0  0  0  0  0  0  0  0  0  0  0
   -9.4308   -3.6815    0.0000 C   0  0  0  0  0  0  0  0  0  0  0  0
  -11.5327   -2.1544    0.0000 C   0  0  0  0  0  0  0  0  0  0  0  0
   -8.8207   -5.0519    0.0000 C   0  0  0  0  0  0  0  0  0  0  0  0
  -10.9226   -3.5248    0.0000 C   0  0  0  0  0  0  0  0  0  0  0  0
  -14.1728   -2.5726    0.0000 C   0  0  0  0  0  0  0  0  0  0  0  0
  -14.0160   -4.0644    0.0000 C   0  0  0  0  0  0  0  0  0  0  0  0
  -15.2295   -4.9461    0.0000 C   0  0  0  0  0  0  0  0  0  0  0  0
  -16.5999   -4.3360    0.0000 C   0  0  0  0  0  0  0  0  0  0  0  0
  -16.7567   -2.8442    0.0000 C   0  0  0  0  0  0  0  0  0  0  0  0
  -15.5431   -1.9625    0.0000 C   0  0  0  0  0  0  0  0  0  0  0  0
   -6.7858   -0.0410    0.0000 O   0  0  0  0  0  0  0  0  0  0  0  0
   -7.6675   -1.2545    0.0000 C   0  0  0  0  0  0  0  0  0  0  0  0
   -9.7024   -6.2654    0.0000 C   0  0  0  0  0  0  0  0  0  0  0  0
   -3.0701   -1.8236    0.0000 C   0  0  0  0  0  0  0  0  0  0  0  0
   -1.8523   -2.1298    0.0000 C   0  0  0  0  0  0  0  0  0  0  0  0
   -2.5565   -0.8054    0.0000 O   0  0  0  0  0  0  0  0  0  0  0  0
   -0.3532   -2.1821    0.0000 C   0  0  0  0  0  0  0  0  0  0  0  0
   -1.1554   -3.5587    0.0000 O   0  0  0  0  0  0  0  0  0  0  0  0
   -1.4336   -5.7835    0.0000 C   0  0  0  0  0  0  0  0  0  0  0  0
  1 18  2  0  0  0  0
  1  2  1  0  0  0  0
  2 21  1  0  0  0  0
  2 24  1  0  0  0  0
  6  7  1  0  0  0  0
  6  8  1  0  0  0  0
  6 34  1  1  0  0  0
  6 37  1  0  0  0  0
  7  9  1  0  0  0  0
  7 12  1  0  0  0  0
  7 33  1  1  0  0  0
  8 11  1  0  0  0  0
  8 38  1  6  0  0  0
  9 10  1  0  0  0  0
 10 13  1  0  0  0  0
 10 30  1  1  0  0  0
 11 12  1  0  0  0  0
 12  5  1  6  0  0  0
 12 14  1  0  0  0  0
 13  3  1  6  0  0  0
 13 14  1  0  0  0  0
 13 15  1  0  0  0  0
 14  4  1  1  0  0  0
 14 19  1  0  0  0  0
 15 16  1  0  0  0  0
 15 20  1  0  0  0  0
 15 31  1  1  0  0  0
 16 17  1  0  0  0  0
 17 21  2  0  0  0  0
 17 18  1  0  0  0  0
 19 22  2  0  0  0  0
 20 23  2  0  0  0  0
 20 22  1  0  0  0  0
 21 23  1  0  0  0  0
 22 32  1  0  0  0  0
 24 25  2  0  0  0  0
 24 29  1  0  0  0  0
 25 26  1  0  0  0  0
 26 27  2  0  0  0  0
 27 28  1  0  0  0  0
 28 29  2  0  0  0  0
 34 35  2  0  0  0  0
 34 36  1  0  0  0  0
M  END
