343343
 OpenBabel03021519512D

 14 15  0  0  0  0  0  0  0  0999 V2000
   -3.3073   -0.0858    0.0000 C   0  0  0  0  0  0  0  0  0  0  0  0
   -4.1915   -2.5288    0.0000 Cl  0  0  0  0  0  0  0  0  0  0  0  0
   -2.1600    0.8804    0.0000 C   0  0  0  0  0  0  0  0  0  0  0  0
   -3.0442   -1.5626    0.0000 C   0  0  0  0  0  0  0  0  0  0  0  0
   -1.6337   -2.0730    0.0000 N   0  0  0  0  0  0  0  0  0  0  0  0
   -0.7495    0.3700    0.0000 C   0  0  0  0  0  0  0  0  0  0  0  0
   -0.4864   -1.1068    0.0000 C   0  0  0  0  0  0  0  0  0  0  0  0
    0.1346    2.8130    0.0000 O   0  0  0  0  0  0  0  0  0  0  0  0
    0.3978    1.3362    0.0000 C   0  0  0  0  0  0  0  0  0  0  0  0
    1.8082    0.8257    0.0000 C   0  0  0  0  0  0  0  0  0  0  0  0
    3.0503    1.6668    0.0000 C   0  0  0  0  0  0  0  0  0  0  0  0
    2.2243   -0.6154    0.0000 S   0  0  0  0  0  0  0  0  0  0  0  0
    3.7235   -0.6651    0.0000 C   0  0  0  0  0  0  0  0  0  0  0  0
    4.2340    0.7454    0.0000 C   0  0  0  0  0  0  0  0  0  0  0  0
  1  3  2  0  0  0  0
  1  4  1  0  0  0  0
  2  4  1  0  0  0  0
  3  6  1  0  0  0  0
  4  5  2  0  0  0  0
  5  7  1  0  0  0  0
  6  9  1  0  0  0  0
  6  7  2  0  0  0  0
  8  9  2  0  0  0  0
  9 10  1  0  0  0  0
 10 11  2  0  0  0  0
 10 12  1  0  0  0  0
 11 14  1  0  0  0  0
 12 13  1  0  0  0  0
 13 14  2  0  0  0  0
M  END
