62685
 OpenBabel03021519512D

 21 22  0  0  0  0  0  0  0  0999 V2000
   -8.3873   -5.7570    0.0000 Cl  0  0  0  0  0  0  0  0  0  0  0  0
   -3.1911   -8.7570    0.0000 Cl  0  0  0  0  0  0  0  0  0  0  0  0
   -3.1911   -5.7570    0.0000 N   0  0  0  0  0  0  0  0  0  0  0  0
   -1.8208   -6.3671    0.0000 N   0  0  0  0  0  0  0  0  0  0  0  0
   -4.1491   -3.2615    0.0000 O   0  0  0  0  0  0  0  0  0  0  0  0
   -3.0343   -4.2652    0.0000 C   0  0  0  0  0  0  0  0  0  0  0  0
   -1.5671   -3.9533    0.0000 C   0  0  0  0  0  0  0  0  0  0  0  0
   -0.8171   -5.2524    0.0000 C   0  0  0  0  0  0  0  0  0  0  0  0
   -5.7892   -5.7570    0.0000 C   0  0  0  0  0  0  0  0  0  0  0  0
   -7.0883   -6.5070    0.0000 C   0  0  0  0  0  0  0  0  0  0  0  0
   -4.4902   -6.5070    0.0000 C   0  0  0  0  0  0  0  0  0  0  0  0
   -4.4902   -8.0070    0.0000 C   0  0  0  0  0  0  0  0  0  0  0  0
   -7.0882   -8.0070    0.0000 C   0  0  0  0  0  0  0  0  0  0  0  0
   -5.7892   -8.7570    0.0000 C   0  0  0  0  0  0  0  0  0  0  0  0
   -8.3873   -8.7570    0.0000 S   0  0  0  0  0  0  0  0  0  0  0  0
   -9.1373   -7.4580    0.0000 O   0  0  0  0  0  0  0  0  0  0  0  0
   -9.6863   -9.5070    0.0000 O   0  0  0  0  0  0  0  0  0  0  0  0
   -7.6373  -10.0560    0.0000 O   0  0  0  0  0  0  0  0  0  0  0  0
    0.6747   -5.4092    0.0000 C   0  0  0  0  0  0  0  0  0  0  0  0
    1.5563   -4.1956    0.0000 O   0  0  0  0  0  0  0  0  0  0  0  0
    1.2848   -6.7795    0.0000 O   0  0  0  0  0  0  0  0  0  0  0  0
  1 10  1  0  0  0  0
  2 12  1  0  0  0  0
  3  4  1  0  0  0  0
  3  6  1  0  0  0  0
  3 11  1  0  0  0  0
  4  8  2  0  0  0  0
  5  6  2  0  0  0  0
  6  7  1  0  0  0  0
  7  8  1  0  0  0  0
  8 19  1  0  0  0  0
  9 10  2  0  0  0  0
  9 11  1  0  0  0  0
 10 13  1  0  0  0  0
 11 12  2  0  0  0  0
 12 14  1  0  0  0  0
 13 14  2  0  0  0  0
 13 15  1  0  0  0  0
 15 16  2  0  0  0  0
 15 17  2  0  0  0  0
 15 18  1  0  0  0  0
 19 20  2  0  0  0  0
 19 21  1  0  0  0  0
M  END
