99660
 OpenBabel03021519512D

 22 24  0  0  1  0  0  0  0  0999 V2000
   -9.7300   -7.9837    0.0000 N   0  0  0  0  0  0  0  0  0  0  0  0
   -9.7300   -9.4837    0.0000 C   0  0  0  0  0  0  0  0  0  0  0  0
   -8.4309  -10.2337    0.0000 N   0  0  0  0  0  0  0  0  0  0  0  0
   -7.1319   -9.4837    0.0000 C   0  0  0  0  0  0  0  0  0  0  0  0
   -7.1319   -7.9837    0.0000 C   0  0  0  0  0  0  0  0  0  0  0  0
   -8.4309   -7.2337    0.0000 C   0  0  0  0  0  0  0  0  0  0  0  0
   -5.7053   -9.9472    0.0000 N   0  0  0  0  0  0  0  0  0  0  0  0
   -4.8236   -8.7337    0.0000 C   0  0  0  0  0  0  0  0  0  0  0  0
   -8.4309   -5.7337    0.0000 S   0  0  0  0  0  0  0  0  0  0  0  0
  -11.0290  -10.2337    0.0000 O   0  0  0  0  0  0  0  0  0  0  0  0
   -3.3236   -8.7337    0.0000 S   0  0  0  0  0  0  0  0  0  0  0  0
   -2.5736   -7.4346    0.0000 C   0  0  3  0  0  0  0  0  0  0  0  0
   -1.0736   -7.4346    0.0000 C   0  0  0  0  0  0  0  0  0  0  0  0
   -0.3236   -6.1356    0.0000 N   0  0  0  0  0  0  0  0  0  0  0  0
   -1.0736   -4.8365    0.0000 C   0  0  0  0  0  0  0  0  0  0  0  0
   -2.5736   -4.8365    0.0000 C   0  0  0  0  0  0  0  0  0  0  0  0
   -3.3236   -6.1356    0.0000 C   0  0  0  0  0  0  0  0  0  0  0  0
   -5.7053   -7.5201    0.0000 N   0  0  0  0  0  0  0  0  0  0  0  0
   -8.4309  -11.7337    0.0000 C   0  0  0  0  0  0  0  0  0  0  0  0
  -11.0290   -7.2337    0.0000 C   0  0  0  0  0  0  0  0  0  0  0  0
    1.1764   -6.1356    0.0000 C   0  0  0  0  0  0  0  0  0  0  0  0
    1.9264   -4.8365    0.0000 C   0  0  0  0  0  0  0  0  0  0  0  0
  1  2  1  0  0  0  0
  1  6  1  0  0  0  0
  1 20  1  0  0  0  0
  2  3  1  0  0  0  0
  2 10  2  0  0  0  0
  3  4  1  0  0  0  0
  3 19  1  0  0  0  0
  4  5  2  0  0  0  0
  4  7  1  0  0  0  0
  5  6  1  0  0  0  0
  5 18  1  0  0  0  0
  6  9  2  0  0  0  0
  7  8  2  0  0  0  0
  8 11  1  0  0  0  0
  8 18  1  0  0  0  0
 11 12  1  0  0  0  0
 12 13  1  0  0  0  0
 12 17  1  0  0  0  0
 13 14  1  0  0  0  0
 14 15  1  0  0  0  0
 14 21  1  0  0  0  0
 15 16  1  0  0  0  0
 16 17  1  0  0  0  0
 21 22  1  0  0  0  0
M  END
