310354
 OpenBabel03021519512D

 26 28  0  0  0  0  0  0  0  0999 V2000
   -1.7524    7.3543    0.0000 C   0  0  0  0  0  0  0  0  0  0  0  0
   -1.7524    5.8543    0.0000 C   0  0  0  0  0  0  0  0  0  0  0  0
   -0.4533    8.1043    0.0000 C   0  0  0  0  0  0  0  0  0  0  0  0
   -0.4533    5.1043    0.0000 C   0  0  0  0  0  0  0  0  0  0  0  0
    0.8457    7.3543    0.0000 C   0  0  0  0  0  0  0  0  0  0  0  0
    0.8457    5.8543    0.0000 C   0  0  0  0  0  0  0  0  0  0  0  0
    2.1447    8.1043    0.0000 C   0  0  0  0  0  0  0  0  0  0  0  0
    2.1447    5.1043    0.0000 C   0  0  0  0  0  0  0  0  0  0  0  0
    3.4438    7.3543    0.0000 C   0  0  0  0  0  0  0  0  0  0  0  0
    3.4438    5.8543    0.0000 C   0  0  0  0  0  0  0  0  0  0  0  0
    4.7428    8.1043    0.0000 C   0  0  0  0  0  0  0  0  0  0  0  0
    4.8996    9.5961    0.0000 C   0  0  0  0  0  0  0  0  0  0  0  0
    6.3668    9.9080    0.0000 S   0  0  0  0  0  0  0  0  0  0  0  0
    6.1131    7.4942    0.0000 N   0  0  0  0  0  0  0  0  0  0  0  0
    7.1168    8.6089    0.0000 C   0  0  0  0  0  0  0  0  0  0  0  0
    9.4903    9.6657    0.0000 C   0  0  0  0  0  0  0  0  0  0  0  0
    8.8802   11.0360    0.0000 N   0  0  0  0  0  0  0  0  0  0  0  0
   -1.4175    9.2534    0.0000 C   0  0  0  0  0  0  0  0  0  0  0  0
   -1.4175    3.9552    0.0000 C   0  0  0  0  0  0  0  0  0  0  0  0
    0.5108    9.2534    0.0000 C   0  0  0  0  0  0  0  0  0  0  0  0
    0.5108    3.9552    0.0000 C   0  0  0  0  0  0  0  0  0  0  0  0
    4.7428    5.1043    0.0000 C   0  0  0  0  0  0  0  0  0  0  0  0
    4.7428    3.6043    0.0000 C   0  0  0  0  0  0  0  0  0  0  0  0
    8.6086    8.4521    0.0000 C   0  0  0  0  0  0  0  0  0  0  0  0
   10.9821    9.5089    0.0000 N   0  0  0  0  0  0  0  0  0  0  0  0
    9.7618   12.2495    0.0000 O   0  0  0  0  0  0  0  0  0  0  0  0
  1  3  1  0  0  0  0
  1  2  1  0  0  0  0
  2  4  1  0  0  0  0
  3  5  1  0  0  0  0
  3 18  1  0  0  0  0
  3 20  1  0  0  0  0
  4  6  1  0  0  0  0
  4 19  1  0  0  0  0
  4 21  1  0  0  0  0
  5  7  1  0  0  0  0
  5  6  2  0  0  0  0
  6  8  1  0  0  0  0
  7  9  2  0  0  0  0
  8 10  2  0  0  0  0
  9 11  1  0  0  0  0
  9 10  1  0  0  0  0
 10 22  1  0  0  0  0
 11 12  2  0  0  0  0
 11 14  1  0  0  0  0
 12 13  1  0  0  0  0
 13 15  1  0  0  0  0
 14 15  2  0  0  0  0
 15 24  1  0  0  0  0
 16 17  2  0  0  0  0
 16 24  1  0  0  0  0
 16 25  1  0  0  0  0
 17 26  1  0  0  0  0
 22 23  1  0  0  0  0
M  END
