296934
 OpenBabel03021519512D

 21 24  0  0  1  0  0  0  0  0999 V2000
    4.4731    0.8505    0.0000 O   0  0  0  0  0  0  0  0  0  0  0  0
    3.7231   -0.4486    0.0000 C   0  0  3  0  0  0  0  0  0  0  0  0
    2.9731    0.8505    0.0000 C   0  0  0  0  0  0  0  0  0  0  0  0
    3.7231   -4.9486    0.0000 O   0  0  0  0  0  0  0  0  0  0  0  0
    5.0221   -2.6986    0.0000 N   0  0  0  0  0  0  0  0  0  0  0  0
    5.0221   -4.1986    0.0000 C   0  0  0  0  0  0  0  0  0  0  0  0
    6.3211   -0.4486    0.0000 O   0  0  0  0  0  0  0  0  0  0  0  0
    6.3211   -1.9486    0.0000 C   0  0  0  0  0  0  0  0  0  0  0  0
    6.3212   -4.9486    0.0000 N   0  0  0  0  0  0  0  0  0  0  0  0
    7.6202   -4.1986    0.0000 C   0  0  0  0  0  0  0  0  0  0  0  0
    7.6202   -2.6986    0.0000 N   0  0  0  0  0  0  0  0  0  0  0  0
    7.6202   -7.1986    0.0000 C   0  0  3  0  0  0  0  0  0  0  0  0
    8.9192   -4.9486    0.0000 O   0  0  0  0  0  0  0  0  0  0  0  0
    9.1202   -7.1986    0.0000 O   0  0  0  0  0  0  0  0  0  0  0  0
    8.3702   -8.4976    0.0000 C   0  0  0  0  0  0  0  0  0  0  0  0
    8.9192   -0.4486    0.0000 C   0  0  3  0  0  0  0  0  0  0  0  0
    9.6692    0.8505    0.0000 C   0  0  0  0  0  0  0  0  0  0  0  0
    8.1692    0.8505    0.0000 O   0  0  0  0  0  0  0  0  0  0  0  0
    3.7231   -1.9486    0.0000 C   0  0  0  0  0  0  0  0  0  0  0  0
    6.3212   -6.4486    0.0000 C   0  0  0  0  0  0  0  0  0  0  0  0
    8.9192   -1.9486    0.0000 C   0  0  0  0  0  0  0  0  0  0  0  0
  1  2  1  0  0  0  0
  1  3  1  0  0  0  0
  2  3  1  0  0  0  0
  2 19  1  0  0  0  0
  4  6  2  0  0  0  0
  5  8  1  0  0  0  0
  5  6  1  0  0  0  0
  5 19  1  0  0  0  0
  6  9  1  0  0  0  0
  7  8  2  0  0  0  0
  8 11  1  0  0  0  0
  9 10  1  0  0  0  0
  9 20  1  0  0  0  0
 10 11  1  0  0  0  0
 10 13  2  0  0  0  0
 11 21  1  0  0  0  0
 12 14  1  0  0  0  0
 12 15  1  0  0  0  0
 12 20  1  0  0  0  0
 14 15  1  0  0  0  0
 16 18  1  0  0  0  0
 16 17  1  0  0  0  0
 16 21  1  0  0  0  0
 17 18  1  0  0  0  0
M  END
