164991
 OpenBabel03021519512D

 23 25  0  0  1  0  0  0  0  0999 V2000
   -9.8120   -2.8977    0.0000 S   0  0  0  0  0  0  0  0  0  0  0  0
   -4.9882   -0.7500    0.0000 O   0  0  0  0  0  0  0  0  0  0  0  0
   -5.9462   -3.2455    0.0000 N   0  0  0  0  0  0  0  0  0  0  0  0
   -7.6283   -5.3228    0.0000 O   0  0  0  0  0  0  0  0  0  0  0  0
   -0.7500   -3.2455    0.0000 Cl  0  0  0  0  0  0  0  0  0  0  0  0
   -0.7500   -6.2455    0.0000 Cl  0  0  0  0  0  0  0  0  0  0  0  0
   -6.1029   -1.7537    0.0000 C   0  0  0  0  0  0  0  0  0  0  0  0
   -7.5702   -1.4418    0.0000 C   0  0  0  0  0  0  0  0  0  0  0  0
   -8.3202   -2.7409    0.0000 C   0  0  3  0  0  0  0  0  0  0  0  0
   -7.3165   -3.8556    0.0000 C   0  0  0  0  0  0  0  0  0  0  0  0
   -3.3481   -3.2455    0.0000 C   0  0  0  0  0  0  0  0  0  0  0  0
   -4.6471   -3.9955    0.0000 C   0  0  0  0  0  0  0  0  0  0  0  0
   -2.0490   -3.9955    0.0000 C   0  0  0  0  0  0  0  0  0  0  0  0
   -2.0490   -5.4955    0.0000 C   0  0  0  0  0  0  0  0  0  0  0  0
   -4.6471   -5.4955    0.0000 C   0  0  0  0  0  0  0  0  0  0  0  0
   -3.3481   -6.2455    0.0000 C   0  0  0  0  0  0  0  0  0  0  0  0
  -10.6936   -1.6841    0.0000 C   0  0  0  0  0  0  0  0  0  0  0  0
  -12.1854   -1.8409    0.0000 C   0  0  0  0  0  0  0  0  0  0  0  0
  -10.0835   -0.3138    0.0000 C   0  0  0  0  0  0  0  0  0  0  0  0
  -10.9652    0.8997    0.0000 C   0  0  0  0  0  0  0  0  0  0  0  0
  -13.0671   -0.6274    0.0000 C   0  0  0  0  0  0  0  0  0  0  0  0
  -12.4570    0.7429    0.0000 C   0  0  0  0  0  0  0  0  0  0  0  0
   -8.5917   -0.1570    0.0000 N   0  0  0  0  0  0  0  0  0  0  0  0
  1  9  1  0  0  0  0
  1 17  1  0  0  0  0
  2  7  2  0  0  0  0
  3  7  1  0  0  0  0
  3 10  1  0  0  0  0
  3 12  1  0  0  0  0
  4 10  2  0  0  0  0
  5 13  1  0  0  0  0
  6 14  1  0  0  0  0
  7  8  1  0  0  0  0
  8  9  1  0  0  0  0
  9 10  1  0  0  0  0
 11 12  2  0  0  0  0
 11 13  1  0  0  0  0
 12 15  1  0  0  0  0
 13 14  2  0  0  0  0
 14 16  1  0  0  0  0
 15 16  2  0  0  0  0
 17 19  2  0  0  0  0
 17 18  1  0  0  0  0
 18 21  2  0  0  0  0
 19 20  1  0  0  0  0
 19 23  1  0  0  0  0
 20 22  2  0  0  0  0
 21 22  1  0  0  0  0
M  END
