479
 OpenBabel03021519512D

 22 24  0  0  1  0  0  0  0  0999 V2000
   -3.6207    2.9564    0.0000 O   0  0  0  0  0  0  0  0  0  0  0  0
   -0.5170    1.9480    0.0000 H   0  0  0  0  0  0  0  0  0  0  0  0
   -0.9806    3.3746    0.0000 N   0  0  0  0  0  0  0  0  0  0  0  0
   -2.4072    5.3381    0.0000 N   0  0  0  0  0  0  0  0  0  0  0  0
   -3.6207    6.2198    0.0000 H   0  0  0  0  0  0  0  0  0  0  0  0
    1.4011    4.5881    0.0000 O   0  0  0  0  0  0  0  0  0  0  0  0
    1.6175    8.8016    0.0000 N   0  0  0  0  0  0  0  0  0  0  0  0
   -5.1298    9.2706    0.0000 C   0  0  0  0  0  0  0  0  0  0  0  0
   -5.0252    7.7743    0.0000 C   0  0  0  0  0  0  0  0  0  0  0  0
   -3.8862   10.1094    0.0000 C   0  0  0  0  0  0  0  0  0  0  0  0
   -3.6770    7.1167    0.0000 C   0  0  0  0  0  0  0  0  0  0  0  0
   -2.5380    9.4519    0.0000 C   0  0  0  0  0  0  0  0  0  0  0  0
   -2.4334    7.9555    0.0000 C   0  0  0  0  0  0  0  0  0  0  0  0
    2.9165    8.0516    0.0000 C   0  0  0  0  0  0  0  0  0  0  0  0
    2.9165    6.5516    0.0000 C   0  0  0  0  0  0  0  0  0  0  0  0
    1.6175    5.8016    0.0000 C   0  0  0  0  0  0  0  0  0  0  0  0
    0.3185    6.5516    0.0000 C   0  0  0  0  0  0  0  0  0  0  0  0
    0.3185    8.0516    0.0000 C   0  0  0  0  0  0  0  0  0  0  0  0
   -0.9806    5.8016    0.0000 C   0  0  3  0  0  0  0  0  0  0  0  0
   -0.0989    4.5881    0.0000 C   0  0  0  0  0  0  0  0  0  0  0  0
   -2.4072    3.8381    0.0000 C   0  0  0  0  0  0  0  0  0  0  0  0
   -1.0852    7.2980    0.0000 C   0  0  0  0  0  0  0  0  0  0  0  0
  1 21  2  0  0  0  0
  2  3  1  0  0  0  0
  3 20  1  0  0  0  0
  3 21  1  0  0  0  0
  4 19  1  0  0  0  0
  4 21  1  0  0  0  0
  4  5  1  0  0  0  0
  6 20  2  0  0  0  0
  7 18  2  0  0  0  0
  7 14  1  0  0  0  0
  8  9  2  0  0  0  0
  8 10  1  0  0  0  0
  9 11  1  0  0  0  0
 10 12  2  0  0  0  0
 11 13  2  0  0  0  0
 12 13  1  0  0  0  0
 13 22  1  0  0  0  0
 14 15  2  0  0  0  0
 15 16  1  0  0  0  0
 16 17  2  0  0  0  0
 17 18  1  0  0  0  0
 17 19  1  0  0  0  0
 19 20  1  0  0  0  0
 19 22  1  0  0  0  0
M  END
