164678
 OpenBabel03021519512D

 16 17  0  0  0  0  0  0  0  0999 V2000
   -3.9978    0.5845    0.0000 O   0  0  0  0  0  0  0  0  0  0  0  0
   -1.6439    2.1039    0.0000 H   0  0  0  0  0  0  0  0  0  0  0  0
   -1.4579    0.6154    0.0000 N   0  0  0  0  0  0  0  0  0  0  0  0
    0.4765   -1.2724    0.0000 N   0  0  0  0  0  0  0  0  0  0  0  0
    1.1462    1.0604    0.0000 C   0  0  0  0  0  0  0  0  0  0  0  0
    2.3895    0.2212    0.0000 C   0  0  0  0  0  0  0  0  0  0  0  0
   -0.0361    0.1373    0.0000 C   0  0  0  0  0  0  0  0  0  0  0  0
    1.9756   -1.2205    0.0000 C   0  0  0  0  0  0  0  0  0  0  0  0
   -2.7182   -0.1980    0.0000 C   0  0  0  0  0  0  0  0  0  0  0  0
   -2.8680   -1.6905    0.0000 C   0  0  0  0  0  0  0  0  0  0  0  0
   -1.7945   -2.7382    0.0000 C   0  0  0  0  0  0  0  0  0  0  0  0
   -0.3061   -2.5521    0.0000 C   0  0  0  0  0  0  0  0  0  0  0  0
    1.0943    2.5595    0.0000 C   0  0  0  0  0  0  0  0  0  0  0  0
    1.0424    4.0586    0.0000 N   0  0  0  0  0  0  0  0  0  0  0  0
    2.8987   -2.4028    0.0000 C   0  0  0  0  0  0  0  0  0  0  0  0
    3.7992    0.7338    0.0000 C   0  0  0  0  0  0  0  0  0  0  0  0
  1  9  2  0  0  0  0
  2  3  1  0  0  0  0
  3  7  1  0  0  0  0
  3  9  1  0  0  0  0
  4  7  1  0  0  0  0
  4  8  1  0  0  0  0
  4 12  1  0  0  0  0
  5  7  2  0  0  0  0
  5  6  1  0  0  0  0
  5 13  1  0  0  0  0
  6  8  2  0  0  0  0
  6 16  1  0  0  0  0
  8 15  1  0  0  0  0
  9 10  1  0  0  0  0
 10 11  1  0  0  0  0
 11 12  1  0  0  0  0
 13 14  3  0  0  0  0
M  END
