9032
 OpenBabel03021519512D

 28 31  0  0  0  0  0  0  0  0999 V2000
    1.3787   -5.6370    0.0000 N   0  0  0  0  0  0  0  0  0  0  0  0
   -0.3750   -8.6745    0.0000 N   0  0  0  0  0  0  0  0  0  0  0  0
    1.3787   -1.1370    0.0000 C   0  0  0  0  0  0  0  0  0  0  0  0
    2.6777   -1.8870    0.0000 C   0  0  0  0  0  0  0  0  0  0  0  0
    0.0797   -1.8870    0.0000 C   0  0  0  0  0  0  0  0  0  0  0  0
    2.6777   -3.3870    0.0000 C   0  0  0  0  0  0  0  0  0  0  0  0
    0.0797   -3.3870    0.0000 C   0  0  0  0  0  0  0  0  0  0  0  0
    1.3787   -4.1370    0.0000 C   0  0  0  0  0  0  0  0  0  0  0  0
    3.9768   -5.6370    0.0000 C   0  0  0  0  0  0  0  0  0  0  0  0
    5.2758   -6.3870    0.0000 C   0  0  0  0  0  0  0  0  0  0  0  0
    2.6778   -6.3870    0.0000 C   0  0  0  0  0  0  0  0  0  0  0  0
    5.2758   -7.8870    0.0000 C   0  0  0  0  0  0  0  0  0  0  0  0
    2.6778   -7.8870    0.0000 C   0  0  0  0  0  0  0  0  0  0  0  0
    3.9768   -8.6370    0.0000 C   0  0  0  0  0  0  0  0  0  0  0  0
   -2.9731   -8.6745    0.0000 C   0  0  0  0  0  0  0  0  0  0  0  0
   -1.6740   -9.4245    0.0000 C   0  0  0  0  0  0  0  0  0  0  0  0
   -4.2721   -9.4245    0.0000 C   0  0  0  0  0  0  0  0  0  0  0  0
   -1.6740  -10.9245    0.0000 C   0  0  0  0  0  0  0  0  0  0  0  0
   -4.2721  -10.9245    0.0000 C   0  0  0  0  0  0  0  0  0  0  0  0
   -2.9730  -11.6745    0.0000 C   0  0  0  0  0  0  0  0  0  0  0  0
   -0.3750   -6.6495    0.0000 C   0  0  0  0  0  0  0  0  0  0  0  0
   -1.6740   -5.8995    0.0000 O   0  0  0  0  0  0  0  0  0  0  0  0
    0.9241   -9.4245    0.0000 C   0  0  0  0  0  0  0  0  0  0  0  0
    0.9241  -10.9245    0.0000 C   0  0  0  0  0  0  0  0  0  0  0  0
    2.2231  -11.6745    0.0000 C   0  0  0  0  0  0  0  0  0  0  0  0
    3.5221  -10.9245    0.0000 C   0  0  0  0  0  0  0  0  0  0  0  0
    3.5221   -9.4245    0.0000 C   0  0  0  0  0  0  0  0  0  0  0  0
    2.2231   -8.6745    0.0000 C   0  0  0  0  0  0  0  0  0  0  0  0
  1  8  1  0  0  0  0
  1 11  1  0  0  0  0
  1 21  1  0  0  0  0
  2 16  1  0  0  0  0
  2 21  1  0  0  0  0
  2 23  1  0  0  0  0
  3  4  2  0  0  0  0
  3  5  1  0  0  0  0
  4  6  1  0  0  0  0
  5  7  2  0  0  0  0
  6  8  2  0  0  0  0
  7  8  1  0  0  0  0
  9 10  2  0  0  0  0
  9 11  1  0  0  0  0
 10 12  1  0  0  0  0
 11 13  2  0  0  0  0
 12 14  2  0  0  0  0
 13 14  1  0  0  0  0
 15 17  2  0  0  0  0
 15 16  1  0  0  0  0
 16 18  2  0  0  0  0
 17 19  1  0  0  0  0
 18 20  1  0  0  0  0
 19 20  2  0  0  0  0
 21 22  2  0  0  0  0
 23 24  2  0  0  0  0
 23 28  1  0  0  0  0
 24 25  1  0  0  0  0
 25 26  2  0  0  0  0
 26 27  1  0  0  0  0
 27 28  2  0  0  0  0
M  END
