30260
 OpenBabel03021519512D

 23 25  0  0  0  0  0  0  0  0999 V2000
  -12.1976    5.0782    0.0000 C   0  0  0  0  0  0  0  0  0  0  0  0
  -12.9476    3.7791    0.0000 C   0  0  0  0  0  0  0  0  0  0  0  0
  -12.1976    2.4801    0.0000 C   0  0  0  0  0  0  0  0  0  0  0  0
  -10.6976    2.4801    0.0000 C   0  0  0  0  0  0  0  0  0  0  0  0
   -9.9476    3.7791    0.0000 C   0  0  0  0  0  0  0  0  0  0  0  0
  -10.6976    5.0782    0.0000 C   0  0  0  0  0  0  0  0  0  0  0  0
   -9.6939    1.3654    0.0000 N   0  0  0  0  0  0  0  0  0  0  0  0
   -8.3236    1.9755    0.0000 C   0  0  0  0  0  0  0  0  0  0  0  0
   -8.4803    3.4673    0.0000 S   0  0  0  0  0  0  0  0  0  0  0  0
   -7.0245   -0.2745    0.0000 S   0  0  0  0  0  0  0  0  0  0  0  0
   -5.5245   -0.2745    0.0000 C   0  0  0  0  0  0  0  0  0  0  0  0
   -4.7745   -1.5736    0.0000 C   0  0  0  0  0  0  0  0  0  0  0  0
   -3.2745   -1.5736    0.0000 C   0  0  0  0  0  0  0  0  0  0  0  0
   -2.5245   -0.2745    0.0000 C   0  0  0  0  0  0  0  0  0  0  0  0
   -3.2745    1.0245    0.0000 C   0  0  0  0  0  0  0  0  0  0  0  0
   -4.7745    1.0245    0.0000 C   0  0  0  0  0  0  0  0  0  0  0  0
   -8.5245   -0.2745    0.0000 O   0  0  0  0  0  0  0  0  0  0  0  0
   -7.0245   -1.7745    0.0000 O   0  0  0  0  0  0  0  0  0  0  0  0
  -14.4476    3.7791    0.0000 O   0  0  0  0  0  0  0  0  0  0  0  0
  -15.1976    5.0782    0.0000 C   0  0  0  0  0  0  0  0  0  0  0  0
  -16.6976    5.0782    0.0000 C   0  0  0  0  0  0  0  0  0  0  0  0
   -7.0245    1.2255    0.0000 N   0  0  0  0  0  0  0  0  0  0  0  0
   -1.0245   -0.2745    0.0000 N   0  0  0  0  0  0  0  0  0  0  0  0
  1  2  2  0  0  0  0
  1  6  1  0  0  0  0
  2  3  1  0  0  0  0
  2 19  1  0  0  0  0
  3  4  2  0  0  0  0
  4  5  1  0  0  0  0
  4  7  1  0  0  0  0
  5  6  2  0  0  0  0
  5  9  1  0  0  0  0
  7  8  2  0  0  0  0
  8  9  1  0  0  0  0
  8 22  1  0  0  0  0
 10 11  1  0  0  0  0
 10 17  2  0  0  0  0
 10 18  2  0  0  0  0
 10 22  1  0  0  0  0
 11 12  2  0  0  0  0
 11 16  1  0  0  0  0
 12 13  1  0  0  0  0
 13 14  2  0  0  0  0
 14 15  1  0  0  0  0
 14 23  1  0  0  0  0
 15 16  2  0  0  0  0
 19 20  1  0  0  0  0
 20 21  1  0  0  0  0
M  END
