375997
 OpenBabel03021519512D

 18 20  0  0  0  0  0  0  0  0999 V2000
    1.0217    3.4864    0.0000 C   0  0  0  0  0  0  0  0  0  0  0  0
    1.4852    2.0598    0.0000 C   0  0  0  0  0  0  0  0  0  0  0  0
    2.0254    4.6011    0.0000 C   0  0  0  0  0  0  0  0  0  0  0  0
    2.9525    1.7479    0.0000 N   0  0  0  0  0  0  0  0  0  0  0  0
    3.4926    4.2892    0.0000 N   0  0  0  0  0  0  0  0  0  0  0  0
    3.9562    2.8626    0.0000 C   0  0  0  0  0  0  0  0  0  0  0  0
    5.4562    2.8626    0.0000 N   0  0  0  0  0  0  0  0  0  0  0  0
    4.7062    5.1709    0.0000 C   0  0  0  0  0  0  0  0  0  0  0  0
    5.9197    4.2892    0.0000 N   0  0  0  0  0  0  0  0  0  0  0  0
   -0.4455    3.7982    0.0000 O   0  0  0  0  0  0  0  0  0  0  0  0
    1.5619    6.0277    0.0000 C   0  0  0  0  0  0  0  0  0  0  0  0
    4.7062    6.6709    0.0000 N   0  0  0  0  0  0  0  0  0  0  0  0
    7.3463    4.7527    0.0000 C   0  0  0  0  0  0  0  0  0  0  0  0
    7.6581    6.2199    0.0000 C   0  0  0  0  0  0  0  0  0  0  0  0
    9.0847    6.6835    0.0000 C   0  0  0  0  0  0  0  0  0  0  0  0
   10.1994    5.6798    0.0000 C   0  0  0  0  0  0  0  0  0  0  0  0
    9.8876    4.2126    0.0000 C   0  0  0  0  0  0  0  0  0  0  0  0
    8.4610    3.7490    0.0000 C   0  0  0  0  0  0  0  0  0  0  0  0
  1  3  2  0  0  0  0
  1  2  1  0  0  0  0
  1 10  1  0  0  0  0
  2  4  2  0  0  0  0
  3  5  1  0  0  0  0
  3 11  1  0  0  0  0
  4  6  1  0  0  0  0
  5  8  1  0  0  0  0
  5  6  1  0  0  0  0
  6  7  2  0  0  0  0
  7  9  1  0  0  0  0
  8  9  1  0  0  0  0
  8 12  2  0  0  0  0
  9 13  1  0  0  0  0
 13 14  2  0  0  0  0
 13 18  1  0  0  0  0
 14 15  1  0  0  0  0
 15 16  2  0  0  0  0
 16 17  1  0  0  0  0
 17 18  2  0  0  0  0
M  END
