26980
 OpenBabel03021519512D

 26 29  0  0  1  0  0  0  0  0999 V2000
    0.0214   10.2482    0.0000 C   0  0  0  0  0  0  0  0  0  0  0  0
    0.0214    8.7482    0.0000 C   0  0  0  0  0  0  0  0  0  0  0  0
    1.3205    7.9982    0.0000 C   0  0  0  0  0  0  0  0  0  0  0  0
    2.6195    8.7482    0.0000 C   0  0  0  0  0  0  0  0  0  0  0  0
    2.6195   10.2481    0.0000 C   0  0  0  0  0  0  0  0  0  0  0  0
    1.3205   10.9982    0.0000 C   0  0  0  0  0  0  0  0  0  0  0  0
    4.0461    8.2846    0.0000 C   0  0  2  0  0  0  0  0  0  0  0  0
    4.9278    9.4981    0.0000 C   0  0  2  0  0  0  0  0  0  0  0  0
    4.0461   10.7117    0.0000 N   0  0  0  0  0  0  0  0  0  0  0  0
    6.3544    9.9617    0.0000 C   0  0  2  0  0  0  0  0  0  0  0  0
    6.3544   11.4617    0.0000 C   0  0  2  0  0  0  0  0  0  0  0  0
    4.9278   11.9252    0.0000 C   0  0  0  0  0  0  0  0  0  0  0  0
    1.3205   12.4981    0.0000 O   0  0  0  0  0  0  0  0  0  0  0  0
    1.3205    6.4982    0.0000 O   0  0  0  0  0  0  0  0  0  0  0  0
    4.5096    6.8580    0.0000 C   0  0  0  0  0  0  0  0  0  0  0  0
    3.5059    5.7433    0.0000 O   0  0  0  0  0  0  0  0  0  0  0  0
    3.9694    4.3167    0.0000 C   0  0  0  0  0  0  0  0  0  0  0  0
    5.4367    4.0049    0.0000 O   0  0  0  0  0  0  0  0  0  0  0  0
    2.9657    3.2020    0.0000 N   0  0  0  0  0  0  0  0  0  0  0  0
    7.6534   10.7117    0.0000 N   0  0  0  0  0  0  0  0  0  0  0  0
    6.3825    7.4958    0.0000 O   0  0  0  0  0  0  0  0  0  0  0  0
    7.8743    7.6526    0.0000 C   0  0  0  0  0  0  0  0  0  0  0  0
    6.9645   12.8320    0.0000 H   0  0  0  0  0  0  0  0  0  0  0  0
    6.9645    8.5914    0.0000 H   0  0  0  0  0  0  0  0  0  0  0  0
   -1.2776   10.9982    0.0000 C   0  0  0  0  0  0  0  0  0  0  0  0
   -1.2776    7.9982    0.0000 N   0  0  0  0  0  0  0  0  0  0  0  0
  1  2  2  0  0  0  0
  1  6  1  0  0  0  0
  1 25  1  0  0  0  0
  2  3  1  0  0  0  0
  2 26  1  0  0  0  0
  3  4  1  0  0  0  0
  3 14  2  0  0  0  0
  4  5  2  0  0  0  0
  4  7  1  0  0  0  0
  5  6  1  0  0  0  0
  5  9  1  0  0  0  0
  6 13  2  0  0  0  0
  7  8  1  0  0  0  0
  7 15  1  6  0  0  0
  8  9  1  0  0  0  0
  8 10  1  0  0  0  0
  8 21  1  1  0  0  0
  9 12  1  0  0  0  0
 10 11  1  0  0  0  0
 10 20  1  0  0  0  0
 10 24  1  1  0  0  0
 11 12  1  0  0  0  0
 11 20  1  0  0  0  0
 11 23  1  1  0  0  0
 15 16  1  0  0  0  0
 16 17  1  0  0  0  0
 17 18  2  0  0  0  0
 17 19  1  0  0  0  0
 21 22  1  0  0  0  0
M  END
