216633
 OpenBabel03021519512D

 26 28  0  0  0  0  0  0  0  0999 V2000
   -5.4940    4.9498    0.0000 Cl  0  0  0  0  0  0  0  0  0  0  0  0
   -2.8959    0.4498    0.0000 Cl  0  0  0  0  0  0  0  0  0  0  0  0
   -6.8350    7.6179    0.0000 O   0  0  0  0  0  0  0  0  0  0  0  0
   -3.4449    9.5080    0.0000 N   0  0  0  0  0  0  0  0  0  0  0  0
   -4.9449    9.5080    0.0000 N   0  0  0  0  0  0  0  0  0  0  0  0
   -5.4940    3.4498    0.0000 C   0  0  0  0  0  0  0  0  0  0  0  0
   -4.1949    2.6998    0.0000 C   0  0  0  0  0  0  0  0  0  0  0  0
   -6.7930    2.6998    0.0000 C   0  0  0  0  0  0  0  0  0  0  0  0
   -6.7930    1.1998    0.0000 C   0  0  0  0  0  0  0  0  0  0  0  0
   -4.1949    1.1998    0.0000 C   0  0  0  0  0  0  0  0  0  0  0  0
   -5.4940    0.4498    0.0000 C   0  0  0  0  0  0  0  0  0  0  0  0
   -5.4084    8.0814    0.0000 C   0  0  0  0  0  0  0  0  0  0  0  0
   -4.1949    7.1998    0.0000 C   0  0  0  0  0  0  0  0  0  0  0  0
   -2.9814    8.0814    0.0000 C   0  0  0  0  0  0  0  0  0  0  0  0
   -7.3184   10.5648    0.0000 C   0  0  0  0  0  0  0  0  0  0  0  0
   -5.8266   10.7216    0.0000 C   0  0  0  0  0  0  0  0  0  0  0  0
   -8.2001   11.7783    0.0000 C   0  0  0  0  0  0  0  0  0  0  0  0
   -5.2165   12.0919    0.0000 C   0  0  0  0  0  0  0  0  0  0  0  0
   -7.5900   13.1486    0.0000 C   0  0  0  0  0  0  0  0  0  0  0  0
   -6.0982   13.3054    0.0000 C   0  0  0  0  0  0  0  0  0  0  0  0
   -2.8959    3.4498    0.0000 N   0  0  0  0  0  0  0  0  0  0  0  0
   -2.8959    4.9498    0.0000 C   0  0  0  0  0  0  0  0  0  0  0  0
   -1.5968    5.6998    0.0000 O   0  0  0  0  0  0  0  0  0  0  0  0
   -4.1949    5.6998    0.0000 N   0  0  0  0  0  0  0  0  0  0  0  0
   -1.5548    7.6179    0.0000 C   0  0  0  0  0  0  0  0  0  0  0  0
   -2.5632   10.7216    0.0000 C   0  0  0  0  0  0  0  0  0  0  0  0
  1  6  1  0  0  0  0
  2 10  1  0  0  0  0
  3 12  2  0  0  0  0
  4  5  1  0  0  0  0
  4 14  1  0  0  0  0
  4 26  1  0  0  0  0
  5 12  1  0  0  0  0
  5 16  1  0  0  0  0
  6  7  2  0  0  0  0
  6  8  1  0  0  0  0
  7 10  1  0  0  0  0
  7 21  1  0  0  0  0
  8  9  2  0  0  0  0
  9 11  1  0  0  0  0
 10 11  2  0  0  0  0
 12 13  1  0  0  0  0
 13 14  2  0  0  0  0
 13 24  1  0  0  0  0
 14 25  1  0  0  0  0
 15 17  2  0  0  0  0
 15 16  1  0  0  0  0
 16 18  2  0  0  0  0
 17 19  1  0  0  0  0
 18 20  1  0  0  0  0
 19 20  2  0  0  0  0
 21 22  1  0  0  0  0
 22 23  2  0  0  0  0
 22 24  1  0  0  0  0
M  END
