154587
 OpenBabel03021519512D

 16 17  0  0  0  0  0  0  0  0999 V2000
   -6.1318    1.2255    0.0000 N   0  0  0  0  0  0  0  0  0  0  0  0
   -4.8328   -1.0245    0.0000 N   0  0  0  0  0  0  0  0  0  0  0  0
   -3.4062    0.9390    0.0000 N   0  0  0  0  0  0  0  0  0  0  0  0
   -3.4062   -1.4880    0.0000 N   0  0  0  0  0  0  0  0  0  0  0  0
   -7.4309    0.4755    0.0000 C   0  0  0  0  0  0  0  0  0  0  0  0
   -7.4309   -1.0245    0.0000 C   0  0  0  0  0  0  0  0  0  0  0  0
   -6.1318   -1.7745    0.0000 C   0  0  0  0  0  0  0  0  0  0  0  0
   -2.5245   -0.2745    0.0000 C   0  0  0  0  0  0  0  0  0  0  0  0
   -4.8328    0.4755    0.0000 C   0  0  0  0  0  0  0  0  0  0  0  0
   -8.7299    1.2255    0.0000 C   0  0  0  0  0  0  0  0  0  0  0  0
  -10.0289    0.4755    0.0000 C   0  0  0  0  0  0  0  0  0  0  0  0
   -8.7299    2.7255    0.0000 C   0  0  0  0  0  0  0  0  0  0  0  0
   -6.1318   -3.2745    0.0000 C   0  0  0  0  0  0  0  0  0  0  0  0
   -7.4309   -4.0245    0.0000 C   0  0  0  0  0  0  0  0  0  0  0  0
   -4.8328   -4.0245    0.0000 C   0  0  0  0  0  0  0  0  0  0  0  0
   -1.0245   -0.2745    0.0000 N   0  0  0  0  0  0  0  0  0  0  0  0
  1  5  2  0  0  0  0
  1  9  1  0  0  0  0
  2  4  1  0  0  0  0
  2  7  1  0  0  0  0
  2  9  1  0  0  0  0
  3  9  2  0  0  0  0
  3  8  1  0  0  0  0
  4  8  2  0  0  0  0
  5  6  1  0  0  0  0
  5 10  1  0  0  0  0
  6  7  2  0  0  0  0
  7 13  1  0  0  0  0
  8 16  1  0  0  0  0
 10 11  1  0  0  0  0
 10 12  1  0  0  0  0
 13 14  1  0  0  0  0
 13 15  1  0  0  0  0
M  END
