639174
 OpenBabel03021519512D

 32 35  0  0  1  0  0  0  0  0999 V2000
  -13.8302    0.3315    0.0000 C   0  0  0  0  0  0  0  0  0  0  0  0
  -15.1293    1.0815    0.0000 C   0  0  0  0  0  0  0  0  0  0  0  0
  -15.1293    2.5815    0.0000 C   0  0  0  0  0  0  0  0  0  0  0  0
  -13.8302    3.3315    0.0000 C   0  0  0  0  0  0  0  0  0  0  0  0
  -12.5312    2.5815    0.0000 C   0  0  0  0  0  0  0  0  0  0  0  0
  -12.5312    1.0815    0.0000 C   0  0  0  0  0  0  0  0  0  0  0  0
  -11.2321    0.3315    0.0000 N   0  0  0  0  0  0  0  0  0  0  0  0
   -9.9331    1.0815    0.0000 C   0  0  0  0  0  0  0  0  0  0  0  0
   -9.9331    2.5815    0.0000 C   0  0  0  0  0  0  0  0  0  0  0  0
  -11.2322    3.3315    0.0000 C   0  0  0  0  0  0  0  0  0  0  0  0
  -13.8302    4.8315    0.0000 N   0  0  0  0  0  0  0  0  0  0  0  0
   -8.5065    3.0451    0.0000 C   0  0  0  0  0  0  0  0  0  0  0  0
   -7.6248    1.8315    0.0000 N   0  0  0  0  0  0  0  0  0  0  0  0
   -8.5065    0.6180    0.0000 C   0  0  0  0  0  0  0  0  0  0  0  0
   -7.8964   -0.7523    0.0000 C   0  0  0  0  0  0  0  0  0  0  0  0
   -6.4046   -0.9091    0.0000 C   0  0  0  0  0  0  0  0  0  0  0  0
   -5.5229    0.3044    0.0000 C   0  0  0  0  0  0  0  0  0  0  0  0
   -6.1331    1.6748    0.0000 C   0  0  0  0  0  0  0  0  0  0  0  0
   -5.2514    2.8883    0.0000 O   0  0  0  0  0  0  0  0  0  0  0  0
   -5.7945   -2.2794    0.0000 C   0  0  1  0  0  0  0  0  0  0  0  0
   -4.3027   -2.4362    0.0000 C   0  0  0  0  0  0  0  0  0  0  0  0
   -3.4211   -1.2227    0.0000 O   0  0  0  0  0  0  0  0  0  0  0  0
   -4.0312    0.1476    0.0000 C   0  0  0  0  0  0  0  0  0  0  0  0
   -5.1844   -3.6497    0.0000 O   0  0  0  0  0  0  0  0  0  0  0  0
   -7.1648   -2.8895    0.0000 C   0  0  0  0  0  0  0  0  0  0  0  0
   -7.3216   -4.3813    0.0000 C   0  0  0  0  0  0  0  0  0  0  0  0
   -3.6926   -3.8065    0.0000 O   0  0  0  0  0  0  0  0  0  0  0  0
  -13.0262   -2.3005    0.0000 Cl  0  0  0  0  0  0  0  0  0  0  0  0
  -15.1293    5.5815    0.0000 C   0  0  0  0  0  0  0  0  0  0  0  0
  -15.1293    7.0815    0.0000 O   0  0  0  0  0  0  0  0  0  0  0  0
  -16.4283    4.8315    0.0000 C   0  0  0  0  0  0  0  0  0  0  0  0
  -17.7273    5.5815    0.0000 N   0  0  0  0  0  0  0  0  0  0  0  0
  1  2  2  0  0  0  0
  1  6  1  0  0  0  0
  2  3  1  0  0  0  0
  3  4  2  0  0  0  0
  4  5  1  0  0  0  0
  4 11  1  0  0  0  0
  5  6  2  0  0  0  0
  5 10  1  0  0  0  0
  6  7  1  0  0  0  0
  7  8  2  0  0  0  0
  8  9  1  0  0  0  0
  8 14  1  0  0  0  0
  9 10  2  0  0  0  0
  9 12  1  0  0  0  0
 11 29  1  0  0  0  0
 12 13  1  0  0  0  0
 13 14  1  0  0  0  0
 13 18  1  0  0  0  0
 14 15  2  0  0  0  0
 15 16  1  0  0  0  0
 16 17  2  0  0  0  0
 16 20  1  0  0  0  0
 17 18  1  0  0  0  0
 17 23  1  0  0  0  0
 18 19  2  0  0  0  0
 20 21  1  0  0  0  0
 20 24  1  1  0  0  0
 21 22  1  0  0  0  0
 21 27  2  0  0  0  0
 22 23  1  0  0  0  0
 25 20  1  0  0  0  0
 25 26  1  0  0  0  0
 29 30  2  0  0  0  0
 29 31  1  0  0  0  0
 31 32  1  0  0  0  0
M  END
