44556
 OpenBabel03021519512D

 18 19  0  0  0  0  0  0  0  0999 V2000
  -14.0149    2.7255    0.0000 Cl  0  0  0  0  0  0  0  0  0  0  0  0
  -11.4168   -1.7745    0.0000 Cl  0  0  0  0  0  0  0  0  0  0  0  0
   -4.9216    0.4755    0.0000 N   0  0  0  0  0  0  0  0  0  0  0  0
   -3.6226   -1.7745    0.0000 N   0  0  0  0  0  0  0  0  0  0  0  0
   -2.3236   -2.5245    0.0000 H   0  0  0  0  0  0  0  0  0  0  0  0
   -2.3236    0.4755    0.0000 O   0  0  0  0  0  0  0  0  0  0  0  0
  -10.1178    1.9755    0.0000 C   0  0  0  0  0  0  0  0  0  0  0  0
  -10.1178    0.4755    0.0000 C   0  0  0  0  0  0  0  0  0  0  0  0
  -11.4168    2.7255    0.0000 C   0  0  0  0  0  0  0  0  0  0  0  0
  -11.4168   -0.2745    0.0000 C   0  0  0  0  0  0  0  0  0  0  0  0
  -12.7159    1.9755    0.0000 C   0  0  0  0  0  0  0  0  0  0  0  0
  -12.7159    0.4755    0.0000 C   0  0  0  0  0  0  0  0  0  0  0  0
   -3.6226   -0.2745    0.0000 C   0  0  0  0  0  0  0  0  0  0  0  0
   -6.2207   -0.2745    0.0000 C   0  0  0  0  0  0  0  0  0  0  0  0
   -6.2207   -1.7745    0.0000 C   0  0  0  0  0  0  0  0  0  0  0  0
   -4.9216   -2.5245    0.0000 C   0  0  0  0  0  0  0  0  0  0  0  0
   -8.8187   -0.2745    0.0000 C   0  0  0  0  0  0  0  0  0  0  0  0
   -7.5197    0.4755    0.0000 S   0  0  0  0  0  0  0  0  0  0  0  0
  1 11  1  0  0  0  0
  2 10  1  0  0  0  0
  3 14  2  0  0  0  0
  3 13  1  0  0  0  0
  4 13  1  0  0  0  0
  4 16  1  0  0  0  0
  4  5  1  0  0  0  0
  6 13  2  0  0  0  0
  7  9  2  0  0  0  0
  7  8  1  0  0  0  0
  8 10  2  0  0  0  0
  8 17  1  0  0  0  0
  9 11  1  0  0  0  0
 10 12  1  0  0  0  0
 11 12  2  0  0  0  0
 14 15  1  0  0  0  0
 14 18  1  0  0  0  0
 15 16  2  0  0  0  0
 17 18  1  0  0  0  0
M  END
