261610
 OpenBabel03021519512D

 16 16  0  0  0  0  0  0  0  0999 V2000
    3.0000    4.6471    0.0000 C   0  0  0  0  0  0  0  0  0  0  0  0
    2.2500    3.3481    0.0000 C   0  0  0  0  0  0  0  0  0  0  0  0
    0.7500    3.3481    0.0000 O   0  0  0  0  0  0  0  0  0  0  0  0
    4.5000    2.0490    0.0000 C   0  0  0  0  0  0  0  0  0  0  0  0
    5.2500    3.3481    0.0000 C   0  0  0  0  0  0  0  0  0  0  0  0
    5.2500    0.7500    0.0000 C   0  0  0  0  0  0  0  0  0  0  0  0
    6.7500    3.3481    0.0000 C   0  0  0  0  0  0  0  0  0  0  0  0
    6.7500    0.7500    0.0000 C   0  0  0  0  0  0  0  0  0  0  0  0
    7.5000    2.0490    0.0000 C   0  0  0  0  0  0  0  0  0  0  0  0
    2.2500    5.9461    0.0000 C   0  0  0  0  0  0  0  0  0  0  0  0
    4.5000    4.6471    0.0000 C   0  0  0  0  0  0  0  0  0  0  0  0
    3.0000    2.0490    0.0000 N   0  0  0  0  0  0  0  0  0  0  0  0
    9.0000    2.0490    0.0000 N   0  0  0  0  0  0  0  0  0  0  0  0
   11.2500    3.3481    0.0000 C   0  0  0  0  0  0  0  0  0  0  0  0
    9.7500    3.3481    0.0000 C   0  0  0  0  0  0  0  0  0  0  0  0
    9.0000    4.6471    0.0000 C   0  0  0  0  0  0  0  0  0  0  0  0
  1  2  1  0  0  0  0
  1 10  2  0  0  0  0
  1 11  1  0  0  0  0
  2  3  2  0  0  0  0
  2 12  1  0  0  0  0
  4  5  2  0  0  0  0
  4  6  1  0  0  0  0
  4 12  1  0  0  0  0
  5  7  1  0  0  0  0
  6  8  2  0  0  0  0
  7  9  2  0  0  0  0
  8  9  1  0  0  0  0
  9 13  1  0  0  0  0
 13 15  1  0  0  0  0
 14 15  1  0  0  0  0
 15 16  1  0  0  0  0
M  END
