55845
 OpenBabel03021519512D

 20 22  0  0  1  0  0  0  0  0999 V2000
   -2.6444   -0.4514    0.0000 N   0  0  0  0  0  0  0  0  0  0  0  0
   -2.9558   -1.9188    0.0000 N   0  0  0  0  0  0  0  0  0  0  0  0
    5.3272   -2.9095    0.0000 Cl  0  0  0  0  0  0  0  0  0  0  0  0
   -2.6546    4.9015    0.0000 C   0  0  0  0  0  0  0  0  0  0  0  0
   -3.4041    3.6022    0.0000 C   0  0  0  0  0  0  0  0  0  0  0  0
   -1.1546    4.9021    0.0000 C   0  0  0  0  0  0  0  0  0  0  0  0
   -2.6537    2.3034    0.0000 C   0  0  0  0  0  0  0  0  0  0  0  0
   -0.4041    3.6033    0.0000 C   0  0  0  0  0  0  0  0  0  0  0  0
   -1.1537    2.3040    0.0000 C   0  0  0  0  0  0  0  0  0  0  0  0
   -1.1527   -0.2941    0.0000 C   0  0  3  0  0  0  0  0  0  0  0  0
   -0.5421   -1.6642    0.0000 C   0  0  3  0  0  0  0  0  0  0  0  0
    0.9252   -1.9755    0.0000 C   0  0  0  0  0  0  0  0  0  0  0  0
    1.9285   -0.8604    0.0000 C   0  0  0  0  0  0  0  0  0  0  0  0
    3.3959   -1.1718    0.0000 C   0  0  0  0  0  0  0  0  0  0  0  0
    3.8599   -2.5982    0.0000 C   0  0  0  0  0  0  0  0  0  0  0  0
    1.3893   -3.4019    0.0000 C   0  0  0  0  0  0  0  0  0  0  0  0
   -1.6565   -2.6683    0.0000 C   0  0  0  0  0  0  0  0  0  0  0  0
    2.8566   -3.7133    0.0000 C   0  0  0  0  0  0  0  0  0  0  0  0
   -0.4032    1.0052    0.0000 C   0  0  0  0  0  0  0  0  0  0  0  0
    1.0968    1.0058    0.0000 O   0  0  0  0  0  0  0  0  0  0  0  0
  1  2  2  0  0  0  0
  1 10  1  0  0  0  0
  2 17  1  0  0  0  0
  3 15  1  0  0  0  0
  4  5  2  0  0  0  0
  4  6  1  0  0  0  0
  5  7  1  0  0  0  0
  6  8  2  0  0  0  0
  7  9  2  0  0  0  0
  8  9  1  0  0  0  0
  9 19  1  0  0  0  0
 10 11  1  0  0  0  0
 10 19  1  0  0  0  0
 11 12  1  0  0  0  0
 11 17  1  0  0  0  0
 12 16  2  0  0  0  0
 12 13  1  0  0  0  0
 13 14  2  0  0  0  0
 14 15  1  0  0  0  0
 15 18  2  0  0  0  0
 16 18  1  0  0  0  0
 19 20  2  0  0  0  0
M  END
