64876
 OpenBabel03021519512D

 33 36  0  0  0  0  0  0  0  0999 V2000
   -3.5221   13.3995    0.0000 Cl  0  0  0  0  0  0  0  0  0  0  0  0
    2.9731   12.6495    0.0000 N   0  0  0  0  0  0  0  0  0  0  0  0
    5.5712   11.1495    0.0000 O   0  0  0  0  0  0  0  0  0  0  0  0
   -6.1202    8.8995    0.0000 Cl  0  0  0  0  0  0  0  0  0  0  0  0
   -2.2231    3.6495    0.0000 N   0  0  0  0  0  0  0  0  0  0  0  0
    0.3750    2.1495    0.0000 O   0  0  0  0  0  0  0  0  0  0  0  0
    4.2721   10.3995    0.0000 C   0  0  0  0  0  0  0  0  0  0  0  0
    2.9731   11.1495    0.0000 C   0  0  0  0  0  0  0  0  0  0  0  0
    5.5712   12.6495    0.0000 C   0  0  0  0  0  0  0  0  0  0  0  0
    4.2721   13.3995    0.0000 C   0  0  0  0  0  0  0  0  0  0  0  0
    0.3750   12.6495    0.0000 C   0  0  0  0  0  0  0  0  0  0  0  0
    0.3750   11.1495    0.0000 C   0  0  0  0  0  0  0  0  0  0  0  0
   -0.9240   13.3995    0.0000 C   0  0  0  0  0  0  0  0  0  0  0  0
   -0.9240   10.3995    0.0000 C   0  0  0  0  0  0  0  0  0  0  0  0
   -2.2231   12.6495    0.0000 C   0  0  0  0  0  0  0  0  0  0  0  0
   -2.2231   11.1495    0.0000 C   0  0  0  0  0  0  0  0  0  0  0  0
   -0.9240    4.3995    0.0000 C   0  0  0  0  0  0  0  0  0  0  0  0
    0.3750    3.6495    0.0000 C   0  0  0  0  0  0  0  0  0  0  0  0
   -2.2231    6.6495    0.0000 C   0  0  0  0  0  0  0  0  0  0  0  0
   -3.5221    5.8995    0.0000 C   0  0  0  0  0  0  0  0  0  0  0  0
   -2.2231    8.1495    0.0000 C   0  0  0  0  0  0  0  0  0  0  0  0
   -4.8212    6.6495    0.0000 C   0  0  0  0  0  0  0  0  0  0  0  0
   -3.5221    8.8995    0.0000 C   0  0  0  0  0  0  0  0  0  0  0  0
   -4.8212    8.1495    0.0000 C   0  0  0  0  0  0  0  0  0  0  0  0
   -2.2231    2.1495    0.0000 C   0  0  0  0  0  0  0  0  0  0  0  0
   -0.9241    1.3995    0.0000 C   0  0  0  0  0  0  0  0  0  0  0  0
   -0.9240   14.8995    0.0000 O   0  0  0  0  0  0  0  0  0  0  0  0
    1.6740   13.3995    0.0000 C   0  0  0  0  0  0  0  0  0  0  0  0
   -0.9240    8.8995    0.0000 C   0  0  0  0  0  0  0  0  0  0  0  0
    0.5760    8.8995    0.0000 C   0  0  0  0  0  0  0  0  0  0  0  0
   -0.1740    7.6005    0.0000 C   0  0  0  0  0  0  0  0  0  0  0  0
   -6.1202    5.8995    0.0000 O   0  0  0  0  0  0  0  0  0  0  0  0
   -3.5221    4.3995    0.0000 C   0  0  0  0  0  0  0  0  0  0  0  0
  1 15  1  0  0  0  0
  2  8  1  0  0  0  0
  2 10  1  0  0  0  0
  2 28  1  0  0  0  0
  3  7  1  0  0  0  0
  3  9  1  0  0  0  0
  4 24  1  0  0  0  0
  5 17  1  0  0  0  0
  5 25  1  0  0  0  0
  5 33  1  0  0  0  0
  6 18  1  0  0  0  0
  6 26  1  0  0  0  0
  7  8  1  0  0  0  0
  9 10  1  0  0  0  0
 11 13  2  0  0  0  0
 11 12  1  0  0  0  0
 11 28  1  0  0  0  0
 12 14  2  0  0  0  0
 13 15  1  0  0  0  0
 13 27  1  0  0  0  0
 14 16  1  0  0  0  0
 14 29  1  0  0  0  0
 15 16  2  0  0  0  0
 17 18  1  0  0  0  0
 19 21  2  0  0  0  0
 19 20  1  0  0  0  0
 20 22  2  0  0  0  0
 20 33  1  0  0  0  0
 21 23  1  0  0  0  0
 21 29  1  0  0  0  0
 22 24  1  0  0  0  0
 22 32  1  0  0  0  0
 23 24  2  0  0  0  0
 25 26  1  0  0  0  0
 29 30  1  0  0  0  0
 29 31  1  0  0  0  0
M  END
