672865
 OpenBabel03021519512D

 26 27  0  0  0  0  0  0  0  0999 V2000
   -8.9410   -3.1638    0.0000 O   0  0  0  0  0  0  0  0  0  0  0  0
  -10.3114   -2.5537    0.0000 C   0  0  0  0  0  0  0  0  0  0  0  0
  -10.1546   -1.0619    0.0000 C   0  0  0  0  0  0  0  0  0  0  0  0
   -8.6873   -0.7500    0.0000 C   0  0  0  0  0  0  0  0  0  0  0  0
   -7.9373   -2.0490    0.0000 C   0  0  0  0  0  0  0  0  0  0  0  0
   -6.4456   -2.2058    0.0000 C   0  0  0  0  0  0  0  0  0  0  0  0
   -5.8355   -3.5762    0.0000 C   0  0  0  0  0  0  0  0  0  0  0  0
   -4.3437   -3.7329    0.0000 P   0  0  0  0  0  0  0  0  0  0  0  0
   -4.1869   -2.2412    0.0000 O   0  0  0  0  0  0  0  0  0  0  0  0
   -2.8519   -3.8897    0.0000 O   0  0  0  0  0  0  0  0  0  0  0  0
   -2.2418   -5.2600    0.0000 C   0  0  0  0  0  0  0  0  0  0  0  0
   -0.7500   -5.4168    0.0000 C   0  0  0  0  0  0  0  0  0  0  0  0
   -4.5005   -5.2247    0.0000 O   0  0  0  0  0  0  0  0  0  0  0  0
   -3.2869   -6.1064    0.0000 C   0  0  0  0  0  0  0  0  0  0  0  0
   -3.4437   -7.5982    0.0000 C   0  0  0  0  0  0  0  0  0  0  0  0
   -6.7171   -4.7897    0.0000 C   0  0  0  0  0  0  0  0  0  0  0  0
   -7.5988   -6.0032    0.0000 N   0  0  0  0  0  0  0  0  0  0  0  0
   -5.5639   -0.9923    0.0000 H   0  0  0  0  0  0  0  0  0  0  0  0
  -14.2085   -4.8037    0.0000 C   0  0  0  0  0  0  0  0  0  0  0  0
  -12.9094   -5.5537    0.0000 C   0  0  0  0  0  0  0  0  0  0  0  0
  -11.6104   -4.8037    0.0000 C   0  0  0  0  0  0  0  0  0  0  0  0
  -11.6104   -3.3037    0.0000 C   0  0  0  0  0  0  0  0  0  0  0  0
  -12.9094   -2.5537    0.0000 C   0  0  0  0  0  0  0  0  0  0  0  0
  -14.2085   -3.3037    0.0000 C   0  0  0  0  0  0  0  0  0  0  0  0
  -15.5075   -5.5537    0.0000 F   0  0  0  0  0  0  0  0  0  0  0  0
  -10.3114   -5.5537    0.0000 F   0  0  0  0  0  0  0  0  0  0  0  0
  1  2  1  0  0  0  0
  1  5  1  0  0  0  0
  2  3  2  0  0  0  0
  2 22  1  0  0  0  0
  3  4  1  0  0  0  0
  4  5  2  0  0  0  0
  5  6  1  0  0  0  0
  6  7  2  0  0  0  0
  6 18  1  0  0  0  0
  7  8  1  0  0  0  0
  7 16  1  0  0  0  0
  8  9  2  0  0  0  0
  8 10  1  0  0  0  0
  8 13  1  0  0  0  0
 10 11  1  0  0  0  0
 11 12  1  0  0  0  0
 13 14  1  0  0  0  0
 14 15  1  0  0  0  0
 16 17  3  0  0  0  0
 19 20  1  0  0  0  0
 19 24  2  0  0  0  0
 19 25  1  0  0  0  0
 20 21  2  0  0  0  0
 21 22  1  0  0  0  0
 21 26  1  0  0  0  0
 22 23  2  0  0  0  0
 23 24  1  0  0  0  0
M  END
