168184
 OpenBabel03021519512D

 24 24  0  0  0  0  0  0  0  0999 V2000
    1.4846    6.4289    0.0000 N   0  0  0  0  0  0  0  0  0  0  0  0
    2.7837    4.1789    0.0000 N   0  0  0  0  0  0  0  0  0  0  0  0
    4.0827    6.4289    0.0000 N   0  0  0  0  0  0  0  0  0  0  0  0
    2.7837    7.1789    0.0000 C   0  0  0  0  0  0  0  0  0  0  0  0
    5.3817    8.6789    0.0000 C   0  0  0  0  0  0  0  0  0  0  0  0
    5.3817    7.1789    0.0000 C   0  0  0  0  0  0  0  0  0  0  0  0
    6.6808    9.4289    0.0000 C   0  0  0  0  0  0  0  0  0  0  0  0
    7.9798    8.6789    0.0000 C   0  0  0  0  0  0  0  0  0  0  0  0
    6.6808    6.4289    0.0000 C   0  0  0  0  0  0  0  0  0  0  0  0
    7.9798    7.1789    0.0000 C   0  0  0  0  0  0  0  0  0  0  0  0
    4.0827    4.9289    0.0000 C   0  0  0  0  0  0  0  0  0  0  0  0
    1.4846    4.9289    0.0000 C   0  0  0  0  0  0  0  0  0  0  0  0
    2.2212   12.4522    0.0000 C   0  0  0  0  0  0  0  0  0  0  0  0
    3.7212   12.4522    0.0000 C   0  0  0  0  0  0  0  0  0  0  0  0
    1.4712   11.1532    0.0000 S   0  0  0  0  0  0  0  0  0  0  0  0
    0.1721   11.9032    0.0000 O   0  0  0  0  0  0  0  0  0  0  0  0
    2.7702   10.4032    0.0000 O   0  0  0  0  0  0  0  0  0  0  0  0
    0.7212    9.8541    0.0000 O   0  0  0  0  0  0  0  0  0  0  0  0
    0.1856    4.1789    0.0000 N   0  0  0  0  0  0  0  0  0  0  0  0
    2.7837    8.6789    0.0000 N   0  0  0  0  0  0  0  0  0  0  0  0
    4.5957    3.5193    0.0000 C   0  0  0  0  0  0  0  0  0  0  0  0
    5.5599    5.1894    0.0000 C   0  0  0  0  0  0  0  0  0  0  0  0
    9.2788    6.4289    0.0000 C   0  0  0  0  0  0  0  0  0  0  0  0
   10.5779    7.1789    0.0000 N   0  0  0  0  0  0  0  0  0  0  0  0
  1  4  2  0  0  0  0
  1 12  1  0  0  0  0
  2 12  2  0  0  0  0
  2 11  1  0  0  0  0
  3  4  1  0  0  0  0
  3  6  1  0  0  0  0
  3 11  1  0  0  0  0
  4 20  1  0  0  0  0
  5  7  2  0  0  0  0
  5  6  1  0  0  0  0
  6  9  2  0  0  0  0
  7  8  1  0  0  0  0
  8 10  2  0  0  0  0
  9 10  1  0  0  0  0
 10 23  1  0  0  0  0
 11 21  1  0  0  0  0
 11 22  1  0  0  0  0
 12 19  1  0  0  0  0
 13 14  1  0  0  0  0
 13 15  1  0  0  0  0
 15 16  2  0  0  0  0
 15 17  2  0  0  0  0
 15 18  1  0  0  0  0
 23 24  1  0  0  0  0
M  END
