140873
 OpenBabel03021519512D

 19 20  0  0  0  0  0  0  0  0999 V2000
   -8.8692   -0.2454    0.0000 C   0  0  0  0  0  0  0  0  0  0  0  0
   -8.8692   -1.7454    0.0000 C   0  0  0  0  0  0  0  0  0  0  0  0
   -7.5702   -2.4954    0.0000 C   0  0  0  0  0  0  0  0  0  0  0  0
   -6.2711   -1.7454    0.0000 C   0  0  0  0  0  0  0  0  0  0  0  0
   -6.2711   -0.2454    0.0000 C   0  0  0  0  0  0  0  0  0  0  0  0
   -7.5702    0.5046    0.0000 C   0  0  0  0  0  0  0  0  0  0  0  0
   -7.5702   -3.9954    0.0000 Cl  0  0  0  0  0  0  0  0  0  0  0  0
   -4.9721    0.5046    0.0000 C   0  0  0  0  0  0  0  0  0  0  0  0
   -8.8692    2.7546    0.0000 C   0  0  0  0  0  0  0  0  0  0  0  0
  -10.1682    2.0046    0.0000 C   0  0  0  0  0  0  0  0  0  0  0  0
   -8.8692    4.2546    0.0000 O   0  0  0  0  0  0  0  0  0  0  0  0
   -4.9721    2.0046    0.0000 O   0  0  0  0  0  0  0  0  0  0  0  0
   -3.6731   -0.2454    0.0000 C   0  0  0  0  0  0  0  0  0  0  0  0
   -3.5163   -1.7372    0.0000 C   0  0  0  0  0  0  0  0  0  0  0  0
   -2.0490   -2.0490    0.0000 C   0  0  0  0  0  0  0  0  0  0  0  0
   -1.2990   -0.7500    0.0000 C   0  0  0  0  0  0  0  0  0  0  0  0
   -7.5702    2.0046    0.0000 N   0  0  0  0  0  0  0  0  0  0  0  0
   -2.3027    0.3647    0.0000 N   0  0  0  0  0  0  0  0  0  0  0  0
  -11.4673    2.7546    0.0000 N   0  0  0  0  0  0  0  0  0  0  0  0
  1  2  2  0  0  0  0
  1  6  1  0  0  0  0
  2  3  1  0  0  0  0
  3  4  2  0  0  0  0
  3  7  1  0  0  0  0
  4  5  1  0  0  0  0
  5  6  2  0  0  0  0
  5  8  1  0  0  0  0
  6 17  1  0  0  0  0
  8 12  2  0  0  0  0
  8 13  1  0  0  0  0
  9 10  1  0  0  0  0
  9 11  2  0  0  0  0
  9 17  1  0  0  0  0
 10 19  1  0  0  0  0
 13 14  2  0  0  0  0
 13 18  1  0  0  0  0
 14 15  1  0  0  0  0
 15 16  2  0  0  0  0
 16 18  1  0  0  0  0
M  END
