57345
 OpenBabel03021519512D

 16 17  0  0  0  0  0  0  0  0999 V2000
    4.6946    8.6529    0.0000 C   0  0  0  0  0  0  0  0  0  0  0  0
    5.9666    9.4478    0.0000 C   0  0  0  0  0  0  0  0  0  0  0  0
    5.0575    7.1975    0.0000 C   0  0  0  0  0  0  0  0  0  0  0  0
    7.1157    8.4836    0.0000 C   0  0  0  0  0  0  0  0  0  0  0  0
    6.5538    7.0928    0.0000 C   0  0  0  0  0  0  0  0  0  0  0  0
    2.1649    3.7502    0.0000 C   0  0  0  0  0  0  0  0  0  0  0  0
    0.8659    4.5002    0.0000 C   0  0  0  0  0  0  0  0  0  0  0  0
   -0.4332    3.7502    0.0000 C   0  0  0  0  0  0  0  0  0  0  0  0
    2.1649    2.2502    0.0000 C   0  0  0  0  0  0  0  0  0  0  0  0
   -0.4332    2.2502    0.0000 C   0  0  0  0  0  0  0  0  0  0  0  0
    0.8659    1.5002    0.0000 C   0  0  0  0  0  0  0  0  0  0  0  0
    2.6779    5.1598    0.0000 O   0  0  0  0  0  0  0  0  0  0  0  0
    3.6421    3.4898    0.0000 C   0  0  0  0  0  0  0  0  0  0  0  0
    4.6063    4.6388    0.0000 C   0  0  0  0  0  0  0  0  0  0  0  0
    6.0835    4.3784    0.0000 O   0  0  0  0  0  0  0  0  0  0  0  0
    4.0933    6.0484    0.0000 O   0  0  0  0  0  0  0  0  0  0  0  0
  1  2  1  0  0  0  0
  1  3  1  0  0  0  0
  2  4  1  0  0  0  0
  3  5  1  0  0  0  0
  3 16  1  0  0  0  0
  4  5  1  0  0  0  0
  6  7  1  0  0  0  0
  6  9  1  0  0  0  0
  6 12  1  0  0  0  0
  6 13  1  0  0  0  0
  7  8  1  0  0  0  0
  8 10  1  0  0  0  0
  9 11  1  0  0  0  0
 10 11  1  0  0  0  0
 13 14  1  0  0  0  0
 14 15  2  0  0  0  0
 14 16  1  0  0  0  0
M  END
