88916
 OpenBabel03021519512D

 29 33  0  0  1  0  0  0  0  0999 V2000
   -8.2540  -14.2036    0.0000 O   0  0  0  0  0  0  0  0  0  0  0  0
   -3.7431  -11.2199    0.0000 H   0  0  0  0  0  0  0  0  0  0  0  0
   -3.1755   -8.6846    0.0000 H   0  0  0  0  0  0  0  0  0  0  0  0
   -1.1165  -10.3891    0.0000 H   0  0  0  0  0  0  0  0  0  0  0  0
   -1.6457   -2.8961    0.0000 S   0  0  0  0  0  0  0  0  0  0  0  0
    0.3023   -4.3438    0.0000 N   0  0  0  0  0  0  0  0  0  0  0  0
   -0.1458   -2.9123    0.0000 C   0  0  0  0  0  0  0  0  0  0  0  0
   -2.1246   -4.3176    0.0000 C   0  0  0  0  0  0  0  0  0  0  0  0
   -0.9207   -5.2123    0.0000 C   0  0  0  0  0  0  0  0  0  0  0  0
   -0.9369   -6.7122    0.0000 C   0  0  2  0  0  0  0  0  0  0  0  0
   -2.1599   -7.5808    0.0000 C   0  0  1  0  0  0  0  0  0  0  0  0
    0.2671   -7.6070    0.0000 C   0  0  0  0  0  0  0  0  0  0  0  0
   -3.6236   -7.2531    0.0000 C   0  0  0  0  0  0  0  0  0  0  0  0
   -4.6393   -8.3569    0.0000 C   0  0  0  0  0  0  0  0  0  0  0  0
   -0.2119   -9.0285    0.0000 C   0  0  0  0  0  0  0  0  0  0  0  0
   -1.7118   -9.0123    0.0000 C   0  0  1  0  0  0  0  0  0  0  0  0
   -4.1912   -9.7884    0.0000 C   0  0  1  0  0  0  0  0  0  0  0  0
   -2.7275  -10.1161    0.0000 C   0  0  1  0  0  0  0  0  0  0  0  0
   -5.2069  -10.8922    0.0000 C   0  0  1  0  0  0  0  0  0  0  0  0
   -6.6707  -10.5645    0.0000 C   0  0  0  0  0  0  0  0  0  0  0  0
   -7.6863  -11.6683    0.0000 C   0  0  0  0  0  0  0  0  0  0  0  0
   -2.2794  -11.5476    0.0000 C   0  0  0  0  0  0  0  0  0  0  0  0
   -4.7588  -12.3237    0.0000 C   0  0  0  0  0  0  0  0  0  0  0  0
   -7.2383  -13.0998    0.0000 C   0  0  0  0  0  0  0  0  0  0  0  0
   -3.2950  -12.6514    0.0000 C   0  0  0  0  0  0  0  0  0  0  0  0
   -5.7745  -13.4275    0.0000 C   0  0  0  0  0  0  0  0  0  0  0  0
   -5.6550   -9.4607    0.0000 C   0  0  0  0  0  0  0  0  0  0  0  0
   -2.4559   -6.1103    0.0000 C   0  0  0  0  0  0  0  0  0  0  0  0
    0.7490   -1.7084    0.0000 C   0  0  0  0  0  0  0  0  0  0  0  0
  1 24  2  0  0  0  0
  5  7  1  0  0  0  0
  5  8  1  0  0  0  0
  6  7  2  0  0  0  0
  6  9  1  0  0  0  0
  7 29  1  0  0  0  0
  8  9  2  0  0  0  0
 10  9  1  1  0  0  0
 10 11  1  0  0  0  0
 10 12  1  0  0  0  0
 11 13  1  0  0  0  0
 11 16  1  0  0  0  0
 11 28  1  1  0  0  0
 12 15  1  0  0  0  0
 13 14  1  0  0  0  0
 14 17  1  0  0  0  0
 15 16  1  0  0  0  0
 16  4  1  6  0  0  0
 16 18  1  0  0  0  0
 17  2  1  6  0  0  0
 17 18  1  0  0  0  0
 17 19  1  0  0  0  0
 18  3  1  1  0  0  0
 18 22  1  0  0  0  0
 19 20  1  0  0  0  0
 19 23  1  0  0  0  0
 19 27  1  1  0  0  0
 20 21  1  0  0  0  0
 21 24  1  0  0  0  0
 22 25  1  0  0  0  0
 23 26  2  0  0  0  0
 23 25  1  0  0  0  0
 24 26  1  0  0  0  0
M  END
