33010
 OpenBabel03021519512D

 18 20  0  0  0  0  0  0  0  0999 V2000
   -7.7770    3.2932    0.0000 S   0  0  0  0  0  0  0  0  0  0  0  0
   -8.9905    1.1913    0.0000 N   0  0  0  0  0  0  0  0  0  0  0  0
   -5.0221    1.8014    0.0000 C   0  0  0  0  0  0  0  0  0  0  0  0
   -3.7231    1.0514    0.0000 C   0  0  0  0  0  0  0  0  0  0  0  0
   -6.3212    1.0514    0.0000 C   0  0  0  0  0  0  0  0  0  0  0  0
   -3.7231   -0.4486    0.0000 C   0  0  0  0  0  0  0  0  0  0  0  0
   -6.3212   -0.4486    0.0000 C   0  0  0  0  0  0  0  0  0  0  0  0
   -7.6202    1.8014    0.0000 C   0  0  0  0  0  0  0  0  0  0  0  0
   -5.0221   -1.1986    0.0000 C   0  0  0  0  0  0  0  0  0  0  0  0
   -9.9942    4.9041    0.0000 C   0  0  0  0  0  0  0  0  0  0  0  0
  -11.4942    4.9041    0.0000 C   0  0  0  0  0  0  0  0  0  0  0  0
   -9.2442    3.6051    0.0000 C   0  0  0  0  0  0  0  0  0  0  0  0
   -9.9942    2.3060    0.0000 C   0  0  0  0  0  0  0  0  0  0  0  0
  -12.2442    3.6051    0.0000 C   0  0  0  0  0  0  0  0  0  0  0  0
  -11.4942    2.3060    0.0000 C   0  0  0  0  0  0  0  0  0  0  0  0
   -2.4240   -1.1986    0.0000 C   0  0  0  0  0  0  0  0  0  0  0  0
   -1.1250   -0.4486    0.0000 C   0  0  0  0  0  0  0  0  0  0  0  0
   -2.4240   -2.6986    0.0000 C   0  0  0  0  0  0  0  0  0  0  0  0
  1  8  1  0  0  0  0
  1 12  1  0  0  0  0
  2  8  2  0  0  0  0
  2 13  1  0  0  0  0
  3  4  2  0  0  0  0
  3  5  1  0  0  0  0
  4  6  1  0  0  0  0
  5  7  2  0  0  0  0
  5  8  1  0  0  0  0
  6  9  2  0  0  0  0
  6 16  1  0  0  0  0
  7  9  1  0  0  0  0
 10 11  2  0  0  0  0
 10 12  1  0  0  0  0
 11 14  1  0  0  0  0
 12 13  2  0  0  0  0
 13 15  1  0  0  0  0
 14 15  2  0  0  0  0
 16 17  1  0  0  0  0
 16 18  1  0  0  0  0
M  END
