55862
 OpenBabel03021519512D

 23 26  0  0  0  0  0  0  0  0999 V2000
   -7.5197    3.4755    0.0000 O   0  0  0  0  0  0  0  0  0  0  0  0
   -6.2207    1.2255    0.0000 O   0  0  0  0  0  0  0  0  0  0  0  0
   -7.5197    1.9755    0.0000 C   0  0  0  0  0  0  0  0  0  0  0  0
   -8.8188    1.2255    0.0000 C   0  0  0  0  0  0  0  0  0  0  0  0
  -10.1178    1.9755    0.0000 C   0  0  0  0  0  0  0  0  0  0  0  0
  -11.4168    1.2255    0.0000 C   0  0  0  0  0  0  0  0  0  0  0  0
   -8.8188   -0.2745    0.0000 C   0  0  0  0  0  0  0  0  0  0  0  0
  -11.4168   -0.2745    0.0000 C   0  0  0  0  0  0  0  0  0  0  0  0
  -10.1178   -1.0245    0.0000 C   0  0  0  0  0  0  0  0  0  0  0  0
   -7.5197   -1.0245    0.0000 C   0  0  0  0  0  0  0  0  0  0  0  0
   -6.2207   -0.2745    0.0000 C   0  0  0  0  0  0  0  0  0  0  0  0
   -4.9216   -1.0245    0.0000 C   0  0  0  0  0  0  0  0  0  0  0  0
   -3.6226   -0.2745    0.0000 C   0  0  0  0  0  0  0  0  0  0  0  0
   -2.3236   -1.0245    0.0000 C   0  0  0  0  0  0  0  0  0  0  0  0
   -2.3236   -2.5245    0.0000 C   0  0  0  0  0  0  0  0  0  0  0  0
   -4.9216   -2.5245    0.0000 C   0  0  0  0  0  0  0  0  0  0  0  0
   -7.5197   -2.5245    0.0000 C   0  0  0  0  0  0  0  0  0  0  0  0
   -3.6226   -3.2745    0.0000 C   0  0  0  0  0  0  0  0  0  0  0  0
   -6.2207   -3.2745    0.0000 C   0  0  0  0  0  0  0  0  0  0  0  0
   -8.8187   -3.2745    0.0000 C   0  0  0  0  0  0  0  0  0  0  0  0
   -6.2207   -4.7745    0.0000 C   0  0  0  0  0  0  0  0  0  0  0  0
   -8.8187   -4.7745    0.0000 C   0  0  0  0  0  0  0  0  0  0  0  0
   -7.5197   -5.5245    0.0000 C   0  0  0  0  0  0  0  0  0  0  0  0
  1  3  2  0  0  0  0
  2  3  1  0  0  0  0
  2 11  1  0  0  0  0
  3  4  1  0  0  0  0
  4  7  2  0  0  0  0
  4  5  1  0  0  0  0
  5  6  2  0  0  0  0
  6  8  1  0  0  0  0
  7  9  1  0  0  0  0
  7 10  1  0  0  0  0
  8  9  2  0  0  0  0
 10 11  2  0  0  0  0
 10 17  1  0  0  0  0
 11 12  1  0  0  0  0
 12 16  2  0  0  0  0
 12 13  1  0  0  0  0
 13 14  2  0  0  0  0
 14 15  1  0  0  0  0
 15 18  2  0  0  0  0
 16 18  1  0  0  0  0
 17 19  2  0  0  0  0
 17 20  1  0  0  0  0
 19 21  1  0  0  0  0
 20 22  2  0  0  0  0
 21 23  2  0  0  0  0
 22 23  1  0  0  0  0
M  END
