162915
 OpenBabel03021519512D

 15 17  0  0  0  0  0  0  0  0999 V2000
   -3.1332   -8.4269    0.0000 N   0  0  0  0  0  0  0  0  0  0  0  0
    0.8915   -6.4633    0.0000 N   0  0  0  0  0  0  0  0  0  0  0  0
    2.2821   -2.1836    0.0000 N   0  0  0  0  0  0  0  0  0  0  0  0
    0.8915   -8.8904    0.0000 N   0  0  0  0  0  0  0  0  0  0  0  0
    1.7732   -7.6768    0.0000 N   0  0  0  0  0  0  0  0  0  0  0  0
    3.2858   -3.2983    0.0000 C   0  0  0  0  0  0  0  0  0  0  0  0
    2.8222   -4.7249    0.0000 C   0  0  0  0  0  0  0  0  0  0  0  0
    1.3550   -5.0367    0.0000 C   0  0  0  0  0  0  0  0  0  0  0  0
    0.3513   -3.9220    0.0000 C   0  0  0  0  0  0  0  0  0  0  0  0
    0.8148   -2.4954    0.0000 C   0  0  0  0  0  0  0  0  0  0  0  0
   -1.8341   -6.1769    0.0000 C   0  0  0  0  0  0  0  0  0  0  0  0
   -3.1332   -6.9269    0.0000 C   0  0  0  0  0  0  0  0  0  0  0  0
   -0.5351   -6.9269    0.0000 C   0  0  0  0  0  0  0  0  0  0  0  0
   -0.5351   -8.4268    0.0000 C   0  0  0  0  0  0  0  0  0  0  0  0
   -1.8341   -9.1769    0.0000 C   0  0  0  0  0  0  0  0  0  0  0  0
  1 15  2  0  0  0  0
  1 12  1  0  0  0  0
  2  5  1  0  0  0  0
  2  8  1  0  0  0  0
  2 13  1  0  0  0  0
  3  6  2  0  0  0  0
  3 10  1  0  0  0  0
  4  5  2  0  0  0  0
  4 14  1  0  0  0  0
  6  7  1  0  0  0  0
  7  8  2  0  0  0  0
  8  9  1  0  0  0  0
  9 10  2  0  0  0  0
 11 12  2  0  0  0  0
 11 13  1  0  0  0  0
 13 14  2  0  0  0  0
 14 15  1  0  0  0  0
M  END
