227383
 OpenBabel03021519512D

 15 16  0  0  0  0  0  0  0  0999 V2000
    0.7500    4.1401    0.0000 C   0  0  0  0  0  0  0  0  0  0  0  0
    0.7500    2.6401    0.0000 C   0  0  0  0  0  0  0  0  0  0  0  0
    2.0490    4.8901    0.0000 C   0  0  0  0  0  0  0  0  0  0  0  0
    2.0490    1.8901    0.0000 C   0  0  0  0  0  0  0  0  0  0  0  0
    3.3481    4.1401    0.0000 C   0  0  0  0  0  0  0  0  0  0  0  0
    3.3481    2.6401    0.0000 C   0  0  0  0  0  0  0  0  0  0  0  0
    4.7747    4.6036    0.0000 N   0  0  0  0  0  0  0  0  0  0  0  0
    5.6563    3.3901    0.0000 C   0  0  0  0  0  0  0  0  0  0  0  0
    4.7747    2.1766    0.0000 N   0  0  0  0  0  0  0  0  0  0  0  0
    5.2382    0.7500    0.0000 H   0  0  0  0  0  0  0  0  0  0  0  0
    7.1563    3.3901    0.0000 N   0  0  0  0  0  0  0  0  0  0  0  0
    7.9063    4.6892    0.0000 S   0  0  0  0  0  0  0  0  0  0  0  0
    9.2054    3.9392    0.0000 O   0  0  0  0  0  0  0  0  0  0  0  0
    6.6073    5.4392    0.0000 O   0  0  0  0  0  0  0  0  0  0  0  0
    8.6563    5.9882    0.0000 C   0  0  0  0  0  0  0  0  0  0  0  0
  1  3  2  0  0  0  0
  1  2  1  0  0  0  0
  2  4  2  0  0  0  0
  3  5  1  0  0  0  0
  4  6  1  0  0  0  0
  5  7  1  0  0  0  0
  5  6  2  0  0  0  0
  6  9  1  0  0  0  0
  7  8  2  0  0  0  0
  8  9  1  0  0  0  0
  8 11  1  0  0  0  0
  9 10  1  0  0  0  0
 11 12  1  0  0  0  0
 12 13  2  0  0  0  0
 12 14  2  0  0  0  0
 12 15  1  0  0  0  0
M  END
