15776
 OpenBabel03021519512D

 16 18  0  0  0  0  0  0  0  0999 V2000
   -5.5113   -2.8805    0.0000 C   0  0  0  0  0  0  0  0  0  0  0  0
   -8.1920   -3.4503    0.0000 C   0  0  0  0  0  0  0  0  0  0  0  0
   -4.2978   -3.7622    0.0000 C   0  0  0  0  0  0  0  0  0  0  0  0
   -6.7248   -3.7622    0.0000 C   0  0  0  0  0  0  0  0  0  0  0  0
   -9.1957   -4.5651    0.0000 C   0  0  0  0  0  0  0  0  0  0  0  0
   -6.2613   -5.1888    0.0000 C   0  0  0  0  0  0  0  0  0  0  0  0
   -8.7322   -5.9917    0.0000 C   0  0  0  0  0  0  0  0  0  0  0  0
   -7.2650   -6.3035    0.0000 C   0  0  0  0  0  0  0  0  0  0  0  0
   -4.7613   -5.1888    0.0000 N   0  0  0  0  0  0  0  0  0  0  0  0
   -3.8796   -6.4023    0.0000 H   0  0  0  0  0  0  0  0  0  0  0  0
   -2.8712   -3.2987    0.0000 C   0  0  0  0  0  0  0  0  0  0  0  0
   -2.5593   -1.8315    0.0000 C   0  0  0  0  0  0  0  0  0  0  0  0
   -1.1327   -1.3679    0.0000 C   0  0  0  0  0  0  0  0  0  0  0  0
   -0.0180   -2.3716    0.0000 C   0  0  0  0  0  0  0  0  0  0  0  0
   -0.3299   -3.8388    0.0000 C   0  0  0  0  0  0  0  0  0  0  0  0
   -1.7565   -4.3024    0.0000 C   0  0  0  0  0  0  0  0  0  0  0  0
  1  3  2  0  0  0  0
  1  4  1  0  0  0  0
  2  4  2  0  0  0  0
  2  5  1  0  0  0  0
  3  9  1  0  0  0  0
  3 11  1  0  0  0  0
  4  6  1  0  0  0  0
  5  7  2  0  0  0  0
  6  9  1  0  0  0  0
  6  8  2  0  0  0  0
  7  8  1  0  0  0  0
  9 10  1  0  0  0  0
 11 12  2  0  0  0  0
 11 16  1  0  0  0  0
 12 13  1  0  0  0  0
 13 14  2  0  0  0  0
 14 15  1  0  0  0  0
 15 16  2  0  0  0  0
M  END
