14396
 OpenBabel03021519512D

 21 23  0  0  0  0  0  0  0  0999 V2000
   -1.0200    3.2759    0.0000 O   0  0  0  0  0  0  0  0  0  0  0  0
    0.2821    5.5241    0.0000 N   0  0  0  0  0  0  0  0  0  0  0  0
    1.5780    3.2724    0.0000 N   0  0  0  0  0  0  0  0  0  0  0  0
    1.5842    7.7724    0.0000 O   0  0  0  0  0  0  0  0  0  0  0  0
    4.3074    5.9822    0.0000 N   0  0  0  0  0  0  0  0  0  0  0  0
    4.3040    3.5551    0.0000 N   0  0  0  0  0  0  0  0  0  0  0  0
    1.5821    6.2724    0.0000 C   0  0  0  0  0  0  0  0  0  0  0  0
    2.8801    5.5206    0.0000 C   0  0  0  0  0  0  0  0  0  0  0  0
    2.8781    4.0206    0.0000 C   0  0  0  0  0  0  0  0  0  0  0  0
    6.6909    7.3635    0.0000 C   0  0  0  0  0  0  0  0  0  0  0  0
    7.4391    6.0634    0.0000 C   0  0  0  0  0  0  0  0  0  0  0  0
    7.4427    8.6615    0.0000 C   0  0  0  0  0  0  0  0  0  0  0  0
    8.9427    8.6594    0.0000 C   0  0  0  0  0  0  0  0  0  0  0  0
    8.9391    6.0614    0.0000 C   0  0  0  0  0  0  0  0  0  0  0  0
    9.6909    7.3594    0.0000 C   0  0  0  0  0  0  0  0  0  0  0  0
    5.1874    4.7674    0.0000 C   0  0  0  0  0  0  0  0  0  0  0  0
    0.2800    4.0241    0.0000 C   0  0  0  0  0  0  0  0  0  0  0  0
   -1.0159    6.2759    0.0000 C   0  0  0  0  0  0  0  0  0  0  0  0
    1.5760    1.7724    0.0000 C   0  0  0  0  0  0  0  0  0  0  0  0
    4.7728    7.4081    0.0000 C   0  0  0  0  0  0  0  0  0  0  0  0
    6.6874    4.7654    0.0000 C   0  0  0  0  0  0  0  0  0  0  0  0
  1 17  2  0  0  0  0
  2  7  1  0  0  0  0
  2 17  1  0  0  0  0
  2 18  1  0  0  0  0
  3  9  1  0  0  0  0
  3 17  1  0  0  0  0
  3 19  1  0  0  0  0
  4  7  2  0  0  0  0
  5  8  1  0  0  0  0
  5 16  1  0  0  0  0
  5 20  1  0  0  0  0
  6 16  2  0  0  0  0
  6  9  1  0  0  0  0
  7  8  1  0  0  0  0
  8  9  2  0  0  0  0
 10 12  2  0  0  0  0
 10 11  1  0  0  0  0
 11 14  2  0  0  0  0
 11 21  1  0  0  0  0
 12 13  1  0  0  0  0
 13 15  2  0  0  0  0
 14 15  1  0  0  0  0
 16 21  1  0  0  0  0
M  END
