632536
 OpenBabel03021519512D

 24 26  0  0  0  0  0  0  0  0999 V2000
   -3.0750    3.9682    0.0000 C   0  0  0  0  0  0  0  0  0  0  0  0
   -3.8250    5.2672    0.0000 N   0  0  0  0  0  0  0  0  0  0  0  0
   -3.0750    6.5663    0.0000 C   0  0  0  0  0  0  0  0  0  0  0  0
   -1.5750    6.5663    0.0000 C   0  0  0  0  0  0  0  0  0  0  0  0
   -0.8250    5.2672    0.0000 C   0  0  0  0  0  0  0  0  0  0  0  0
   -1.5750    3.9682    0.0000 C   0  0  0  0  0  0  0  0  0  0  0  0
   -4.4845    7.0793    0.0000 C   0  0  0  0  0  0  0  0  0  0  0  0
   -2.8145    8.0435    0.0000 C   0  0  0  0  0  0  0  0  0  0  0  0
   -4.4845    3.4552    0.0000 C   0  0  0  0  0  0  0  0  0  0  0  0
   -2.8145    2.4910    0.0000 C   0  0  0  0  0  0  0  0  0  0  0  0
    1.4250    6.5663    0.0000 C   0  0  0  0  0  0  0  0  0  0  0  0
    0.6750    7.8653    0.0000 C   0  0  0  0  0  0  0  0  0  0  0  0
    1.4250    9.1644    0.0000 C   0  0  0  0  0  0  0  0  0  0  0  0
    2.9250    9.1644    0.0000 C   0  0  0  0  0  0  0  0  0  0  0  0
    3.6750    7.8653    0.0000 C   0  0  0  0  0  0  0  0  0  0  0  0
    2.9250    6.5663    0.0000 C   0  0  0  0  0  0  0  0  0  0  0  0
    0.6750    5.2672    0.0000 N   0  0  0  0  0  0  0  0  0  0  0  0
    3.6750   10.4634    0.0000 N   0  0  0  0  0  0  0  0  0  0  0  0
    2.9250   11.7624    0.0000 C   0  0  0  0  0  0  0  0  0  0  0  0
    1.4250   11.7624    0.0000 C   0  0  0  0  0  0  0  0  0  0  0  0
    0.6750   13.0615    0.0000 C   0  0  0  0  0  0  0  0  0  0  0  0
    1.4250   14.3605    0.0000 C   0  0  0  0  0  0  0  0  0  0  0  0
    2.9250   14.3605    0.0000 C   0  0  0  0  0  0  0  0  0  0  0  0
    3.6750   13.0615    0.0000 C   0  0  0  0  0  0  0  0  0  0  0  0
  1  2  1  0  0  0  0
  1  6  1  0  0  0  0
  1  9  1  0  0  0  0
  1 10  1  0  0  0  0
  2  3  1  0  0  0  0
  3  4  1  0  0  0  0
  3  7  1  0  0  0  0
  3  8  1  0  0  0  0
  4  5  1  0  0  0  0
  5  6  1  0  0  0  0
  5 17  1  0  0  0  0
 11 12  2  0  0  0  0
 11 16  1  0  0  0  0
 11 17  1  0  0  0  0
 12 13  1  0  0  0  0
 13 14  2  0  0  0  0
 14 15  1  0  0  0  0
 14 18  1  0  0  0  0
 15 16  2  0  0  0  0
 18 19  1  0  0  0  0
 19 20  2  0  0  0  0
 19 24  1  0  0  0  0
 20 21  1  0  0  0  0
 21 22  2  0  0  0  0
 22 23  1  0  0  0  0
 23 24  2  0  0  0  0
M  END
