372499
 OpenBabel03021519512D

 24 27  0  0  1  0  0  0  0  0999 V2000
   -1.0245    4.7745    0.0000 C   0  0  0  0  0  0  0  0  0  0  0  0
   -1.0245    3.2745    0.0000 C   0  0  0  0  0  0  0  0  0  0  0  0
    0.2745    5.5245    0.0000 C   0  0  0  0  0  0  0  0  0  0  0  0
    0.2745    2.5245    0.0000 C   0  0  0  0  0  0  0  0  0  0  0  0
    1.5736    4.7745    0.0000 C   0  0  0  0  0  0  0  0  0  0  0  0
    1.5736    3.2745    0.0000 C   0  0  0  0  0  0  0  0  0  0  0  0
    2.8726    5.5245    0.0000 C   0  0  3  0  0  0  0  0  0  0  0  0
    4.2429    4.9144    0.0000 O   0  0  0  0  0  0  0  0  0  0  0  0
    3.0294    7.0163    0.0000 C   0  0  0  0  0  0  0  0  0  0  0  0
    5.2466    6.0291    0.0000 C   0  0  0  0  0  0  0  0  0  0  0  0
    4.4966    7.3282    0.0000 C   0  0  0  0  0  0  0  0  0  0  0  0
    4.4966    9.9262    0.0000 H   0  0  0  0  0  0  0  0  0  0  0  0
    6.7466    6.0291    0.0000 N   0  0  0  0  0  0  0  0  0  0  0  0
    5.2466    8.6272    0.0000 N   0  0  0  0  0  0  0  0  0  0  0  0
    6.7466    8.6272    0.0000 C   0  0  0  0  0  0  0  0  0  0  0  0
    7.4966    7.3282    0.0000 C   0  0  0  0  0  0  0  0  0  0  0  0
    8.9966    7.3282    0.0000 C   0  0  0  0  0  0  0  0  0  0  0  0
    7.4966    9.9262    0.0000 C   0  0  0  0  0  0  0  0  0  0  0  0
    8.9966    9.9262    0.0000 C   0  0  0  0  0  0  0  0  0  0  0  0
    9.7466    8.6272    0.0000 C   0  0  0  0  0  0  0  0  0  0  0  0
    0.2745    1.0245    0.0000 O   0  0  0  0  0  0  0  0  0  0  0  0
    1.9147    8.0200    0.0000 O   0  0  0  0  0  0  0  0  0  0  0  0
    9.7466   11.2253    0.0000 C   0  0  0  0  0  0  0  0  0  0  0  0
   11.2466    8.6272    0.0000 C   0  0  0  0  0  0  0  0  0  0  0  0
  1  3  1  0  0  0  0
  1  2  2  0  0  0  0
  2  4  1  0  0  0  0
  3  5  2  0  0  0  0
  4  6  2  0  0  0  0
  4 21  1  0  0  0  0
  5  7  1  0  0  0  0
  5  6  1  0  0  0  0
  7  9  1  0  0  0  0
  7  8  1  0  0  0  0
  8 10  1  0  0  0  0
  9 11  2  0  0  0  0
  9 22  1  0  0  0  0
 10 11  1  0  0  0  0
 10 13  2  0  0  0  0
 11 14  1  0  0  0  0
 12 14  1  0  0  0  0
 13 16  1  0  0  0  0
 14 15  1  0  0  0  0
 15 18  1  0  0  0  0
 15 16  2  0  0  0  0
 16 17  1  0  0  0  0
 17 20  2  0  0  0  0
 18 19  2  0  0  0  0
 19 20  1  0  0  0  0
 19 23  1  0  0  0  0
 20 24  1  0  0  0  0
M  END
