60183
 OpenBabel03021519512D

 21 22  0  0  1  0  0  0  0  0999 V2000
   -9.3743   -1.2246    0.0000 O   0  0  0  0  0  0  0  0  0  0  0  0
   -6.7342   -0.8064    0.0000 O   0  0  0  0  0  0  0  0  0  0  0  0
   -5.5207   -1.6881    0.0000 N   0  0  0  0  0  0  0  0  0  0  0  0
   -3.5539    1.3167    0.0000 C   0  0  0  0  0  0  0  0  0  0  0  0
   -4.5576    0.2020    0.0000 C   0  0  0  0  0  0  0  0  0  0  0  0
   -4.0174    2.7433    0.0000 C   0  0  0  0  0  0  0  0  0  0  0  0
   -5.4847    3.0552    0.0000 C   0  0  0  0  0  0  0  0  0  0  0  0
   -6.0248    0.5139    0.0000 C   0  0  0  0  0  0  0  0  0  0  0  0
   -6.4884    1.9404    0.0000 C   0  0  0  0  0  0  0  0  0  0  0  0
   -7.9477   -1.6881    0.0000 C   0  0  0  0  0  0  0  0  0  0  0  0
   -7.4842   -3.1147    0.0000 C   0  0  0  0  0  0  0  0  0  0  0  0
   -5.9842   -3.1147    0.0000 C   0  0  0  0  0  0  0  0  0  0  0  0
   -8.3659   -4.3282    0.0000 C   0  0  3  0  0  0  0  0  0  0  0  0
   -9.8576   -4.1714    0.0000 C   0  0  0  0  0  0  0  0  0  0  0  0
   -7.7558   -5.6985    0.0000 C   0  0  0  0  0  0  0  0  0  0  0  0
  -10.4678   -2.8011    0.0000 C   0  0  0  0  0  0  0  0  0  0  0  0
   -5.1025   -4.3282    0.0000 N   0  0  0  0  0  0  0  0  0  0  0  0
   -4.0941   -1.2246    0.0000 S   0  0  0  0  0  0  0  0  0  0  0  0
   -3.6306   -2.6512    0.0000 O   0  0  0  0  0  0  0  0  0  0  0  0
   -2.6675   -0.7611    0.0000 O   0  0  0  0  0  0  0  0  0  0  0  0
   -5.9482    4.4817    0.0000 C   0  0  0  0  0  0  0  0  0  0  0  0
  1 10  2  0  0  0  0
  2  3  1  0  0  0  0
  2 10  1  0  0  0  0
  3 12  1  0  0  0  0
  3 18  1  0  0  0  0
  4  6  2  0  0  0  0
  4  5  1  0  0  0  0
  5  8  2  0  0  0  0
  5 18  1  0  0  0  0
  6  7  1  0  0  0  0
  7  9  2  0  0  0  0
  7 21  1  0  0  0  0
  8  9  1  0  0  0  0
 10 11  1  0  0  0  0
 11 12  2  0  0  0  0
 11 13  1  0  0  0  0
 12 17  1  0  0  0  0
 13 14  1  0  0  0  0
 13 15  1  0  0  0  0
 14 16  1  0  0  0  0
 18 19  2  0  0  0  0
 18 20  2  0  0  0  0
M  END
