200686
 OpenBabel03021519512D

 10 10  0  0  0  0  0  0  0  0999 V2000
    1.9128    0.6068    0.0000 N   0  0  0  0  0  0  0  0  0  0  0  0
    3.8763    2.0334    0.0000 N   0  0  0  0  0  0  0  0  0  0  0  0
    2.6628    2.9150    0.0000 C   0  0  0  0  0  0  0  0  0  0  0  0
    1.4493    2.0334    0.0000 C   0  0  0  0  0  0  0  0  0  0  0  0
    3.4128    0.6068    0.0000 C   0  0  0  0  0  0  0  0  0  0  0  0
    4.2945   -0.6068    0.0000 C   0  0  0  0  0  0  0  0  0  0  0  0
    5.3029    2.4969    0.0000 C   0  0  0  0  0  0  0  0  0  0  0  0
    6.4176    1.4932    0.0000 C   0  0  0  0  0  0  0  0  0  0  0  0
    7.8442    1.9567    0.0000 C   0  0  0  0  0  0  0  0  0  0  0  0
    8.9589    0.9530    0.0000 C   0  0  0  0  0  0  0  0  0  0  0  0
  1  5  2  0  0  0  0
  1  4  1  0  0  0  0
  2  3  1  0  0  0  0
  2  5  1  0  0  0  0
  2  7  1  0  0  0  0
  3  4  2  0  0  0  0
  5  6  1  0  0  0  0
  7  8  1  0  0  0  0
  8  9  1  0  0  0  0
  9 10  1  0  0  0  0
M  END
