335048
 OpenBabel03021519512D

 18 21  0  0  0  0  0  0  0  0999 V2000
   -2.0248    6.1069    0.0000 C   0  0  0  0  0  0  0  0  0  0  0  0
   -2.0248    4.6069    0.0000 C   0  0  0  0  0  0  0  0  0  0  0  0
   -0.7258    6.8569    0.0000 C   0  0  0  0  0  0  0  0  0  0  0  0
   -0.7258    3.8569    0.0000 C   0  0  0  0  0  0  0  0  0  0  0  0
    0.5732    6.1069    0.0000 C   0  0  0  0  0  0  0  0  0  0  0  0
    0.5732    4.6069    0.0000 C   0  0  0  0  0  0  0  0  0  0  0  0
    1.9998    4.1434    0.0000 C   0  0  0  0  0  0  0  0  0  0  0  0
    2.4634    2.7168    0.0000 O   0  0  0  0  0  0  0  0  0  0  0  0
    1.9998    6.5704    0.0000 C   0  0  0  0  0  0  0  0  0  0  0  0
    2.8815    5.3569    0.0000 N   0  0  0  0  0  0  0  0  0  0  0  0
    2.6099    7.9407    0.0000 C   0  0  0  0  0  0  0  0  0  0  0  0
    4.3733    5.5137    0.0000 C   0  0  0  0  0  0  0  0  0  0  0  0
    1.9998    9.3111    0.0000 C   0  0  0  0  0  0  0  0  0  0  0  0
    4.9834    6.8840    0.0000 C   0  0  0  0  0  0  0  0  0  0  0  0
    4.1017    8.0975    0.0000 C   0  0  0  0  0  0  0  0  0  0  0  0
    4.4136    9.5648    0.0000 N   0  0  0  0  0  0  0  0  0  0  0  0
    3.1145   10.3148    0.0000 N   0  0  0  0  0  0  0  0  0  0  0  0
    0.5326    9.6229    0.0000 O   0  0  0  0  0  0  0  0  0  0  0  0
  1  3  2  0  0  0  0
  1  2  1  0  0  0  0
  2  4  2  0  0  0  0
  3  5  1  0  0  0  0
  4  6  1  0  0  0  0
  5  9  1  0  0  0  0
  5  6  2  0  0  0  0
  6  7  1  0  0  0  0
  7 10  1  0  0  0  0
  7  8  2  0  0  0  0
  9 11  2  0  0  0  0
  9 10  1  0  0  0  0
 10 12  1  0  0  0  0
 11 13  1  0  0  0  0
 11 15  1  0  0  0  0
 12 14  1  0  0  0  0
 13 17  2  0  0  0  0
 13 18  1  0  0  0  0
 14 15  1  0  0  0  0
 15 16  2  0  0  0  0
 16 17  1  0  0  0  0
M  END
