373600
 OpenBabel03021519512D

 27 28  0  0  0  0  0  0  0  0999 V2000
   -5.2273    0.3518    0.0000 O   0  0  0  0  0  0  0  0  0  0  0  0
   -5.3516   -1.6517    0.0000 O   0  0  0  0  0  0  0  0  0  0  0  0
   -4.1769   -0.7190    0.0000 S   0  0  0  0  0  0  0  0  0  0  0  0
   -3.2218    0.4376    0.0000 C   0  0  0  0  0  0  0  0  0  0  0  0
   -3.3721   -1.9848    0.0000 C   0  0  0  0  0  0  0  0  0  0  0  0
   -1.8266   -0.1134    0.0000 C   0  0  0  0  0  0  0  0  0  0  0  0
   -1.9195   -1.6105    0.0000 N   0  0  0  0  0  0  0  0  0  0  0  0
   -0.3741    0.2609    0.0000 C   0  0  0  0  0  0  0  0  0  0  0  0
   -0.5244   -2.1615    0.0000 C   0  0  0  0  0  0  0  0  0  0  0  0
    0.4308   -1.0049    0.0000 C   0  0  0  0  0  0  0  0  0  0  0  0
   -0.7558    2.8308    0.0000 O   0  0  0  0  0  0  0  0  0  0  0  0
   -0.2048    4.2259    0.0000 C   0  0  0  0  0  0  0  0  0  0  0  0
    1.2789    4.4463    0.0000 O   0  0  0  0  0  0  0  0  0  0  0  0
    2.3526   -2.5364    0.0000 O   0  0  0  0  0  0  0  0  0  0  0  0
    4.6788   -1.3792    0.0000 O   0  0  0  0  0  0  0  0  0  0  0  0
    3.8498   -2.6293    0.0000 C   0  0  0  0  0  0  0  0  0  0  0  0
    0.1769    1.6560    0.0000 C   0  0  0  0  0  0  0  0  0  0  0  0
   -0.1501   -3.6141    0.0000 C   0  0  0  0  0  0  0  0  0  0  0  0
    1.9279   -1.0978    0.0000 C   0  0  0  0  0  0  0  0  0  0  0  0
   -1.1375    5.4006    0.0000 N   0  0  0  0  0  0  0  0  0  0  0  0
   -0.5865    6.7958    0.0000 C   0  0  0  0  0  0  0  0  0  0  0  0
    0.8972    7.0162    0.0000 C   0  0  0  0  0  0  0  0  0  0  0  0
   -1.5193    7.9705    0.0000 C   0  0  0  0  0  0  0  0  0  0  0  0
    4.5179   -3.9723    0.0000 N   0  0  0  0  0  0  0  0  0  0  0  0
    3.6889   -5.2224    0.0000 C   0  0  0  0  0  0  0  0  0  0  0  0
    2.1917   -5.1295    0.0000 C   0  0  0  0  0  0  0  0  0  0  0  0
    4.3570   -6.5654    0.0000 C   0  0  0  0  0  0  0  0  0  0  0  0
  1  3  2  0  0  0  0
  2  3  2  0  0  0  0
  3  4  1  0  0  0  0
  3  5  1  0  0  0  0
  4  6  1  0  0  0  0
  5  7  1  0  0  0  0
  6  8  2  0  0  0  0
  6  7  1  0  0  0  0
  7  9  1  0  0  0  0
  8 10  1  0  0  0  0
  8 17  1  0  0  0  0
  9 10  2  0  0  0  0
  9 18  1  0  0  0  0
 10 19  1  0  0  0  0
 11 12  1  0  0  0  0
 11 17  1  0  0  0  0
 12 13  2  0  0  0  0
 12 20  1  0  0  0  0
 14 16  1  0  0  0  0
 14 19  1  0  0  0  0
 15 16  2  0  0  0  0
 16 24  1  0  0  0  0
 20 21  1  0  0  0  0
 21 22  1  0  0  0  0
 21 23  1  0  0  0  0
 24 25  1  0  0  0  0
 25 26  1  0  0  0  0
 25 27  1  0  0  0  0
M  END
