654260
 OpenBabel03021519512D

 34 35  0  0  1  0  0  0  0  0999 V2000
  -11.1423   -9.0000    0.0000 Cl  0  0  0  0  0  0  0  0  0  0  0  0
  -17.6375   -0.7500    0.0000 C   0  0  0  0  0  0  0  0  0  0  0  0
  -18.9365   -1.5000    0.0000 C   0  0  0  0  0  0  0  0  0  0  0  0
  -18.9365   -3.0000    0.0000 C   0  0  0  0  0  0  0  0  0  0  0  0
  -17.6375   -3.7500    0.0000 C   0  0  0  0  0  0  0  0  0  0  0  0
  -16.3385   -3.0000    0.0000 C   0  0  0  0  0  0  0  0  0  0  0  0
  -16.3385   -1.5000    0.0000 C   0  0  0  0  0  0  0  0  0  0  0  0
  -15.0394   -3.7500    0.0000 C   0  0  0  0  0  0  0  0  0  0  0  0
  -15.0394   -5.2500    0.0000 O   0  0  0  0  0  0  0  0  0  0  0  0
  -12.4413   -3.7500    0.0000 C   0  0  0  0  0  0  0  0  0  0  0  0
  -12.4413   -5.2500    0.0000 O   0  0  0  0  0  0  0  0  0  0  0  0
   -9.8433   -3.7500    0.0000 C   0  0  0  0  0  0  0  0  0  0  0  0
   -9.8433   -5.2500    0.0000 C   0  0  0  0  0  0  0  0  0  0  0  0
   -8.5442   -6.0000    0.0000 C   0  0  0  0  0  0  0  0  0  0  0  0
   -7.2452   -5.2500    0.0000 C   0  0  0  0  0  0  0  0  0  0  0  0
   -7.2452   -3.7500    0.0000 C   0  0  0  0  0  0  0  0  0  0  0  0
   -8.5442   -3.0000    0.0000 C   0  0  0  0  0  0  0  0  0  0  0  0
   -5.9462   -6.0000    0.0000 O   0  0  0  0  0  0  0  0  0  0  0  0
   -4.6471   -5.2500    0.0000 C   0  0  0  0  0  0  0  0  0  0  0  0
   -3.3481   -6.0000    0.0000 N   0  0  0  0  0  0  0  0  0  0  0  0
   -2.0490   -5.2500    0.0000 C   0  0  0  0  0  0  0  0  0  0  0  0
   -2.0490   -3.7500    0.0000 C   0  0  0  0  0  0  0  0  0  0  0  0
   -3.3481   -3.0000    0.0000 C   0  0  0  0  0  0  0  0  0  0  0  0
   -4.6471   -3.7500    0.0000 N   0  0  0  0  0  0  0  0  0  0  0  0
   -0.7500   -3.0000    0.0000 Br  0  0  0  0  0  0  0  0  0  0  0  0
  -18.9365   -6.0000    0.0000 C   0  0  0  0  0  0  0  0  0  0  0  0
  -18.9365   -7.5000    0.0000 O   0  0  0  0  0  0  0  0  0  0  0  0
  -20.2356   -5.2500    0.0000 C   0  0  3  0  0  0  0  0  0  0  0  0
   -8.5442   -7.5000    0.0000 C   0  0  0  0  0  0  0  0  0  0  0  0
  -13.7404   -3.0000    0.0000 N   0  0  0  0  0  0  0  0  0  0  0  0
  -11.1423   -3.0000    0.0000 N   0  0  0  0  0  0  0  0  0  0  0  0
  -17.6375   -5.2500    0.0000 N   0  0  0  0  0  0  0  0  0  0  0  0
  -20.2356   -3.7500    0.0000 N   0  0  0  0  0  0  0  0  0  0  0  0
  -21.5346   -6.0000    0.0000 C   0  0  0  0  0  0  0  0  0  0  0  0
  2  3  2  0  0  0  0
  2  7  1  0  0  0  0
  3  4  1  0  0  0  0
  4  5  2  0  0  0  0
  5  6  1  0  0  0  0
  5 32  1  0  0  0  0
  6  7  2  0  0  0  0
  6  8  1  0  0  0  0
  8  9  2  0  0  0  0
  8 30  1  0  0  0  0
 10 11  2  0  0  0  0
 10 30  1  0  0  0  0
 10 31  1  0  0  0  0
 12 13  2  0  0  0  0
 12 17  1  0  0  0  0
 12 31  1  0  0  0  0
 13 14  1  0  0  0  0
 14 15  2  0  0  0  0
 14 29  1  0  0  0  0
 15 16  1  0  0  0  0
 15 18  1  0  0  0  0
 16 17  2  0  0  0  0
 18 19  1  0  0  0  0
 19 20  2  0  0  0  0
 19 24  1  0  0  0  0
 20 21  1  0  0  0  0
 21 22  2  0  0  0  0
 22 23  1  0  0  0  0
 22 25  1  0  0  0  0
 23 24  2  0  0  0  0
 26 27  2  0  0  0  0
 26 28  1  0  0  0  0
 26 32  1  0  0  0  0
 28 33  1  0  0  0  0
 28 34  1  0  0  0  0
M  END
