293360
 OpenBabel03021519512D

 25 27  0  0  1  0  0  0  0  0999 V2000
    1.3230    5.4121    0.0000 O   0  0  0  0  0  0  0  0  0  0  0  0
    3.0863    2.9851    0.0000 C   0  0  0  0  0  0  0  0  0  0  0  0
    3.9680    1.7715    0.0000 C   0  0  0  0  0  0  0  0  0  0  0  0
    3.6964    4.3554    0.0000 C   0  0  0  0  0  0  0  0  0  0  0  0
    5.4598    1.9283    0.0000 C   0  0  0  0  0  0  0  0  0  0  0  0
    2.8147    5.5689    0.0000 C   0  0  0  0  0  0  0  0  0  0  0  0
    5.1882    4.5122    0.0000 C   0  0  0  0  0  0  0  0  0  0  0  0
    6.0699    3.2986    0.0000 C   0  0  0  0  0  0  0  0  0  0  0  0
    6.0699    5.7257    0.0000 O   0  0  0  0  0  0  0  0  0  0  0  0
    7.4965    3.7622    0.0000 C   0  0  3  0  0  0  0  0  0  0  0  0
    7.4965    5.2622    0.0000 C   0  0  0  0  0  0  0  0  0  0  0  0
    8.7955    6.0122    0.0000 C   0  0  0  0  0  0  0  0  0  0  0  0
    8.7955    3.0122    0.0000 C   0  0  0  0  0  0  0  0  0  0  0  0
    8.7955    1.5122    0.0000 O   0  0  0  0  0  0  0  0  0  0  0  0
   10.0946    5.2622    0.0000 C   0  0  0  0  0  0  0  0  0  0  0  0
   10.0946    3.7622    0.0000 C   0  0  0  0  0  0  0  0  0  0  0  0
   11.3936    6.0122    0.0000 O   0  0  0  0  0  0  0  0  0  0  0  0
   11.3936    3.0122    0.0000 C   0  0  0  0  0  0  0  0  0  0  0  0
    1.5945    2.8283    0.0000 O   0  0  0  0  0  0  0  0  0  0  0  0
    3.3579    0.4012    0.0000 C   0  0  0  0  0  0  0  0  0  0  0  0
    6.3415    0.7148    0.0000 O   0  0  0  0  0  0  0  0  0  0  0  0
    3.4249    6.9392    0.0000 C   0  0  0  0  0  0  0  0  0  0  0  0
    7.3397    2.2704    0.0000 C   0  0  0  0  0  0  0  0  0  0  0  0
   11.3936    1.5122    0.0000 C   0  0  0  0  0  0  0  0  0  0  0  0
   12.6926    3.7622    0.0000 N   0  0  0  0  0  0  0  0  0  0  0  0
  1  6  2  0  0  0  0
  2  4  2  0  0  0  0
  2  3  1  0  0  0  0
  2 19  1  0  0  0  0
  3  5  2  0  0  0  0
  3 20  1  0  0  0  0
  4  6  1  0  0  0  0
  4  7  1  0  0  0  0
  5  8  1  0  0  0  0
  5 21  1  0  0  0  0
  6 22  1  0  0  0  0
  7  9  1  0  0  0  0
  7  8  2  0  0  0  0
  8 10  1  0  0  0  0
  9 11  1  0  0  0  0
 10 11  1  0  0  0  0
 10 13  1  0  0  0  0
 10 23  1  0  0  0  0
 11 12  2  0  0  0  0
 12 15  1  0  0  0  0
 13 16  1  0  0  0  0
 13 14  2  0  0  0  0
 15 17  2  0  0  0  0
 15 16  1  0  0  0  0
 16 18  2  0  0  0  0
 18 24  1  0  0  0  0
 18 25  1  0  0  0  0
M  END
