110562
 OpenBabel03021519512D

 16 17  0  0  0  0  0  0  0  0999 V2000
   -5.5712   -2.3505    0.0000 Br  0  0  0  0  0  0  0  0  0  0  0  0
   -2.9731    2.1495    0.0000 N   0  0  0  0  0  0  0  0  0  0  0  0
   -5.5712    2.1495    0.0000 C   0  0  0  0  0  0  0  0  0  0  0  0
   -4.2721    1.3995    0.0000 C   0  0  0  0  0  0  0  0  0  0  0  0
   -6.8702    1.3995    0.0000 C   0  0  0  0  0  0  0  0  0  0  0  0
   -4.2721   -0.1005    0.0000 C   0  0  0  0  0  0  0  0  0  0  0  0
   -6.8702   -0.1005    0.0000 C   0  0  0  0  0  0  0  0  0  0  0  0
   -5.5712   -0.8505    0.0000 C   0  0  0  0  0  0  0  0  0  0  0  0
   -2.9731   -0.8505    0.0000 C   0  0  0  0  0  0  0  0  0  0  0  0
   -1.6740    1.3995    0.0000 C   0  0  0  0  0  0  0  0  0  0  0  0
   -1.6740   -0.1005    0.0000 C   0  0  0  0  0  0  0  0  0  0  0  0
   -7.6202    3.1005    0.0000 C   0  0  0  0  0  0  0  0  0  0  0  0
   -6.8702    4.3995    0.0000 S   0  0  0  0  0  0  0  0  0  0  0  0
   -8.1692    5.1495    0.0000 O   0  0  0  0  0  0  0  0  0  0  0  0
   -6.1202    5.6986    0.0000 O   0  0  0  0  0  0  0  0  0  0  0  0
   -5.5712    3.6495    0.0000 O   0  0  0  0  0  0  0  0  0  0  0  0
  1  8  1  0  0  0  0
  2 10  2  0  0  0  0
  2  4  1  0  0  0  0
  3  5  2  0  0  0  0
  3  4  1  0  0  0  0
  3 16  1  0  0  0  0
  4  6  2  0  0  0  0
  5  7  1  0  0  0  0
  6  8  1  0  0  0  0
  6  9  1  0  0  0  0
  7  8  2  0  0  0  0
  9 11  2  0  0  0  0
 10 11  1  0  0  0  0
 12 13  1  0  0  0  0
 13 14  2  0  0  0  0
 13 15  2  0  0  0  0
 13 16  1  0  0  0  0
M  END
