10173
 OpenBabel03021519512D

 20 21  0  0  1  0  0  0  0  0999 V2000
   -5.9462   -0.7500    0.0000 O   0  0  0  0  0  0  0  0  0  0  0  0
   -5.9462   -2.2500    0.0000 C   0  0  0  0  0  0  0  0  0  0  0  0
   -4.6471   -3.0000    0.0000 C   0  0  0  0  0  0  0  0  0  0  0  0
   -7.2452   -3.0000    0.0000 C   0  0  0  0  0  0  0  0  0  0  0  0
   -8.5442   -2.2500    0.0000 C   0  0  0  0  0  0  0  0  0  0  0  0
   -9.8433   -3.0000    0.0000 C   0  0  0  0  0  0  0  0  0  0  0  0
   -4.6471   -4.5000    0.0000 C   0  0  3  0  0  0  0  0  0  0  0  0
   -7.2452   -4.5000    0.0000 C   0  0  0  0  0  0  0  0  0  0  0  0
   -9.8433   -4.5000    0.0000 C   0  0  0  0  0  0  0  0  0  0  0  0
   -5.9461   -5.2500    0.0000 C   0  0  0  0  0  0  0  0  0  0  0  0
   -8.5442   -5.2500    0.0000 C   0  0  0  0  0  0  0  0  0  0  0  0
  -11.1423   -2.2500    0.0000 O   0  0  0  0  0  0  0  0  0  0  0  0
  -12.4414   -3.0000    0.0000 C   0  0  0  0  0  0  0  0  0  0  0  0
  -11.1423   -5.2500    0.0000 O   0  0  0  0  0  0  0  0  0  0  0  0
  -12.4413   -4.5000    0.0000 C   0  0  0  0  0  0  0  0  0  0  0  0
   -3.3481   -5.2500    0.0000 C   0  0  0  0  0  0  0  0  0  0  0  0
   -2.0490   -4.5000    0.0000 O   0  0  0  0  0  0  0  0  0  0  0  0
   -3.3481   -6.7500    0.0000 O   0  0  0  0  0  0  0  0  0  0  0  0
   -2.0490   -7.5000    0.0000 C   0  0  0  0  0  0  0  0  0  0  0  0
   -0.7500   -6.7500    0.0000 C   0  0  0  0  0  0  0  0  0  0  0  0
  1  2  2  0  0  0  0
  2  3  1  0  0  0  0
  2  4  1  0  0  0  0
  3  7  1  0  0  0  0
  4  8  2  0  0  0  0
  4  5  1  0  0  0  0
  5  6  2  0  0  0  0
  6  9  1  0  0  0  0
  6 12  1  0  0  0  0
  7 10  1  0  0  0  0
  7 16  1  0  0  0  0
  8 11  1  0  0  0  0
  8 10  1  0  0  0  0
  9 11  2  0  0  0  0
  9 14  1  0  0  0  0
 12 13  1  0  0  0  0
 14 15  1  0  0  0  0
 16 17  2  0  0  0  0
 16 18  1  0  0  0  0
 18 19  1  0  0  0  0
 19 20  1  0  0  0  0
M  END
