131388
 OpenBabel03021519512D

 16 17  0  0  0  0  0  0  0  0999 V2000
   -5.4707   -5.5245    0.0000 N   0  0  0  0  0  0  0  0  0  0  0  0
   -5.4707   -4.0245    0.0000 H   0  0  0  0  0  0  0  0  0  0  0  0
   -5.4707  -10.0245    0.0000 O   0  0  0  0  0  0  0  0  0  0  0  0
   -4.1716   -7.7745    0.0000 N   0  0  0  0  0  0  0  0  0  0  0  0
   -2.8726   -5.5245    0.0000 N   0  0  0  0  0  0  0  0  0  0  0  0
   -0.2745   -4.0245    0.0000 N   0  0  0  0  0  0  0  0  0  0  0  0
   -2.8726   -4.0245    0.0000 C   0  0  0  0  0  0  0  0  0  0  0  0
   -1.5736   -3.2745    0.0000 C   0  0  0  0  0  0  0  0  0  0  0  0
   -4.1716   -6.2745    0.0000 C   0  0  0  0  0  0  0  0  0  0  0  0
   -6.7697   -6.2745    0.0000 C   0  0  0  0  0  0  0  0  0  0  0  0
   -6.7697   -7.7745    0.0000 C   0  0  0  0  0  0  0  0  0  0  0  0
   -5.4707   -8.5245    0.0000 C   0  0  0  0  0  0  0  0  0  0  0  0
   -1.5735   -6.2745    0.0000 C   0  0  0  0  0  0  0  0  0  0  0  0
   -0.2745   -5.5245    0.0000 C   0  0  0  0  0  0  0  0  0  0  0  0
   -8.0687   -5.5245    0.0000 N   0  0  0  0  0  0  0  0  0  0  0  0
    1.0245   -3.2745    0.0000 C   0  0  0  0  0  0  0  0  0  0  0  0
  1  9  1  0  0  0  0
  1 10  1  0  0  0  0
  1  2  1  0  0  0  0
  3 12  2  0  0  0  0
  4  9  2  0  0  0  0
  4 12  1  0  0  0  0
  5  7  1  0  0  0  0
  5  9  1  0  0  0  0
  5 13  1  0  0  0  0
  6  8  1  0  0  0  0
  6 14  1  0  0  0  0
  6 16  1  0  0  0  0
  7  8  1  0  0  0  0
 10 11  2  0  0  0  0
 10 15  1  0  0  0  0
 11 12  1  0  0  0  0
 13 14  1  0  0  0  0
M  END
