23906
 OpenBabel03021519512D

 14 14  0  0  0  0  0  0  0  0999 V2000
   -6.2207    1.2255    0.0000 C   0  0  0  0  0  0  0  0  0  0  0  0
   -8.8187    1.2255    0.0000 C   0  0  0  0  0  0  0  0  0  0  0  0
   -8.8187   -0.2745    0.0000 C   0  0  0  0  0  0  0  0  0  0  0  0
   -7.5197   -1.0245    0.0000 C   0  0  0  0  0  0  0  0  0  0  0  0
  -10.1178    1.9754    0.0000 Cl  0  0  0  0  0  0  0  0  0  0  0  0
   -8.8187   -3.2746    0.0000 H   0  0  0  0  0  0  0  0  0  0  0  0
   -7.5197    1.9755    0.0000 N   0  0  0  0  0  0  0  0  0  0  0  0
   -7.5197   -2.5245    0.0000 N   0  0  0  0  0  0  0  0  0  0  0  0
   -6.2207   -0.2745    0.0000 N   0  0  0  0  0  0  0  0  0  0  0  0
   -6.2207   -3.2745    0.0000 C   0  0  0  0  0  0  0  0  0  0  0  0
   -4.9216   -2.5245    0.0000 C   0  0  0  0  0  0  0  0  0  0  0  0
   -3.6226   -3.2745    0.0000 C   0  0  0  0  0  0  0  0  0  0  0  0
   -2.3236   -2.5245    0.0000 C   0  0  0  0  0  0  0  0  0  0  0  0
   -4.9216    1.9755    0.0000 N   0  0  0  0  0  0  0  0  0  0  0  0
  1  7  2  0  0  0  0
  1  9  1  0  0  0  0
  1 14  1  0  0  0  0
  2  7  1  0  0  0  0
  2  5  1  0  0  0  0
  2  3  2  0  0  0  0
  3  4  1  0  0  0  0
  4  9  2  0  0  0  0
  4  8  1  0  0  0  0
  6  8  1  0  0  0  0
  8 10  1  0  0  0  0
 10 11  1  0  0  0  0
 11 12  1  0  0  0  0
 12 13  1  0  0  0  0
M  END
