335649
 OpenBabel03021519512D

 13 14  0  0  0  0  0  0  0  0999 V2000
    2.2500    3.7500    0.0000 C   0  0  0  0  0  0  0  0  0  0  0  0
    3.1317    4.9635    0.0000 N   0  0  0  0  0  0  0  0  0  0  0  0
    3.1317    2.5365    0.0000 N   0  0  0  0  0  0  0  0  0  0  0  0
    4.5583    4.5000    0.0000 C   0  0  0  0  0  0  0  0  0  0  0  0
    4.5583    3.0000    0.0000 N   0  0  0  0  0  0  0  0  0  0  0  0
    5.8573    6.7500    0.0000 H   0  0  0  0  0  0  0  0  0  0  0  0
    5.8573    5.2500    0.0000 N   0  0  0  0  0  0  0  0  0  0  0  0
    5.8573    2.2500    0.0000 C   0  0  0  0  0  0  0  0  0  0  0  0
    5.8573    0.7500    0.0000 O   0  0  0  0  0  0  0  0  0  0  0  0
    7.1563    3.0000    0.0000 C   0  0  0  0  0  0  0  0  0  0  0  0
    7.1563    4.5000    0.0000 N   0  0  0  0  0  0  0  0  0  0  0  0
    0.7500    3.7500    0.0000 N   0  0  0  0  0  0  0  0  0  0  0  0
    8.4554    2.2500    0.0000 C   0  0  0  0  0  0  0  0  0  0  0  0
  1  2  1  0  0  0  0
  1  3  2  0  0  0  0
  1 12  1  0  0  0  0
  2  4  2  0  0  0  0
  3  5  1  0  0  0  0
  4  7  1  0  0  0  0
  4  5  1  0  0  0  0
  5  8  1  0  0  0  0
  6  7  1  0  0  0  0
  7 11  1  0  0  0  0
  8 10  1  0  0  0  0
  8  9  2  0  0  0  0
 10 11  2  0  0  0  0
 10 13  1  0  0  0  0
M  END
