19063
 OpenBabel03021519512D

 16 17  0  0  0  0  0  0  0  0999 V2000
   -7.1563   -3.0000    0.0000 N   0  0  0  0  0  0  0  0  0  0  0  0
   -5.8573   -5.2500    0.0000 N   0  0  0  0  0  0  0  0  0  0  0  0
   -5.8573   -0.7500    0.0000 S   0  0  0  0  0  0  0  0  0  0  0  0
   -5.8573   -6.7500    0.0000 H   0  0  0  0  0  0  0  0  0  0  0  0
   -3.1317   -2.5365    0.0000 N   0  0  0  0  0  0  0  0  0  0  0  0
   -2.6682   -1.1099    0.0000 H   0  0  0  0  0  0  0  0  0  0  0  0
   -3.1317   -4.9635    0.0000 N   0  0  0  0  0  0  0  0  0  0  0  0
   -2.6681   -6.3901    0.0000 H   0  0  0  0  0  0  0  0  0  0  0  0
   -0.7500   -3.7500    0.0000 S   0  0  0  0  0  0  0  0  0  0  0  0
   -5.8573   -2.2500    0.0000 C   0  0  0  0  0  0  0  0  0  0  0  0
   -4.5583   -3.0000    0.0000 C   0  0  0  0  0  0  0  0  0  0  0  0
   -4.5583   -4.5000    0.0000 C   0  0  0  0  0  0  0  0  0  0  0  0
   -2.2500   -3.7500    0.0000 C   0  0  0  0  0  0  0  0  0  0  0  0
   -7.1563   -4.5000    0.0000 C   0  0  0  0  0  0  0  0  0  0  0  0
   -8.4554   -5.2500    0.0000 S   0  0  0  0  0  0  0  0  0  0  0  0
   -9.7544   -4.5000    0.0000 C   0  0  0  0  0  0  0  0  0  0  0  0
  1 14  2  0  0  0  0
  1 10  1  0  0  0  0
  2 12  1  0  0  0  0
  2 14  1  0  0  0  0
  2  4  1  0  0  0  0
  3 10  2  0  0  0  0
  5 11  1  0  0  0  0
  5 13  1  0  0  0  0
  5  6  1  0  0  0  0
  7 12  1  0  0  0  0
  7 13  1  0  0  0  0
  7  8  1  0  0  0  0
  9 13  2  0  0  0  0
 10 11  1  0  0  0  0
 11 12  2  0  0  0  0
 14 15  1  0  0  0  0
 15 16  1  0  0  0  0
M  END
