343256
 OpenBabel03021519512D

 36 38  0  0  1  0  0  0  0  0999 V2000
   10.3635  -10.5887    0.0000 O   0  0  0  0  0  0  0  0  0  0  0  0
    9.9050   -7.9553    0.0000 C   0  0  0  0  0  0  0  0  0  0  0  0
   10.8052   -9.1552    0.0000 C   0  0  3  0  0  0  0  0  0  0  0  0
   12.2245   -8.6699    0.0000 C   0  0  0  0  0  0  0  0  0  0  0  0
    9.5059   -6.3798    0.0000 C   0  0  0  0  0  0  0  0  0  0  0  0
   10.7681   -6.7284    0.0000 C   0  0  3  0  0  0  0  0  0  0  0  0
   12.2016   -7.1701    0.0000 C   0  0  0  0  0  0  0  0  0  0  0  0
    8.7196   -5.3328    0.0000 C   0  0  0  0  0  0  0  0  0  0  0  0
   13.4407   -6.3246    0.0000 C   0  0  0  0  0  0  0  0  0  0  0  0
   14.7400   -7.0741    0.0000 O   0  0  0  0  0  0  0  0  0  0  0  0
   13.5523   -4.8288    0.0000 C   0  0  0  0  0  0  0  0  0  0  0  0
    7.9691   -4.0340    0.0000 C   0  0  0  0  0  0  0  0  0  0  0  0
   12.4523   -3.8089    0.0000 C   0  0  3  0  0  0  0  0  0  0  0  0
    6.4691   -4.0345    0.0000 C   0  0  0  0  0  0  0  0  0  0  0  0
   10.9692   -4.0330    0.0000 C   0  0  0  0  0  0  0  0  0  0  0  0
    5.7187   -2.7358    0.0000 C   0  0  0  0  0  0  0  0  0  0  0  0
    4.2187   -2.7363    0.0000 C   0  0  0  0  0  0  0  0  0  0  0  0
   10.2187   -2.7342    0.0000 C   0  0  0  0  0  0  0  0  0  0  0  0
    1.9683   -1.4380    0.0000 O   0  0  0  0  0  0  0  0  0  0  0  0
    3.4683   -1.4375    0.0000 C   0  0  0  0  0  0  0  0  0  0  0  0
    4.2178   -0.1382    0.0000 N   0  0  0  0  0  0  0  0  0  0  0  0
    3.4674    1.1606    0.0000 H   0  0  0  0  0  0  0  0  0  0  0  0
    7.9683   -1.4359    0.0000 C   0  0  0  0  0  0  0  0  0  0  0  0
    8.7187   -2.7347    0.0000 C   0  0  0  0  0  0  0  0  0  0  0  0
    6.4683   -1.4365    0.0000 C   0  0  0  0  0  0  0  0  0  0  0  0
    5.7178   -0.1377    0.0000 C   0  0  3  0  0  0  0  0  0  0  0  0
    8.9012  -10.9230    0.0000 C   0  0  0  0  0  0  0  0  0  0  0  0
   13.4514   -9.5329    0.0000 O   0  0  0  0  0  0  0  0  0  0  0  0
    7.9700   -6.6321    0.0000 C   0  0  0  0  0  0  0  0  0  0  0  0
   12.8940   -2.3754    0.0000 O   0  0  0  0  0  0  0  0  0  0  0  0
    6.4674    1.1616    0.0000 C   0  0  0  0  0  0  0  0  0  0  0  0
    5.7169    2.4604    0.0000 C   0  0  0  0  0  0  0  0  0  0  0  0
    6.4665    3.7597    0.0000 C   0  0  0  0  0  0  0  0  0  0  0  0
    7.9665    3.7602    0.0000 C   0  0  0  0  0  0  0  0  0  0  0  0
    8.7169    2.4614    0.0000 C   0  0  0  0  0  0  0  0  0  0  0  0
    7.9674    1.1621    0.0000 C   0  0  0  0  0  0  0  0  0  0  0  0
  1  3  1  0  0  0  0
  1 27  1  0  0  0  0
  2  6  1  0  0  0  0
  2  3  1  0  0  0  0
  3  4  1  0  0  0  0
  4  7  2  0  0  0  0
  4 28  1  0  0  0  0
  5  8  2  0  0  0  0
  5  6  1  0  0  0  0
  6  7  1  0  0  0  0
  7  9  1  0  0  0  0
  8 12  1  0  0  0  0
  8 29  1  0  0  0  0
  9 11  1  0  0  0  0
  9 10  2  0  0  0  0
 11 13  1  0  0  0  0
 12 14  2  0  0  0  0
 13 15  1  0  0  0  0
 13 30  1  0  0  0  0
 14 16  1  0  0  0  0
 15 18  1  0  0  0  0
 16 17  2  0  0  0  0
 17 20  1  0  0  0  0
 18 24  1  0  0  0  0
 19 20  2  0  0  0  0
 20 21  1  0  0  0  0
 21 22  1  0  0  0  0
 21 26  1  0  0  0  0
 23 25  1  0  0  0  0
 23 24  2  0  0  0  0
 25 26  1  0  0  0  0
 26 31  1  0  0  0  0
 31 32  2  0  0  0  0
 31 36  1  0  0  0  0
 32 33  1  0  0  0  0
 33 34  2  0  0  0  0
 34 35  1  0  0  0  0
 35 36  2  0  0  0  0
M  END
