64672
 OpenBabel03021519512D

 27 29  0  0  0  0  0  0  0  0999 V2000
  -12.1049  -10.9683    0.0000 O   0  0  0  0  0  0  0  0  0  0  0  0
  -10.8059   -8.7183    0.0000 N   0  0  0  0  0  0  0  0  0  0  0  0
   -9.5068   -6.4683    0.0000 O   0  0  0  0  0  0  0  0  0  0  0  0
   -9.5068  -10.9683    0.0000 N   0  0  0  0  0  0  0  0  0  0  0  0
   -6.3177   -6.8282    0.0000 H   0  0  0  0  0  0  0  0  0  0  0  0
   -6.7812   -8.2548    0.0000 N   0  0  0  0  0  0  0  0  0  0  0  0
   -6.7812  -10.6818    0.0000 N   0  0  0  0  0  0  0  0  0  0  0  0
   -6.3177  -12.1084    0.0000 H   0  0  0  0  0  0  0  0  0  0  0  0
   -9.5068   -7.9683    0.0000 C   0  0  0  0  0  0  0  0  0  0  0  0
   -8.2078   -8.7183    0.0000 C   0  0  0  0  0  0  0  0  0  0  0  0
   -8.2078  -10.2183    0.0000 C   0  0  0  0  0  0  0  0  0  0  0  0
   -2.1495   -5.5712    0.0000 C   0  0  0  0  0  0  0  0  0  0  0  0
   -1.3995   -4.2721    0.0000 C   0  0  0  0  0  0  0  0  0  0  0  0
   -1.3995   -6.8702    0.0000 C   0  0  0  0  0  0  0  0  0  0  0  0
    0.1005   -4.2721    0.0000 C   0  0  0  0  0  0  0  0  0  0  0  0
    0.1005   -6.8702    0.0000 C   0  0  0  0  0  0  0  0  0  0  0  0
    0.8505   -5.5712    0.0000 C   0  0  0  0  0  0  0  0  0  0  0  0
   -5.8995   -9.4683    0.0000 C   0  0  0  0  0  0  0  0  0  0  0  0
  -10.8059  -10.2183    0.0000 C   0  0  0  0  0  0  0  0  0  0  0  0
  -12.1049   -7.9683    0.0000 C   0  0  0  0  0  0  0  0  0  0  0  0
   -9.5068  -12.4683    0.0000 C   0  0  0  0  0  0  0  0  0  0  0  0
   -4.3995   -9.4683    0.0000 N   0  0  0  0  0  0  0  0  0  0  0  0
   -3.6495   -8.1692    0.0000 N   0  0  0  0  0  0  0  0  0  0  0  0
   -2.1495   -8.1692    0.0000 C   0  0  0  0  0  0  0  0  0  0  0  0
    0.8505   -2.9731    0.0000 O   0  0  0  0  0  0  0  0  0  0  0  0
   -2.1495   -2.9731    0.0000 O   0  0  0  0  0  0  0  0  0  0  0  0
   -1.3995   -1.6740    0.0000 C   0  0  0  0  0  0  0  0  0  0  0  0
  1 19  2  0  0  0  0
  2  9  1  0  0  0  0
  2 19  1  0  0  0  0
  2 20  1  0  0  0  0
  3  9  2  0  0  0  0
  4 11  1  0  0  0  0
  4 19  1  0  0  0  0
  4 21  1  0  0  0  0
  5  6  1  0  0  0  0
  6 10  1  0  0  0  0
  6 18  1  0  0  0  0
  7 11  1  0  0  0  0
  7 18  1  0  0  0  0
  7  8  1  0  0  0  0
  9 10  1  0  0  0  0
 10 11  2  0  0  0  0
 12 14  2  0  0  0  0
 12 13  1  0  0  0  0
 13 15  2  0  0  0  0
 13 26  1  0  0  0  0
 14 16  1  0  0  0  0
 14 24  1  0  0  0  0
 15 17  1  0  0  0  0
 15 25  1  0  0  0  0
 16 17  2  0  0  0  0
 18 22  2  0  0  0  0
 22 23  1  0  0  0  0
 23 24  2  0  0  0  0
 26 27  1  0  0  0  0
M  END
