351674
 OpenBabel03021519512D

 22 24  0  0  1  0  0  0  0  0999 V2000
    3.6495    2.2231    0.0000 C   0  0  0  0  0  0  0  0  0  0  0  0
    4.3995    3.5221    0.0000 C   0  0  0  0  0  0  0  0  0  0  0  0
    4.3995    0.9240    0.0000 C   0  0  0  0  0  0  0  0  0  0  0  0
    5.8995    3.5221    0.0000 C   0  0  0  0  0  0  0  0  0  0  0  0
    5.8995    0.9240    0.0000 C   0  0  0  0  0  0  0  0  0  0  0  0
    6.6495    2.2231    0.0000 C   0  0  0  0  0  0  0  0  0  0  0  0
    8.1495    2.2231    0.0000 C   0  0  3  0  0  0  0  0  0  0  0  0
    8.8995    3.5221    0.0000 C   0  0  0  0  0  0  0  0  0  0  0  0
    8.8995    0.9241    0.0000 N   0  0  0  0  0  0  0  0  0  0  0  0
   10.3995    3.5221    0.0000 C   0  0  0  0  0  0  0  0  0  0  0  0
   10.3995    0.9241    0.0000 C   0  0  0  0  0  0  0  0  0  0  0  0
   11.1495    2.2231    0.0000 C   0  0  0  0  0  0  0  0  0  0  0  0
    2.1495    2.2231    0.0000 C   0  0  0  0  0  0  0  0  0  0  0  0
    8.1495   -0.3750    0.0000 C   0  0  0  0  0  0  0  0  0  0  0  0
    8.8995   -1.6740    0.0000 C   0  0  0  0  0  0  0  0  0  0  0  0
   10.3995   -1.6740    0.0000 C   0  0  0  0  0  0  0  0  0  0  0  0
   11.1495   -2.9731    0.0000 C   0  0  0  0  0  0  0  0  0  0  0  0
   10.3995   -4.2721    0.0000 C   0  0  0  0  0  0  0  0  0  0  0  0
    8.8995   -4.2721    0.0000 C   0  0  0  0  0  0  0  0  0  0  0  0
    8.1495   -2.9731    0.0000 C   0  0  0  0  0  0  0  0  0  0  0  0
   12.6495    2.2231    0.0000 C   0  0  0  0  0  0  0  0  0  0  0  0
   14.1495    2.2231    0.0000 N   0  0  0  0  0  0  0  0  0  0  0  0
  1  2  1  0  0  0  0
  1  3  2  0  0  0  0
  1 13  1  0  0  0  0
  2  4  2  0  0  0  0
  3  5  1  0  0  0  0
  4  6  1  0  0  0  0
  5  6  2  0  0  0  0
  6  7  1  0  0  0  0
  7  8  1  0  0  0  0
  7  9  1  0  0  0  0
  8 10  2  0  0  0  0
  9 11  1  0  0  0  0
  9 14  1  0  0  0  0
 10 12  1  0  0  0  0
 11 12  2  0  0  0  0
 12 21  1  0  0  0  0
 14 15  1  0  0  0  0
 15 16  2  0  0  0  0
 15 20  1  0  0  0  0
 16 17  1  0  0  0  0
 17 18  2  0  0  0  0
 18 19  1  0  0  0  0
 19 20  2  0  0  0  0
 21 22  3  0  0  0  0
M  END
