22070
 OpenBabel03021519512D

 22 24  0  0  1  0  0  0  0  0999 V2000
    0.9192    4.8140    0.0000 C   0  0  0  0  0  0  0  0  0  0  0  0
    0.1692    6.1130    0.0000 C   0  0  3  0  0  0  0  0  0  0  0  0
   -1.1299    6.8630    0.0000 C   0  0  3  0  0  0  0  0  0  0  0  0
   -1.1299    5.3630    0.0000 O   0  0  0  0  0  0  0  0  0  0  0  0
    1.4682    6.8630    0.0000 C   0  0  0  0  0  0  0  0  0  0  0  0
   -1.1299    8.3630    0.0000 C   0  0  0  0  0  0  0  0  0  0  0  0
    2.7672    6.1131    0.0000 C   0  0  3  0  0  0  0  0  0  0  0  0
    0.1692    9.1130    0.0000 C   0  0  0  0  0  0  0  0  0  0  0  0
    4.0663    6.8631    0.0000 C   0  0  3  0  0  0  0  0  0  0  0  0
    3.0791    4.6458    0.0000 O   0  0  0  0  0  0  0  0  0  0  0  0
    1.4682    8.3630    0.0000 C   0  0  0  0  0  0  0  0  0  0  0  0
    4.0663    8.3631    0.0000 C   0  0  3  0  0  0  0  0  0  0  0  0
    5.1810    5.8594    0.0000 C   0  0  0  0  0  0  0  0  0  0  0  0
    4.5709    4.4890    0.0000 C   0  0  0  0  0  0  0  0  0  0  0  0
    1.4682    6.8630    0.0000 C   0  0  0  0  0  0  0  0  0  0  0  0
    2.7672    9.1130    0.0000 C   0  0  0  0  0  0  0  0  0  0  0  0
    5.3653    9.1131    0.0000 O   0  0  0  0  0  0  0  0  0  0  0  0
    6.6482    6.1712    0.0000 C   0  0  0  0  0  0  0  0  0  0  0  0
    5.3209    3.1900    0.0000 O   0  0  0  0  0  0  0  0  0  0  0  0
    5.3653   10.6131    0.0000 C   0  0  0  0  0  0  0  0  0  0  0  0
    6.6644   11.3631    0.0000 C   0  0  0  0  0  0  0  0  0  0  0  0
    4.0663   11.3631    0.0000 O   0  0  0  0  0  0  0  0  0  0  0  0
  1  2  1  0  0  0  0
  2  3  1  0  0  0  0
  2  4  1  0  0  0  0
  2  5  1  0  0  0  0
  3  6  1  0  0  0  0
  3  4  1  0  0  0  0
  5  7  1  0  0  0  0
  6  8  1  0  0  0  0
  7  9  1  0  0  0  0
  7 10  1  0  0  0  0
  8 11  1  0  0  0  0
  9 12  1  0  0  0  0
  9 13  1  0  0  0  0
 10 14  1  0  0  0  0
 11 15  1  0  0  0  0
 11 16  2  0  0  0  0
 12 17  1  0  0  0  0
 12 16  1  0  0  0  0
 13 18  2  0  0  0  0
 13 14  1  0  0  0  0
 14 19  2  0  0  0  0
 17 20  1  0  0  0  0
 20 21  1  0  0  0  0
 20 22  2  0  0  0  0
M  END
