353451
 OpenBabel03021519512D

 16 17  0  0  0  0  0  0  0  0999 V2000
   -2.6769    0.8954    0.0000 N   0  0  0  0  0  0  0  0  0  0  0  0
   -2.2864   -0.5529    0.0000 C   0  0  0  0  0  0  0  0  0  0  0  0
   -3.2285   -1.7201    0.0000 C   0  0  0  0  0  0  0  0  0  0  0  0
   -1.4202    1.7143    0.0000 C   0  0  0  0  0  0  0  0  0  0  0  0
   -2.6888   -3.1196    0.0000 O   0  0  0  0  0  0  0  0  0  0  0  0
   -0.2530    0.7722    0.0000 N   0  0  0  0  0  0  0  0  0  0  0  0
   -0.7883   -0.6290    0.0000 C   0  0  0  0  0  0  0  0  0  0  0  0
    0.1575   -1.7933    0.0000 N   0  0  0  0  0  0  0  0  0  0  0  0
    1.2282    1.0092    0.0000 C   0  0  0  0  0  0  0  0  0  0  0  0
    1.7635    2.4104    0.0000 O   0  0  0  0  0  0  0  0  0  0  0  0
    1.6387   -1.5563    0.0000 N   0  0  0  0  0  0  0  0  0  0  0  0
    2.1740   -0.1551    0.0000 N   0  0  0  0  0  0  0  0  0  0  0  0
    3.2447    2.6474    0.0000 Cl  0  0  0  0  0  0  0  0  0  0  0  0
   -4.7104   -1.4878    0.0000 N   0  0  0  0  0  0  0  0  0  0  0  0
    3.6552    0.0819    0.0000 C   0  0  0  0  0  0  0  0  0  0  0  0
    4.1905    1.4831    0.0000 C   0  0  0  0  0  0  0  0  0  0  0  0
  1  4  2  0  0  0  0
  1  2  1  0  0  0  0
  2  7  2  0  0  0  0
  2  3  1  0  0  0  0
  3  5  2  0  0  0  0
  3 14  1  0  0  0  0
  4  6  1  0  0  0  0
  6  9  1  0  0  0  0
  6  7  1  0  0  0  0
  7  8  1  0  0  0  0
  8 11  2  0  0  0  0
  9 10  2  0  0  0  0
  9 12  1  0  0  0  0
 11 12  1  0  0  0  0
 12 15  1  0  0  0  0
 13 16  1  0  0  0  0
 15 16  1  0  0  0  0
M  END
