366808
 OpenBabel03021519512D

 13 14  0  0  0  0  0  0  0  0999 V2000
    0.7500    4.1401    0.0000 C   0  0  0  0  0  0  0  0  0  0  0  0
    0.7500    2.6401    0.0000 C   0  0  0  0  0  0  0  0  0  0  0  0
    2.1766    2.1766    0.0000 S   0  0  0  0  0  0  0  0  0  0  0  0
    3.0583    3.3901    0.0000 C   0  0  0  0  0  0  0  0  0  0  0  0
    2.1766    4.6036    0.0000 C   0  0  0  0  0  0  0  0  0  0  0  0
    4.5583    3.3901    0.0000 C   0  0  0  0  0  0  0  0  0  0  0  0
    5.4399    4.6036    0.0000 N   0  0  0  0  0  0  0  0  0  0  0  0
    5.4399    2.1766    0.0000 N   0  0  0  0  0  0  0  0  0  0  0  0
    4.9764    0.7500    0.0000 H   0  0  0  0  0  0  0  0  0  0  0  0
    6.8665    4.1401    0.0000 N   0  0  0  0  0  0  0  0  0  0  0  0
    6.8665    2.6401    0.0000 C   0  0  0  0  0  0  0  0  0  0  0  0
    8.0801    1.7584    0.0000 S   0  0  0  0  0  0  0  0  0  0  0  0
    9.4504    2.3685    0.0000 C   0  0  0  0  0  0  0  0  0  0  0  0
  1  5  1  0  0  0  0
  1  2  2  0  0  0  0
  2  3  1  0  0  0  0
  3  4  1  0  0  0  0
  4  5  2  0  0  0  0
  4  6  1  0  0  0  0
  6  7  2  0  0  0  0
  6  8  1  0  0  0  0
  7 10  1  0  0  0  0
  8 11  1  0  0  0  0
  8  9  1  0  0  0  0
 10 11  2  0  0  0  0
 11 12  1  0  0  0  0
 12 13  1  0  0  0  0
M  END
