123527
 OpenBabel03021519512D

 30 34  0  0  1  0  0  0  0  0999 V2000
   -0.6014    0.3252    0.0000 S   0  0  0  0  0  0  0  0  0  0  0  0
    2.5581    3.6579    0.0000 C   0  0  0  0  0  0  0  0  0  0  0  0
    3.4288    2.4364    0.0000 C   0  0  0  0  0  0  0  0  0  0  0  0
    1.0649    3.5145    0.0000 C   0  0  0  0  0  0  0  0  0  0  0  0
    0.1942    4.7359    0.0000 C   0  0  0  0  0  0  0  0  0  0  0  0
   -1.2989    4.5926    0.0000 C   0  0  0  0  0  0  0  0  0  0  0  0
    2.8064    1.0717    0.0000 C   0  0  0  0  0  0  0  0  0  0  0  0
    0.4425    2.1498    0.0000 C   0  0  0  0  0  0  0  0  0  0  0  0
   -1.9213    3.2278    0.0000 C   0  0  0  0  0  0  0  0  0  0  0  0
    1.3132    0.9283    0.0000 C   0  0  0  0  0  0  0  0  0  0  0  0
   -1.0506    2.0064    0.0000 C   0  0  0  0  0  0  0  0  0  0  0  0
    0.6908   -0.4364    0.0000 C   0  0  3  0  0  0  0  0  0  0  0  0
   -0.2018   -1.6420    0.0000 C   0  0  0  0  0  0  0  0  0  0  0  0
    2.1132   -0.9128    0.0000 C   0  0  0  0  0  0  0  0  0  0  0  0
    3.4189   -0.1745    0.0000 C   0  0  0  0  0  0  0  0  0  0  0  0
    4.7111   -0.9362    0.0000 C   0  0  0  0  0  0  0  0  0  0  0  0
   -1.6949   -1.7853    0.0000 C   0  0  0  0  0  0  0  0  0  0  0  0
   -2.3173   -3.1501    0.0000 C   0  0  0  0  0  0  0  0  0  0  0  0
    4.6976   -2.4361    0.0000 C   0  0  0  0  0  0  0  0  0  0  0  0
    2.0996   -2.4127    0.0000 C   0  0  0  0  0  0  0  0  0  0  0  0
    0.6689   -2.8634    0.0000 C   0  0  0  0  0  0  0  0  0  0  0  0
   -1.4466   -4.3715    0.0000 C   0  0  0  0  0  0  0  0  0  0  0  0
    3.3919   -3.1744    0.0000 C   0  0  0  0  0  0  0  0  0  0  0  0
    0.0465   -4.2282    0.0000 C   0  0  0  0  0  0  0  0  0  0  0  0
   -4.5051   -0.3896    0.0000 C   0  0  0  0  0  0  0  0  0  0  0  0
   -5.7974    0.3720    0.0000 O   0  0  0  0  0  0  0  0  0  0  0  0
   -4.5187   -1.8896    0.0000 O   0  0  0  0  0  0  0  0  0  0  0  0
   -3.1994    0.3486    0.0000 C   0  0  3  0  0  0  0  0  0  0  0  0
   -3.1859    1.8486    0.0000 N   0  0  0  0  0  0  0  0  0  0  0  0
   -1.9072   -0.4130    0.0000 C   0  0  0  0  0  0  0  0  0  0  0  0
  1 12  1  0  0  0  0
  1 30  1  0  0  0  0
  2  3  2  0  0  0  0
  2  4  1  0  0  0  0
  3  7  1  0  0  0  0
  4  8  2  0  0  0  0
  4  5  1  0  0  0  0
  5  6  2  0  0  0  0
  6  9  1  0  0  0  0
  7 10  2  0  0  0  0
  8 10  1  0  0  0  0
  8 11  1  0  0  0  0
  9 11  2  0  0  0  0
 10 12  1  0  0  0  0
 12 13  1  0  0  0  0
 12 14  1  0  0  0  0
 13 21  2  0  0  0  0
 13 17  1  0  0  0  0
 14 20  2  0  0  0  0
 14 15  1  0  0  0  0
 15 16  2  0  0  0  0
 16 19  1  0  0  0  0
 17 18  2  0  0  0  0
 18 22  1  0  0  0  0
 19 23  2  0  0  0  0
 20 23  1  0  0  0  0
 20 21  1  0  0  0  0
 21 24  1  0  0  0  0
 22 24  2  0  0  0  0
 25 26  2  0  0  0  0
 25 27  1  0  0  0  0
 25 28  1  0  0  0  0
 28 29  1  0  0  0  0
 28 30  1  0  0  0  0
M  END
