59814
 OpenBabel03021519512D

 25 28  0  0  1  0  0  0  0  0999 V2000
    5.0460    4.4828    0.0000 C   0  0  0  0  0  0  0  0  0  0  0  0
    5.0460    2.9828    0.0000 C   0  0  0  0  0  0  0  0  0  0  0  0
    6.3451    5.2328    0.0000 C   0  0  0  0  0  0  0  0  0  0  0  0
    6.3451    2.2328    0.0000 C   0  0  0  0  0  0  0  0  0  0  0  0
    7.6441    2.9828    0.0000 C   0  0  0  0  0  0  0  0  0  0  0  0
    7.6441    4.4828    0.0000 C   0  0  0  0  0  0  0  0  0  0  0  0
    6.9688    0.9922    0.0000 C   0  0  0  0  0  0  0  0  0  0  0  0
    6.3587   -0.3781    0.0000 C   0  0  0  0  0  0  0  0  0  0  0  0
    9.0707    4.9464    0.0000 N   0  0  0  0  0  0  0  0  0  0  0  0
    9.0707    2.5193    0.0000 C   0  0  3  0  0  0  0  0  0  0  0  0
    8.4606    1.1490    0.0000 C   0  0  0  0  0  0  0  0  0  0  0  0
    9.5342    6.3729    0.0000 H   0  0  0  0  0  0  0  0  0  0  0  0
    7.2404   -1.5917    0.0000 C   0  0  0  0  0  0  0  0  0  0  0  0
    8.7322   -1.4349    0.0000 C   0  0  0  0  0  0  0  0  0  0  0  0
    9.3423   -0.0645    0.0000 C   0  0  0  0  0  0  0  0  0  0  0  0
    9.9524    3.7328    0.0000 C   0  0  0  0  0  0  0  0  0  0  0  0
   11.4524    3.7328    0.0000 O   0  0  0  0  0  0  0  0  0  0  0  0
   10.3697    0.2693    0.0000 C   0  0  0  0  0  0  0  0  0  0  0  0
   10.3697    1.7693    0.0000 C   0  0  0  0  0  0  0  0  0  0  0  0
   11.6688   -0.4807    0.0000 C   0  0  0  0  0  0  0  0  0  0  0  0
   11.6688    2.5193    0.0000 C   0  0  0  0  0  0  0  0  0  0  0  0
   12.9678    1.7693    0.0000 C   0  0  0  0  0  0  0  0  0  0  0  0
   12.9678    0.2693    0.0000 C   0  0  0  0  0  0  0  0  0  0  0  0
    6.6303   -2.9620    0.0000 O   0  0  0  0  0  0  0  0  0  0  0  0
   14.2669   -0.4807    0.0000 O   0  0  0  0  0  0  0  0  0  0  0  0
  1  3  2  0  0  0  0
  1  2  1  0  0  0  0
  2  4  2  0  0  0  0
  3  6  1  0  0  0  0
  4  5  1  0  0  0  0
  5  6  2  0  0  0  0
  5 10  1  0  0  0  0
  6  9  1  0  0  0  0
  7 11  2  0  0  0  0
  7  8  1  0  0  0  0
  8 13  2  0  0  0  0
  9 12  1  0  0  0  0
  9 16  1  0  0  0  0
 10 16  1  0  0  0  0
 10 19  1  0  0  0  0
 10 11  1  0  0  0  0
 11 15  1  0  0  0  0
 13 14  1  0  0  0  0
 13 24  1  0  0  0  0
 14 15  2  0  0  0  0
 16 17  2  0  0  0  0
 18 19  1  0  0  0  0
 18 20  2  0  0  0  0
 19 21  2  0  0  0  0
 20 23  1  0  0  0  0
 21 22  1  0  0  0  0
 22 23  2  0  0  0  0
 23 25  1  0  0  0  0
M  END
