3247
 OpenBabel03021519512D

 16 16  0  0  0  0  0  0  0  0999 V2000
    2.9731   -2.1495    0.0000 C   0  0  0  0  0  0  0  0  0  0  0  0
    2.9731   -3.6495    0.0000 C   0  0  0  0  0  0  0  0  0  0  0  0
    4.2721   -1.3995    0.0000 C   0  0  0  0  0  0  0  0  0  0  0  0
    4.2721    0.1005    0.0000 As  0  0  0  0  0  0  0  0  0  0  0  0
    4.2721   -4.3995    0.0000 C   0  0  0  0  0  0  0  0  0  0  0  0
    6.8702   -5.8995    0.0000 H   0  0  0  0  0  0  0  0  0  0  0  0
    5.5712   -3.6495    0.0000 C   0  0  0  0  0  0  0  0  0  0  0  0
    5.5711   -2.1495    0.0000 C   0  0  0  0  0  0  0  0  0  0  0  0
    6.8702   -4.3995    0.0000 N   0  0  0  0  0  0  0  0  0  0  0  0
    8.1692   -3.6495    0.0000 C   0  0  0  0  0  0  0  0  0  0  0  0
    8.1692   -2.1495    0.0000 O   0  0  0  0  0  0  0  0  0  0  0  0
    4.2721   -5.8995    0.0000 O   0  0  0  0  0  0  0  0  0  0  0  0
    9.4683   -4.3995    0.0000 C   0  0  0  0  0  0  0  0  0  0  0  0
    2.7721    0.1005    0.0000 O   0  0  0  0  0  0  0  0  0  0  0  0
    4.2721    1.6005    0.0000 O   0  0  0  0  0  0  0  0  0  0  0  0
    5.7721    0.1005    0.0000 O   0  0  0  0  0  0  0  0  0  0  0  0
  1  3  2  0  0  0  0
  1  2  1  0  0  0  0
  2  5  2  0  0  0  0
  3  8  1  0  0  0  0
  3  4  1  0  0  0  0
  4 14  2  0  0  0  0
  4 15  1  0  0  0  0
  4 16  1  0  0  0  0
  5  7  1  0  0  0  0
  5 12  1  0  0  0  0
  6  9  1  0  0  0  0
  7  8  2  0  0  0  0
  7  9  1  0  0  0  0
  9 10  1  0  0  0  0
 10 11  2  0  0  0  0
 10 13  1  0  0  0  0
M  END
