60419
 OpenBabel03021519512D

 16 19  0  0  0  0  0  0  0  0999 V2000
   -0.9240   -1.3995    0.0000 N   0  0  0  0  0  0  0  0  0  0  0  0
    0.3750   -2.1495    0.0000 C   0  0  0  0  0  0  0  0  0  0  0  0
    0.3750   -3.6495    0.0000 C   0  0  0  0  0  0  0  0  0  0  0  0
   -0.9240   -4.3995    0.0000 C   0  0  0  0  0  0  0  0  0  0  0  0
    1.6740   -4.3995    0.0000 C   0  0  0  0  0  0  0  0  0  0  0  0
   -2.2231   -3.6495    0.0000 C   0  0  0  0  0  0  0  0  0  0  0  0
   -2.2231   -2.1495    0.0000 C   0  0  0  0  0  0  0  0  0  0  0  0
   -3.1229   -4.9887    0.0000 C   0  0  0  0  0  0  0  0  0  0  0  0
   -4.6229   -4.9887    0.0000 C   0  0  0  0  0  0  0  0  0  0  0  0
   -5.3729   -6.2877    0.0000 C   0  0  0  0  0  0  0  0  0  0  0  0
    1.6740   -5.8995    0.0000 C   0  0  0  0  0  0  0  0  0  0  0  0
   -0.9240   -5.8995    0.0000 C   0  0  0  0  0  0  0  0  0  0  0  0
   -2.3729   -6.2877    0.0000 C   0  0  0  0  0  0  0  0  0  0  0  0
   -4.6229   -7.5868    0.0000 C   0  0  0  0  0  0  0  0  0  0  0  0
    0.3750   -6.6495    0.0000 C   0  0  0  0  0  0  0  0  0  0  0  0
   -3.1229   -7.5868    0.0000 C   0  0  0  0  0  0  0  0  0  0  0  0
  1  7  2  0  0  0  0
  1  2  1  0  0  0  0
  2  3  2  0  0  0  0
  3  4  1  0  0  0  0
  3  5  1  0  0  0  0
  4  6  2  0  0  0  0
  4 12  1  0  0  0  0
  5 11  2  0  0  0  0
  6  7  1  0  0  0  0
  6  8  1  0  0  0  0
  8 13  2  0  0  0  0
  8  9  1  0  0  0  0
  9 10  2  0  0  0  0
 10 14  1  0  0  0  0
 11 15  1  0  0  0  0
 12 15  2  0  0  0  0
 12 13  1  0  0  0  0
 13 16  1  0  0  0  0
 14 16  2  0  0  0  0
M  END
