379555
 OpenBabel03021519512D

 25 27  0  0  1  0  0  0  0  0999 V2000
   -2.2715   10.0546    0.0000 C   0  0  0  0  0  0  0  0  0  0  0  0
   -2.2715    8.5546    0.0000 C   0  0  0  0  0  0  0  0  0  0  0  0
   -0.9724   10.8046    0.0000 C   0  0  0  0  0  0  0  0  0  0  0  0
   -0.9724    7.8046    0.0000 C   0  0  0  0  0  0  0  0  0  0  0  0
    0.3266   10.0546    0.0000 C   0  0  0  0  0  0  0  0  0  0  0  0
    0.3266    8.5546    0.0000 C   0  0  0  0  0  0  0  0  0  0  0  0
    0.3266    5.5546    0.0000 H   0  0  0  0  0  0  0  0  0  0  0  0
    1.6256    7.8046    0.0000 C   0  0  3  0  0  0  0  0  0  0  0  0
    1.6256    6.3046    0.0000 N   0  0  0  0  0  0  0  0  0  0  0  0
    2.9247    8.5546    0.0000 S   0  0  0  0  0  0  0  0  0  0  0  0
    2.9247    5.5546    0.0000 C   0  0  0  0  0  0  0  0  0  0  0  0
    2.9247    4.0546    0.0000 O   0  0  0  0  0  0  0  0  0  0  0  0
    4.2237    7.8046    0.0000 C   0  0  0  0  0  0  0  0  0  0  0  0
    4.2237    6.3046    0.0000 C   0  0  0  0  0  0  0  0  0  0  0  0
    5.5228   10.0546    0.0000 C   0  0  0  0  0  0  0  0  0  0  0  0
    6.8218   10.8046    0.0000 C   0  0  0  0  0  0  0  0  0  0  0  0
    6.8218   12.3046    0.0000 C   0  0  0  0  0  0  0  0  0  0  0  0
    4.2237   10.8046    0.0000 C   0  0  0  0  0  0  0  0  0  0  0  0
    2.9247   10.0546    0.0000 Cl  0  0  0  0  0  0  0  0  0  0  0  0
    5.5228   13.0546    0.0000 C   0  0  0  0  0  0  0  0  0  0  0  0
    4.2237   12.3046    0.0000 C   0  0  0  0  0  0  0  0  0  0  0  0
    1.6256   10.8046    0.0000 O   0  0  0  0  0  0  0  0  0  0  0  0
    5.5228    5.5546    0.0000 C   0  0  0  0  0  0  0  0  0  0  0  0
    6.8218    4.8046    0.0000 N   0  0  0  0  0  0  0  0  0  0  0  0
    5.5228    8.5546    0.0000 N   0  0  0  0  0  0  0  0  0  0  0  0
  1  3  2  0  0  0  0
  1  2  1  0  0  0  0
  2  4  2  0  0  0  0
  3  5  1  0  0  0  0
  4  6  1  0  0  0  0
  5  6  2  0  0  0  0
  5 22  1  0  0  0  0
  6  8  1  0  0  0  0
  7  9  1  0  0  0  0
  8 10  1  0  0  0  0
  8  9  1  0  0  0  0
  9 11  1  0  0  0  0
 10 13  1  0  0  0  0
 11 14  1  0  0  0  0
 11 12  2  0  0  0  0
 13 14  2  0  0  0  0
 13 25  1  0  0  0  0
 14 23  1  0  0  0  0
 15 18  1  0  0  0  0
 15 16  2  0  0  0  0
 15 25  1  0  0  0  0
 16 17  1  0  0  0  0
 17 20  2  0  0  0  0
 18 19  1  0  0  0  0
 18 21  2  0  0  0  0
 20 21  1  0  0  0  0
 23 24  3  0  0  0  0
M  END
