6731
 OpenBabel03021519512D

 19 20  0  0  0  0  0  0  0  0999 V2000
   12.1668   -1.4264    0.0000 C   0  0  0  0  0  0  0  0  0  0  0  0
   10.8678   -2.1764    0.0000 C   0  0  0  0  0  0  0  0  0  0  0  0
   13.4659   -2.1764    0.0000 C   0  0  0  0  0  0  0  0  0  0  0  0
   13.4659   -3.6764    0.0000 C   0  0  0  0  0  0  0  0  0  0  0  0
   10.8678   -3.6764    0.0000 C   0  0  0  0  0  0  0  0  0  0  0  0
   12.1668   -4.4264    0.0000 C   0  0  0  0  0  0  0  0  0  0  0  0
    6.9707    0.0736    0.0000 C   0  0  0  0  0  0  0  0  0  0  0  0
    5.6716    0.8236    0.0000 C   0  0  0  0  0  0  0  0  0  0  0  0
    6.9707   -1.4264    0.0000 C   0  0  0  0  0  0  0  0  0  0  0  0
    5.6716   -2.1764    0.0000 C   0  0  0  0  0  0  0  0  0  0  0  0
    4.3726    0.0736    0.0000 C   0  0  0  0  0  0  0  0  0  0  0  0
    4.3726   -1.4264    0.0000 C   0  0  0  0  0  0  0  0  0  0  0  0
    3.0736    0.8236    0.0000 C   0  0  0  0  0  0  0  0  0  0  0  0
    3.8235    2.1226    0.0000 C   0  0  0  0  0  0  0  0  0  0  0  0
    1.7745    1.5736    0.0000 C   0  0  0  0  0  0  0  0  0  0  0  0
    2.3236   -0.4755    0.0000 C   0  0  0  0  0  0  0  0  0  0  0  0
    8.2697   -2.1764    0.0000 O   0  0  0  0  0  0  0  0  0  0  0  0
    9.5687   -1.4264    0.0000 C   0  0  0  0  0  0  0  0  0  0  0  0
    9.5687    0.0736    0.0000 O   0  0  0  0  0  0  0  0  0  0  0  0
  1  3  2  0  0  0  0
  1  2  1  0  0  0  0
  2  5  2  0  0  0  0
  2 18  1  0  0  0  0
  3  4  1  0  0  0  0
  4  6  2  0  0  0  0
  5  6  1  0  0  0  0
  7  8  2  0  0  0  0
  7  9  1  0  0  0  0
  8 11  1  0  0  0  0
  9 10  2  0  0  0  0
  9 17  1  0  0  0  0
 10 12  1  0  0  0  0
 11 12  2  0  0  0  0
 11 13  1  0  0  0  0
 13 14  1  0  0  0  0
 13 15  1  0  0  0  0
 13 16  1  0  0  0  0
 17 18  1  0  0  0  0
 18 19  2  0  0  0  0
M  END
