120844
 OpenBabel03021519512D

 15 15  0  0  1  0  0  0  0  0999 V2000
    2.1945    8.2257    0.0000 O   0  0  0  0  0  0  0  0  0  0  0  0
    2.9445    4.4174    0.0000 N   0  0  0  0  0  0  0  0  0  0  0  0
    3.4080    5.8440    0.0000 N   0  0  0  0  0  0  0  0  0  0  0  0
    2.1945    6.7257    0.0000 C   0  0  0  0  0  0  0  0  0  0  0  0
    0.9810    5.8440    0.0000 C   0  0  0  0  0  0  0  0  0  0  0  0
    1.4445    4.4174    0.0000 C   0  0  0  0  0  0  0  0  0  0  0  0
    0.5628    3.2039    0.0000 C   0  0  0  0  0  0  0  0  0  0  0  0
    3.8262    3.2039    0.0000 C   0  0  3  0  0  0  0  0  0  0  0  0
    3.2161    1.8336    0.0000 C   0  0  0  0  0  0  0  0  0  0  0  0
    5.3180    3.3607    0.0000 C   0  0  0  0  0  0  0  0  0  0  0  0
    1.7243    1.6768    0.0000 C   0  0  0  0  0  0  0  0  0  0  0  0
    4.8346    6.3075    0.0000 C   0  0  3  0  0  0  0  0  0  0  0  0
    5.9493    5.3038    0.0000 C   0  0  0  0  0  0  0  0  0  0  0  0
    5.1465    7.7747    0.0000 C   0  0  0  0  0  0  0  0  0  0  0  0
    7.3759    5.7674    0.0000 C   0  0  0  0  0  0  0  0  0  0  0  0
  1  4  2  0  0  0  0
  2  3  1  0  0  0  0
  2  6  1  0  0  0  0
  2  8  1  0  0  0  0
  3  4  1  0  0  0  0
  3 12  1  0  0  0  0
  4  5  1  0  0  0  0
  5  6  2  0  0  0  0
  6  7  1  0  0  0  0
  8  9  1  0  0  0  0
  8 10  1  0  0  0  0
  9 11  1  0  0  0  0
 12 13  1  0  0  0  0
 12 14  1  0  0  0  0
 13 15  1  0  0  0  0
M  END
