339589
 OpenBabel03021519512D

 21 23  0  0  0  0  0  0  0  0999 V2000
    0.7500    2.6532    0.0000 Cl  0  0  0  0  0  0  0  0  0  0  0  0
    2.2500    2.6532    0.0000 C   0  0  0  0  0  0  0  0  0  0  0  0
    3.0000    3.9523    0.0000 C   0  0  0  0  0  0  0  0  0  0  0  0
    3.0000    1.3542    0.0000 C   0  0  0  0  0  0  0  0  0  0  0  0
    4.5000    1.3542    0.0000 C   0  0  0  0  0  0  0  0  0  0  0  0
    4.5000    3.9523    0.0000 C   0  0  0  0  0  0  0  0  0  0  0  0
    5.2500    2.6532    0.0000 C   0  0  0  0  0  0  0  0  0  0  0  0
    6.7500    2.6532    0.0000 C   0  0  0  0  0  0  0  0  0  0  0  0
    7.6317    3.8668    0.0000 C   0  0  0  0  0  0  0  0  0  0  0  0
    7.6317    1.4397    0.0000 N   0  0  0  0  0  0  0  0  0  0  0  0
    9.0583    1.9032    0.0000 C   0  0  0  0  0  0  0  0  0  0  0  0
    9.0583    3.4032    0.0000 S   0  0  0  0  0  0  0  0  0  0  0  0
   11.5154    1.8604    0.0000 C   0  0  0  0  0  0  0  0  0  0  0  0
   11.4107    3.3567    0.0000 O   0  0  0  0  0  0  0  0  0  0  0  0
   12.9682   -0.2935    0.0000 N   0  0  0  0  0  0  0  0  0  0  0  0
   11.8191   -1.2577    0.0000 C   0  0  0  0  0  0  0  0  0  0  0  0
   14.2403   -1.0884    0.0000 C   0  0  0  0  0  0  0  0  0  0  0  0
   12.3810   -2.6485    0.0000 C   0  0  0  0  0  0  0  0  0  0  0  0
   13.8774   -2.5439    0.0000 C   0  0  0  0  0  0  0  0  0  0  0  0
   10.2718    1.0216    0.0000 N   0  0  0  0  0  0  0  0  0  0  0  0
   12.8635    1.2028    0.0000 C   0  0  0  0  0  0  0  0  0  0  0  0
  1  2  1  0  0  0  0
  2  3  1  0  0  0  0
  2  4  2  0  0  0  0
  3  6  2  0  0  0  0
  4  5  1  0  0  0  0
  5  7  2  0  0  0  0
  6  7  1  0  0  0  0
  7  8  1  0  0  0  0
  8  9  2  0  0  0  0
  8 10  1  0  0  0  0
  9 12  1  0  0  0  0
 10 11  2  0  0  0  0
 11 12  1  0  0  0  0
 11 20  1  0  0  0  0
 13 14  2  0  0  0  0
 13 20  1  0  0  0  0
 13 21  1  0  0  0  0
 15 16  1  0  0  0  0
 15 17  1  0  0  0  0
 15 21  1  0  0  0  0
 16 18  1  0  0  0  0
 17 19  1  0  0  0  0
 18 19  1  0  0  0  0
M  END
