3753
 OpenBabel03021519512D

 21 23  0  0  0  0  0  0  0  0999 V2000
    6.8152    6.0880    0.0000 N   0  0  0  0  0  0  0  0  0  0  0  0
    6.8152    9.0880    0.0000 C   0  0  0  0  0  0  0  0  0  0  0  0
    5.5162    8.3380    0.0000 C   0  0  0  0  0  0  0  0  0  0  0  0
    8.1143    8.3380    0.0000 C   0  0  0  0  0  0  0  0  0  0  0  0
    8.1143    6.8380    0.0000 C   0  0  0  0  0  0  0  0  0  0  0  0
    0.6681    5.5389    0.0000 C   0  0  0  0  0  0  0  0  0  0  0  0
   -0.0819    4.2399    0.0000 C   0  0  0  0  0  0  0  0  0  0  0  0
    2.1681    5.5389    0.0000 C   0  0  0  0  0  0  0  0  0  0  0  0
    2.9181    4.2399    0.0000 C   0  0  0  0  0  0  0  0  0  0  0  0
    0.6681    2.9409    0.0000 C   0  0  0  0  0  0  0  0  0  0  0  0
    2.1681    2.9409    0.0000 C   0  0  0  0  0  0  0  0  0  0  0  0
   -0.0819    1.6418    0.0000 C   0  0  0  0  0  0  0  0  0  0  0  0
    4.2171    6.0880    0.0000 O   0  0  0  0  0  0  0  0  0  0  0  0
    2.9181    6.8380    0.0000 S   0  0  0  0  0  0  0  0  0  0  0  0
    3.6681    8.1370    0.0000 O   0  0  0  0  0  0  0  0  0  0  0  0
    1.6191    7.5880    0.0000 O   0  0  0  0  0  0  0  0  0  0  0  0
    5.5162    6.8380    0.0000 C   0  0  0  0  0  0  0  0  0  0  0  0
    9.5408    6.3744    0.0000 C   0  0  0  0  0  0  0  0  0  0  0  0
   10.4225    7.5880    0.0000 C   0  0  0  0  0  0  0  0  0  0  0  0
    9.5408    8.8015    0.0000 C   0  0  0  0  0  0  0  0  0  0  0  0
    6.8152   10.5880    0.0000 N   0  0  0  0  0  0  0  0  0  0  0  0
  1  5  1  0  0  0  0
  1 17  2  0  0  0  0
  2  3  2  0  0  0  0
  2  4  1  0  0  0  0
  2 21  1  0  0  0  0
  3 17  1  0  0  0  0
  4  5  2  0  0  0  0
  4 20  1  0  0  0  0
  5 18  1  0  0  0  0
  6  7  2  0  0  0  0
  6  8  1  0  0  0  0
  7 10  1  0  0  0  0
  8  9  2  0  0  0  0
  8 14  1  0  0  0  0
  9 11  1  0  0  0  0
 10 11  2  0  0  0  0
 10 12  1  0  0  0  0
 13 14  1  0  0  0  0
 13 17  1  0  0  0  0
 14 15  2  0  0  0  0
 14 16  2  0  0  0  0
 18 19  1  0  0  0  0
 19 20  1  0  0  0  0
M  END
