41092
 OpenBabel03021519512D

 17 18  0  0  0  0  0  0  0  0999 V2000
   -3.0280   -0.6651    0.0000 N   0  0  0  0  0  0  0  0  0  0  0  0
   -0.6266   -1.0169    0.0000 N   0  0  0  0  0  0  0  0  0  0  0  0
    0.7177   -1.6824    0.0000 H   0  0  0  0  0  0  0  0  0  0  0  0
   -2.3626    0.6792    0.0000 C   0  0  0  0  0  0  0  0  0  0  0  0
   -0.8784    0.4618    0.0000 C   0  0  0  0  0  0  0  0  0  0  0  0
    1.2669   -1.0037    0.0000 C   0  0  0  0  0  0  0  0  0  0  0  0
    1.9166   -2.3557    0.0000 C   0  0  0  0  0  0  0  0  0  0  0  0
    2.1130    0.2350    0.0000 C   0  0  0  0  0  0  0  0  0  0  0  0
    3.4123   -2.4691    0.0000 C   0  0  0  0  0  0  0  0  0  0  0  0
    3.6087    0.1216    0.0000 C   0  0  0  0  0  0  0  0  0  0  0  0
    4.2583   -1.2305    0.0000 C   0  0  0  0  0  0  0  0  0  0  0  0
   -1.9552   -1.7134    0.0000 C   0  0  0  0  0  0  0  0  0  0  0  0
   -3.0590    2.0078    0.0000 N   0  3  0  0  0  0  0  0  0  0  0  0
   -4.5578    2.0689    0.0000 O   0  5  0  0  0  0  0  0  0  0  0  0
   -2.2567    3.2751    0.0000 O   0  0  0  0  0  0  0  0  0  0  0  0
   -0.0324    1.7004    0.0000 C   0  0  0  0  0  0  0  0  0  0  0  0
    1.4633    1.5870    0.0000 C   0  0  0  0  0  0  0  0  0  0  0  0
  1 12  2  0  0  0  0
  1  4  1  0  0  0  0
  2  5  1  0  0  0  0
  2 12  1  0  0  0  0
  2  3  1  0  0  0  0
  4  5  2  0  0  0  0
  4 13  1  0  0  0  0
  5 16  1  0  0  0  0
  6  7  2  0  0  0  0
  6  8  1  0  0  0  0
  7  9  1  0  0  0  0
  8 10  2  0  0  0  0
  8 17  1  0  0  0  0
  9 11  2  0  0  0  0
 10 11  1  0  0  0  0
 13 14  1  0  0  0  0
 13 15  2  0  0  0  0
 16 17  2  0  0  0  0
M  CHG  2  13   1  14  -1
M  END
