34210
 OpenBabel03021519512D

 11 10  0  0  1  0  0  0  0  0999 V2000
    5.5245    4.9216    0.0000 C   0  0  3  0  0  0  0  0  0  0  0  0
    4.7745    6.2207    0.0000 C   0  0  0  0  0  0  0  0  0  0  0  0
    7.0245    4.9216    0.0000 C   0  0  0  0  0  0  0  0  0  0  0  0
    3.2745    6.2207    0.0000 C   0  0  0  0  0  0  0  0  0  0  0  0
    4.7745    3.6226    0.0000 N   0  0  0  0  0  0  0  0  0  0  0  0
    3.2745    3.6226    0.0000 C   0  0  0  0  0  0  0  0  0  0  0  0
    2.5245    4.9216    0.0000 O   0  0  0  0  0  0  0  0  0  0  0  0
    2.5245    2.3236    0.0000 C   0  0  0  0  0  0  0  0  0  0  0  0
    1.0245    2.3236    0.0000 C   0  0  0  0  0  0  0  0  0  0  0  0
    0.2745    3.6226    0.0000 C   0  0  0  0  0  0  0  0  0  0  0  0
    0.2745    1.0245    0.0000 C   0  0  0  0  0  0  0  0  0  0  0  0
  1  2  1  0  0  0  0
  1  3  1  0  0  0  0
  1  5  1  0  0  0  0
  2  4  1  0  0  0  0
  5  6  1  0  0  0  0
  6  7  2  0  0  0  0
  6  8  1  0  0  0  0
  8  9  1  0  0  0  0
  9 10  1  0  0  0  0
  9 11  1  0  0  0  0
M  END
