373535
 OpenBabel03021519512D

 18 19  0  0  1  0  0  0  0  0999 V2000
   -7.0245    2.3236    0.0000 O   0  0  0  0  0  0  0  0  0  0  0  0
   -7.7745    1.0245    0.0000 C   0  0  0  0  0  0  0  0  0  0  0  0
   -5.5245   -0.2745    0.0000 C   0  0  3  0  0  0  0  0  0  0  0  0
   -5.5245   -2.8726    0.0000 O   0  0  0  0  0  0  0  0  0  0  0  0
   -4.7745    1.0245    0.0000 C   0  0  0  0  0  0  0  0  0  0  0  0
   -4.7745   -1.5736    0.0000 C   0  0  0  0  0  0  0  0  0  0  0  0
   -3.2745    1.0245    0.0000 C   0  0  0  0  0  0  0  0  0  0  0  0
   -3.2745   -1.5736    0.0000 N   0  0  0  0  0  0  0  0  0  0  0  0
   -2.5245   -2.8726    0.0000 H   0  0  0  0  0  0  0  0  0  0  0  0
   -2.5245   -0.2745    0.0000 C   0  0  0  0  0  0  0  0  0  0  0  0
   -1.0245   -0.2745    0.0000 O   0  0  0  0  0  0  0  0  0  0  0  0
   -9.2745    1.0245    0.0000 C   0  0  0  0  0  0  0  0  0  0  0  0
  -10.0245   -0.2745    0.0000 C   0  0  0  0  0  0  0  0  0  0  0  0
  -11.5245   -0.2745    0.0000 C   0  0  0  0  0  0  0  0  0  0  0  0
  -12.2745    1.0245    0.0000 C   0  0  0  0  0  0  0  0  0  0  0  0
  -11.5245    2.3235    0.0000 C   0  0  0  0  0  0  0  0  0  0  0  0
  -10.0245    2.3235    0.0000 C   0  0  0  0  0  0  0  0  0  0  0  0
   -7.0245   -0.2745    0.0000 N   0  0  0  0  0  0  0  0  0  0  0  0
  1  2  2  0  0  0  0
  2 12  1  0  0  0  0
  2 18  1  0  0  0  0
  3  5  1  0  0  0  0
  3  6  1  0  0  0  0
  3 18  1  0  0  0  0
  4  6  2  0  0  0  0
  5  7  1  0  0  0  0
  6  8  1  0  0  0  0
  7 10  1  0  0  0  0
  8 10  1  0  0  0  0
  8  9  1  0  0  0  0
 10 11  2  0  0  0  0
 12 13  2  0  0  0  0
 12 17  1  0  0  0  0
 13 14  1  0  0  0  0
 14 15  2  0  0  0  0
 15 16  1  0  0  0  0
 16 17  2  0  0  0  0
M  END
