68841
 OpenBabel03021519512D

 20 21  0  0  0  0  0  0  0  0999 V2000
    3.0000    4.6471    0.0000 C   0  0  0  0  0  0  0  0  0  0  0  0
    3.7500    5.9462    0.0000 O   0  0  0  0  0  0  0  0  0  0  0  0
    1.5000    2.0490    0.0000 C   0  0  0  0  0  0  0  0  0  0  0  0
    0.7500    0.7500    0.0000 O   0  0  0  0  0  0  0  0  0  0  0  0
    5.2500    3.3481    0.0000 C   0  0  0  0  0  0  0  0  0  0  0  0
    6.0000    2.0491    0.0000 C   0  0  0  0  0  0  0  0  0  0  0  0
    6.0000    4.6471    0.0000 C   0  0  0  0  0  0  0  0  0  0  0  0
    7.5000    2.0491    0.0000 C   0  0  0  0  0  0  0  0  0  0  0  0
    7.5000    4.6471    0.0000 C   0  0  0  0  0  0  0  0  0  0  0  0
    8.2500    3.3481    0.0000 C   0  0  0  0  0  0  0  0  0  0  0  0
    1.5000    4.6471    0.0000 C   0  0  0  0  0  0  0  0  0  0  0  0
    0.7500    3.3481    0.0000 C   0  0  0  0  0  0  0  0  0  0  0  0
    3.7500    3.3481    0.0000 N   0  0  0  0  0  0  0  0  0  0  0  0
    3.0000    2.0490    0.0000 O   0  0  0  0  0  0  0  0  0  0  0  0
    9.7500    3.3481    0.0000 C   0  0  0  0  0  0  0  0  0  0  0  0
   10.5000    4.6471    0.0000 C   0  0  0  0  0  0  0  0  0  0  0  0
   12.0000    4.6471    0.0000 C   0  0  0  0  0  0  0  0  0  0  0  0
   12.7500    3.3481    0.0000 C   0  0  0  0  0  0  0  0  0  0  0  0
   12.0000    2.0491    0.0000 C   0  0  0  0  0  0  0  0  0  0  0  0
   10.5000    2.0491    0.0000 C   0  0  0  0  0  0  0  0  0  0  0  0
  1  2  2  0  0  0  0
  1 11  1  0  0  0  0
  1 13  1  0  0  0  0
  3  4  2  0  0  0  0
  3 12  1  0  0  0  0
  3 14  1  0  0  0  0
  5  7  1  0  0  0  0
  5  6  2  0  0  0  0
  5 13  1  0  0  0  0
  6  8  1  0  0  0  0
  7  9  2  0  0  0  0
  8 10  2  0  0  0  0
  9 10  1  0  0  0  0
 10 15  1  0  0  0  0
 11 12  2  0  0  0  0
 15 16  2  0  0  0  0
 15 20  1  0  0  0  0
 16 17  1  0  0  0  0
 17 18  2  0  0  0  0
 18 19  1  0  0  0  0
 19 20  2  0  0  0  0
M  END
