400938
 OpenBabel03021519512D

 20 22  0  0  0  0  0  0  0  0999 V2000
   -6.7322   -6.2997    0.0000 N   0  0  0  0  0  0  0  0  0  0  0  0
   -7.6963   -7.4487    0.0000 N   0  0  0  0  0  0  0  0  0  0  0  0
   -4.0560   -0.7500    0.0000 H   0  0  0  0  0  0  0  0  0  0  0  0
   -4.5196   -2.1766    0.0000 N   0  0  0  0  0  0  0  0  0  0  0  0
   -3.6379   -3.3901    0.0000 N   0  0  0  0  0  0  0  0  0  0  0  0
   -4.5196   -4.6036    0.0000 N   0  0  0  0  0  0  0  0  0  0  0  0
   -7.2452   -1.8901    0.0000 C   0  0  0  0  0  0  0  0  0  0  0  0
   -5.9462   -2.6401    0.0000 C   0  0  0  0  0  0  0  0  0  0  0  0
   -8.5442   -2.6401    0.0000 C   0  0  0  0  0  0  0  0  0  0  0  0
   -5.9462   -4.1401    0.0000 C   0  0  0  0  0  0  0  0  0  0  0  0
   -8.5442   -4.1401    0.0000 C   0  0  0  0  0  0  0  0  0  0  0  0
   -7.2452   -4.8901    0.0000 C   0  0  0  0  0  0  0  0  0  0  0  0
   -9.1736   -7.1883    0.0000 C   0  0  0  0  0  0  0  0  0  0  0  0
  -10.1377   -8.3373    0.0000 C   0  0  0  0  0  0  0  0  0  0  0  0
   -9.6866   -5.7787    0.0000 C   0  0  0  0  0  0  0  0  0  0  0  0
  -11.1638   -5.5182    0.0000 C   0  0  0  0  0  0  0  0  0  0  0  0
  -11.6150   -8.0769    0.0000 C   0  0  0  0  0  0  0  0  0  0  0  0
  -12.1280   -6.6673    0.0000 C   0  0  0  0  0  0  0  0  0  0  0  0
   -9.8433   -4.8901    0.0000 O   0  0  0  0  0  0  0  0  0  0  0  0
  -13.6052   -6.4068    0.0000 C   0  0  0  0  0  0  0  0  0  0  0  0
  1  2  2  0  0  0  0
  1 12  1  0  0  0  0
  2 13  1  0  0  0  0
  3  4  1  0  0  0  0
  4  5  1  0  0  0  0
  4  8  1  0  0  0  0
  5  6  2  0  0  0  0
  6 10  1  0  0  0  0
  7  9  2  0  0  0  0
  7  8  1  0  0  0  0
  8 10  2  0  0  0  0
  9 11  1  0  0  0  0
 10 12  1  0  0  0  0
 11 12  2  0  0  0  0
 11 19  1  0  0  0  0
 13 15  2  0  0  0  0
 13 14  1  0  0  0  0
 14 17  2  0  0  0  0
 15 16  1  0  0  0  0
 16 18  2  0  0  0  0
 17 18  1  0  0  0  0
 18 20  1  0  0  0  0
M  END
