27389
 OpenBabel03021519512D

 13 13  0  0  0  0  0  0  0  0999 V2000
   -3.5221   -4.3995    0.0000 C   0  0  0  0  0  0  0  0  0  0  0  0
   -4.8211   -5.1495    0.0000 C   0  0  0  0  0  0  0  0  0  0  0  0
   -2.2231   -5.1495    0.0000 C   0  0  0  0  0  0  0  0  0  0  0  0
   -2.2231   -6.6495    0.0000 C   0  0  0  0  0  0  0  0  0  0  0  0
   -4.8211   -6.6495    0.0000 C   0  0  0  0  0  0  0  0  0  0  0  0
   -3.5221   -7.3995    0.0000 C   0  0  0  0  0  0  0  0  0  0  0  0
   -6.1202   -4.3995    0.0000 O   0  0  0  0  0  0  0  0  0  0  0  0
   -6.1202   -7.3995    0.0000 O   0  0  0  0  0  0  0  0  0  0  0  0
   -0.9240   -4.3995    0.0000 C   0  0  0  0  0  0  0  0  0  0  0  0
    0.3750   -5.1495    0.0000 O   0  0  0  0  0  0  0  0  0  0  0  0
   -0.9240   -2.8995    0.0000 C   0  0  0  0  0  0  0  0  0  0  0  0
    0.3750   -2.1495    0.0000 C   0  0  0  0  0  0  0  0  0  0  0  0
   -2.2231   -2.1495    0.0000 C   0  0  0  0  0  0  0  0  0  0  0  0
  1  3  2  0  0  0  0
  1  2  1  0  0  0  0
  2  5  2  0  0  0  0
  2  7  1  0  0  0  0
  3  4  1  0  0  0  0
  3  9  1  0  0  0  0
  4  6  2  0  0  0  0
  5  6  1  0  0  0  0
  5  8  1  0  0  0  0
  9 10  2  0  0  0  0
  9 11  1  0  0  0  0
 11 12  1  0  0  0  0
 11 13  1  0  0  0  0
M  END
