44750
 OpenBabel03021519512D

 23 25  0  0  0  0  0  0  0  0999 V2000
   -5.7221   -3.0000    0.0000 C   0  0  0  0  0  0  0  0  0  0  0  0
   -4.4230   -3.7500    0.0000 C   0  0  0  0  0  0  0  0  0  0  0  0
   -7.0211   -3.7500    0.0000 C   0  0  0  0  0  0  0  0  0  0  0  0
   -1.7537   -5.3899    0.0000 C   0  0  0  0  0  0  0  0  0  0  0  0
   -4.4230   -5.2500    0.0000 C   0  0  0  0  0  0  0  0  0  0  0  0
   -7.0211   -5.2500    0.0000 C   0  0  0  0  0  0  0  0  0  0  0  0
   -0.7500   -6.5046    0.0000 C   0  0  0  0  0  0  0  0  0  0  0  0
   -5.7221   -6.0000    0.0000 C   0  0  0  0  0  0  0  0  0  0  0  0
   -9.6905   -5.3899    0.0000 C   0  0  0  0  0  0  0  0  0  0  0  0
   -1.5000   -7.8037    0.0000 C   0  0  0  0  0  0  0  0  0  0  0  0
   -2.9672   -7.4918    0.0000 C   0  0  0  0  0  0  0  0  0  0  0  0
   -8.4770   -7.4918    0.0000 C   0  0  0  0  0  0  0  0  0  0  0  0
  -10.6942   -6.5046    0.0000 C   0  0  0  0  0  0  0  0  0  0  0  0
   -9.9442   -7.8037    0.0000 C   0  0  0  0  0  0  0  0  0  0  0  0
  -10.0023   -3.9227    0.0000 O   0  0  0  0  0  0  0  0  0  0  0  0
   -8.3202   -6.0000    0.0000 N   0  0  0  0  0  0  0  0  0  0  0  0
   -7.3622   -8.4955    0.0000 O   0  0  0  0  0  0  0  0  0  0  0  0
   -4.0819   -8.4955    0.0000 O   0  0  0  0  0  0  0  0  0  0  0  0
   -3.1240   -6.0000    0.0000 N   0  0  0  0  0  0  0  0  0  0  0  0
   -1.4418   -3.9227    0.0000 O   0  0  0  0  0  0  0  0  0  0  0  0
   -5.7221   -1.5000    0.0000 C   0  0  0  0  0  0  0  0  0  0  0  0
   -7.0211   -0.7500    0.0000 O   0  0  0  0  0  0  0  0  0  0  0  0
   -4.4230   -0.7500    0.0000 O   0  0  0  0  0  0  0  0  0  0  0  0
  1  3  2  0  0  0  0
  1  2  1  0  0  0  0
  1 21  1  0  0  0  0
  2  5  2  0  0  0  0
  3  6  1  0  0  0  0
  4 20  2  0  0  0  0
  4  7  1  0  0  0  0
  4 19  1  0  0  0  0
  5 19  1  0  0  0  0
  5  8  1  0  0  0  0
  6  8  2  0  0  0  0
  6 16  1  0  0  0  0
  7 10  2  0  0  0  0
  9 16  1  0  0  0  0
  9 13  1  0  0  0  0
  9 15  2  0  0  0  0
 10 11  1  0  0  0  0
 11 19  1  0  0  0  0
 11 18  2  0  0  0  0
 12 16  1  0  0  0  0
 12 17  2  0  0  0  0
 12 14  1  0  0  0  0
 13 14  2  0  0  0  0
 21 22  2  0  0  0  0
 21 23  1  0  0  0  0
M  END
