109128
 OpenBabel03021519512D

 30 34  0  0  1  0  0  0  0  0999 V2000
   -4.1050   -3.2361    0.0000 O   0  0  0  0  0  0  0  0  0  0  0  0
    1.0023   -6.2360    0.0000 N   0  0  0  0  0  0  0  0  0  0  0  0
   -2.8060   -5.4861    0.0000 C   0  0  3  0  0  0  0  0  0  0  0  0
   -1.3794   -5.0225    0.0000 C   0  0  3  0  0  0  0  0  0  0  0  0
   -0.4977   -6.2360    0.0000 C   0  0  3  0  0  0  0  0  0  0  0  0
   -4.1050   -4.7361    0.0000 C   0  0  0  0  0  0  0  0  0  0  0  0
   -5.4040   -5.4861    0.0000 C   0  0  0  0  0  0  0  0  0  0  0  0
   -1.3794   -7.4496    0.0000 C   0  0  0  0  0  0  0  0  0  0  0  0
   -2.8060   -6.9861    0.0000 C   0  0  3  0  0  0  0  0  0  0  0  0
   -5.4040   -6.9861    0.0000 C   0  0  3  0  0  0  0  0  0  0  0  0
   -4.1050   -7.7361    0.0000 C   0  0  3  0  0  0  0  0  0  0  0  0
   -6.7031   -7.7361    0.0000 C   0  0  3  0  0  0  0  0  0  0  0  0
   -8.0021   -6.9861    0.0000 C   0  0  0  0  0  0  0  0  0  0  0  0
   -9.3011   -7.7361    0.0000 C   0  0  0  0  0  0  0  0  0  0  0  0
   -4.1050   -9.2361    0.0000 C   0  0  0  0  0  0  0  0  0  0  0  0
   -6.7031   -9.2361    0.0000 C   0  0  3  0  0  0  0  0  0  0  0  0
   -9.3011   -9.2361    0.0000 C   0  0  3  0  0  0  0  0  0  0  0  0
   -5.4040   -9.9861    0.0000 C   0  0  0  0  0  0  0  0  0  0  0  0
   -8.0021   -9.9861    0.0000 C   0  0  0  0  0  0  0  0  0  0  0  0
    2.3013   -5.4860    0.0000 C   0  0  0  0  0  0  0  0  0  0  0  0
    2.3013   -6.9860    0.0000 C   0  0  0  0  0  0  0  0  0  0  0  0
  -10.6002   -9.9861    0.0000 O   0  0  0  0  0  0  0  0  0  0  0  0
  -11.8992   -9.2361    0.0000 C   0  0  0  0  0  0  0  0  0  0  0  0
  -13.1983   -9.9861    0.0000 O   0  0  0  0  0  0  0  0  0  0  0  0
  -11.8992   -7.7361    0.0000 C   0  0  0  0  0  0  0  0  0  0  0  0
   -6.7031   -6.2361    0.0000 C   0  0  0  0  0  0  0  0  0  0  0  0
   -2.6492   -3.9943    0.0000 C   0  0  0  0  0  0  0  0  0  0  0  0
   -0.9159   -3.5959    0.0000 C   0  0  0  0  0  0  0  0  0  0  0  0
   -1.9196   -2.4812    0.0000 O   0  0  0  0  0  0  0  0  0  0  0  0
    0.5514   -3.2841    0.0000 C   0  0  0  0  0  0  0  0  0  0  0  0
  1  6  2  0  0  0  0
  2  5  1  0  0  0  0
  2 20  1  0  0  0  0
  2 21  1  0  0  0  0
  3  4  1  0  0  0  0
  3  6  1  0  0  0  0
  3  9  1  0  0  0  0
  3 27  1  0  0  0  0
  4  5  1  0  0  0  0
  4 28  1  0  0  0  0
  5  8  1  0  0  0  0
  6  7  1  0  0  0  0
  7 10  1  0  0  0  0
  8  9  1  0  0  0  0
  9 11  1  0  0  0  0
 10 11  1  0  0  0  0
 10 12  1  0  0  0  0
 11 15  1  0  0  0  0
 12 13  1  0  0  0  0
 12 16  1  0  0  0  0
 12 26  1  0  0  0  0
 13 14  1  0  0  0  0
 14 17  1  0  0  0  0
 15 18  1  0  0  0  0
 16 19  1  0  0  0  0
 16 18  1  0  0  0  0
 17 19  1  0  0  0  0
 17 22  1  0  0  0  0
 20 21  1  0  0  0  0
 22 23  1  0  0  0  0
 23 24  2  0  0  0  0
 23 25  1  0  0  0  0
 28 29  2  0  0  0  0
 28 30  1  0  0  0  0
M  END
