680515
 OpenBabel03021519512D

 20 22  0  0  0  0  0  0  0  0999 V2000
   -7.0245    2.3235    0.0000 C   0  0  0  0  0  0  0  0  0  0  0  0
   -7.7745    1.0245    0.0000 C   0  0  0  0  0  0  0  0  0  0  0  0
   -9.2745    1.0245    0.0000 C   0  0  0  0  0  0  0  0  0  0  0  0
  -10.0245    2.3235    0.0000 C   0  0  0  0  0  0  0  0  0  0  0  0
   -9.2745    3.6226    0.0000 C   0  0  0  0  0  0  0  0  0  0  0  0
   -7.7745    3.6226    0.0000 C   0  0  0  0  0  0  0  0  0  0  0  0
  -11.4917    2.6354    0.0000 O   0  0  0  0  0  0  0  0  0  0  0  0
  -11.6485    4.1272    0.0000 C   0  0  0  0  0  0  0  0  0  0  0  0
  -10.2782    4.7373    0.0000 C   0  0  0  0  0  0  0  0  0  0  0  0
  -10.0245   -0.2745    0.0000 N   0  0  0  0  0  0  0  0  0  0  0  0
   -9.2745   -1.5736    0.0000 N   0  0  0  0  0  0  0  0  0  0  0  0
   -7.7745   -1.5736    0.0000 C   0  0  0  0  0  0  0  0  0  0  0  0
   -7.0245   -2.8726    0.0000 C   0  0  0  0  0  0  0  0  0  0  0  0
   -5.5245   -2.8726    0.0000 C   0  0  0  0  0  0  0  0  0  0  0  0
   -4.7745   -1.5736    0.0000 C   0  0  0  0  0  0  0  0  0  0  0  0
   -5.5245   -0.2745    0.0000 C   0  0  0  0  0  0  0  0  0  0  0  0
   -7.0245   -0.2745    0.0000 C   0  0  0  0  0  0  0  0  0  0  0  0
   -3.2745   -1.5736    0.0000 N   0  0  0  0  0  0  0  0  0  0  0  0
   -2.5245   -0.2745    0.0000 C   0  0  0  0  0  0  0  0  0  0  0  0
   -2.5245   -2.8726    0.0000 C   0  0  0  0  0  0  0  0  0  0  0  0
  1  2  2  0  0  0  0
  1  6  1  0  0  0  0
  2  3  1  0  0  0  0
  3  4  2  0  0  0  0
  3 10  1  0  0  0  0
  4  5  1  0  0  0  0
  4  7  1  0  0  0  0
  5  6  2  0  0  0  0
  5  9  1  0  0  0  0
  7  8  1  0  0  0  0
  8  9  2  0  0  0  0
 10 11  2  0  0  0  0
 11 12  1  0  0  0  0
 12 13  2  0  0  0  0
 12 17  1  0  0  0  0
 13 14  1  0  0  0  0
 14 15  2  0  0  0  0
 15 16  1  0  0  0  0
 15 18  1  0  0  0  0
 16 17  2  0  0  0  0
 18 19  1  0  0  0  0
 18 20  1  0  0  0  0
M  END
