305798
 OpenBabel03021519512D

 29 31  0  0  1  0  0  0  0  0999 V2000
    0.3118   -0.1275    0.0000 C   0  0  0  0  0  0  0  0  0  0  0  0
    0.3118   -0.8775    0.0000 C   0  0  0  0  0  0  0  0  0  0  0  0
    0.9618   -1.2525    0.0000 C   0  0  0  0  0  0  0  0  0  0  0  0
    1.6108   -0.8775    0.0000 N   0  0  0  0  0  0  0  0  0  0  0  0
    1.6108   -0.1275    0.0000 C   0  0  0  0  0  0  0  0  0  0  0  0
    0.9618    0.2474    0.0000 C   0  0  0  0  0  0  0  0  0  0  0  0
   -0.3381    0.2474    0.0000 C   0  0  1  0  0  0  0  0  0  0  0  0
   -0.9871   -0.1275    0.0000 C   0  0  1  0  0  0  0  0  0  0  0  0
   -2.2861   -0.1275    0.0000 C   0  0  0  0  0  0  0  0  0  0  0  0
   -2.2861   -0.8775    0.0000 C   0  0  0  0  0  0  0  0  0  0  0  0
   -1.6371   -1.2525    0.0000 C   0  0  0  0  0  0  0  0  0  0  0  0
   -0.9871   -0.8775    0.0000 C   0  0  0  0  0  0  0  0  0  0  0  0
    2.2608    0.2474    0.0000 C   0  0  0  0  0  0  0  0  0  0  0  0
    2.9098   -0.1275    0.0000 C   0  0  0  0  0  0  0  0  0  0  0  0
    3.5598    0.2474    0.0000 C   0  0  0  0  0  0  0  0  0  0  0  0
    3.5598    0.9974    0.0000 C   0  0  0  0  0  0  0  0  0  0  0  0
    2.9098    1.3724    0.0000 C   0  0  0  0  0  0  0  0  0  0  0  0
    2.2608    0.9974    0.0000 C   0  0  0  0  0  0  0  0  0  0  0  0
   -1.6371    0.2474    0.0000 N   0  0  0  0  0  0  0  0  0  0  0  0
   -0.3381    0.9974    0.0000 O   0  0  0  0  0  0  0  0  0  0  0  0
    0.9608   -2.0025    0.0000 C   0  0  0  0  0  0  0  0  0  0  0  0
    0.2108   -2.0015    0.0000 F   0  0  0  0  0  0  0  0  0  0  0  0
    0.9598   -2.7524    0.0000 F   0  0  0  0  0  0  0  0  0  0  0  0
    1.7108   -2.0034    0.0000 F   0  0  0  0  0  0  0  0  0  0  0  0
    4.2088    1.3724    0.0000 C   0  0  0  0  0  0  0  0  0  0  0  0
    3.8335    2.0218    0.0000 F   0  0  0  0  0  0  0  0  0  0  0  0
    4.5840    0.7231    0.0000 F   0  0  0  0  0  0  0  0  0  0  0  0
    4.8581    1.7477    0.0000 F   0  0  0  0  0  0  0  0  0  0  0  0
   -0.9871    0.6224    0.0000 H   0  0  0  0  0  0  0  0  0  0  0  0
  1  2  2  0  0  0  0
  1  6  1  0  0  0  0
  2  3  1  0  0  0  0
  3  4  2  0  0  0  0
  3 21  1  0  0  0  0
  4  5  1  0  0  0  0
  5  6  2  0  0  0  0
  5 13  1  0  0  0  0
  7  1  1  1  0  0  0
  7  8  1  0  0  0  0
  7 20  1  0  0  0  0
  8 12  1  0  0  0  0
  8 19  1  0  0  0  0
  8 29  1  6  0  0  0
  9 10  1  0  0  0  0
  9 19  1  0  0  0  0
 10 11  1  0  0  0  0
 11 12  1  0  0  0  0
 13 14  2  0  0  0  0
 13 18  1  0  0  0  0
 14 15  1  0  0  0  0
 15 16  2  0  0  0  0
 16 17  1  0  0  0  0
 16 25  1  0  0  0  0
 17 18  2  0  0  0  0
 21 22  1  0  0  0  0
 21 23  1  0  0  0  0
 21 24  1  0  0  0  0
 25 26  1  0  0  0  0
 25 27  1  0  0  0  0
 25 28  1  0  0  0  0
M  END
