120312
 OpenBabel03021519512D

 14 15  0  0  0  0  0  0  0  0999 V2000
   -6.8083   -2.6401    0.0000 N   0  0  0  0  0  0  0  0  0  0  0  0
   -6.8083   -4.1401    0.0000 N   0  0  0  0  0  0  0  0  0  0  0  0
   -4.9181   -6.0302    0.0000 O   0  0  0  0  0  0  0  0  0  0  0  0
   -5.3817   -2.1766    0.0000 C   0  0  0  0  0  0  0  0  0  0  0  0
   -4.5000   -3.3901    0.0000 C   0  0  0  0  0  0  0  0  0  0  0  0
   -5.3817   -4.6036    0.0000 C   0  0  0  0  0  0  0  0  0  0  0  0
   -8.1073   -1.8901    0.0000 C   0  0  0  0  0  0  0  0  0  0  0  0
   -9.4063   -2.6401    0.0000 C   0  0  0  0  0  0  0  0  0  0  0  0
   -9.4063   -4.1401    0.0000 C   0  0  0  0  0  0  0  0  0  0  0  0
   -8.1073   -4.8901    0.0000 C   0  0  0  0  0  0  0  0  0  0  0  0
   -4.9182   -0.7500    0.0000 C   0  0  0  0  0  0  0  0  0  0  0  0
   -3.0000   -3.3901    0.0000 C   0  0  0  0  0  0  0  0  0  0  0  0
   -2.2500   -4.6891    0.0000 C   0  0  0  0  0  0  0  0  0  0  0  0
   -0.7500   -4.6891    0.0000 O   0  0  0  0  0  0  0  0  0  0  0  0
  1  2  1  0  0  0  0
  1  4  1  0  0  0  0
  1  7  1  0  0  0  0
  2  6  1  0  0  0  0
  2 10  1  0  0  0  0
  3  6  2  0  0  0  0
  4  5  2  0  0  0  0
  4 11  1  0  0  0  0
  5  6  1  0  0  0  0
  5 12  1  0  0  0  0
  7  8  1  0  0  0  0
  8  9  1  0  0  0  0
  9 10  1  0  0  0  0
 12 13  1  0  0  0  0
 13 14  1  0  0  0  0
M  END
