164965
 OpenBabel03021519512D

 11 11  0  0  0  0  0  0  0  0999 V2000
   -4.1716   -7.7745    0.0000 Cl  0  0  0  0  0  0  0  0  0  0  0  0
   -4.1716   -3.2745    0.0000 C   0  0  0  0  0  0  0  0  0  0  0  0
   -5.4707   -4.0245    0.0000 C   0  0  0  0  0  0  0  0  0  0  0  0
   -2.8726   -4.0245    0.0000 C   0  0  0  0  0  0  0  0  0  0  0  0
   -2.8726   -5.5245    0.0000 C   0  0  0  0  0  0  0  0  0  0  0  0
   -5.4707   -5.5245    0.0000 C   0  0  0  0  0  0  0  0  0  0  0  0
   -4.1716   -6.2745    0.0000 C   0  0  0  0  0  0  0  0  0  0  0  0
   -1.5735   -3.2745    0.0000 N   0  0  0  0  0  0  0  0  0  0  0  0
   -0.2745   -4.0245    0.0000 C   0  0  0  0  0  0  0  0  0  0  0  0
   -0.2745   -5.5245    0.0000 S   0  0  0  0  0  0  0  0  0  0  0  0
    1.0245   -3.2745    0.0000 N   0  0  0  0  0  0  0  0  0  0  0  0
  1  7  1  0  0  0  0
  2  3  2  0  0  0  0
  2  4  1  0  0  0  0
  3  6  1  0  0  0  0
  4  5  2  0  0  0  0
  4  8  1  0  0  0  0
  5  7  1  0  0  0  0
  6  7  2  0  0  0  0
  8  9  1  0  0  0  0
  9 10  2  0  0  0  0
  9 11  1  0  0  0  0
M  END
