37187
 OpenBabel03021519512D

 22 24  0  0  0  0  0  0  0  0999 V2000
   -3.6226   -1.2255    0.0000 Cl  0  0  0  0  0  0  0  0  0  0  0  0
   -3.6226    3.2745    0.0000 C   0  0  0  0  0  0  0  0  0  0  0  0
   -4.9216    2.5245    0.0000 C   0  0  0  0  0  0  0  0  0  0  0  0
   -2.3236    2.5245    0.0000 C   0  0  0  0  0  0  0  0  0  0  0  0
   -2.3236    1.0245    0.0000 C   0  0  0  0  0  0  0  0  0  0  0  0
   -4.9216    1.0245    0.0000 C   0  0  0  0  0  0  0  0  0  0  0  0
   -3.6226    0.2745    0.0000 C   0  0  0  0  0  0  0  0  0  0  0  0
   -7.5197    7.0245    0.0000 C   0  0  0  0  0  0  0  0  0  0  0  0
   -8.8188    7.7745    0.0000 C   0  0  0  0  0  0  0  0  0  0  0  0
   -7.5197    5.5245    0.0000 C   0  0  0  0  0  0  0  0  0  0  0  0
   -8.8188    9.2745    0.0000 C   0  0  0  0  0  0  0  0  0  0  0  0
  -10.1178   10.0245    0.0000 C   0  0  0  0  0  0  0  0  0  0  0  0
   -8.8188    4.7745    0.0000 C   0  0  0  0  0  0  0  0  0  0  0  0
  -10.1178    7.0245    0.0000 C   0  0  0  0  0  0  0  0  0  0  0  0
  -11.4168    9.2745    0.0000 C   0  0  0  0  0  0  0  0  0  0  0  0
  -10.1178    5.5245    0.0000 C   0  0  0  0  0  0  0  0  0  0  0  0
  -11.4168    7.7745    0.0000 C   0  0  0  0  0  0  0  0  0  0  0  0
   -8.8188    3.2745    0.0000 O   0  0  0  0  0  0  0  0  0  0  0  0
   -6.2207    4.7745    0.0000 C   0  0  0  0  0  0  0  0  0  0  0  0
   -4.9216    5.5245    0.0000 O   0  0  0  0  0  0  0  0  0  0  0  0
   -6.2207    3.2745    0.0000 N   0  0  0  0  0  0  0  0  0  0  0  0
   -3.6226    4.7745    0.0000 C   0  0  0  0  0  0  0  0  0  0  0  0
  1  7  1  0  0  0  0
  2  3  2  0  0  0  0
  2  4  1  0  0  0  0
  2 22  1  0  0  0  0
  3  6  1  0  0  0  0
  3 21  1  0  0  0  0
  4  5  2  0  0  0  0
  5  7  1  0  0  0  0
  6  7  2  0  0  0  0
  8 10  2  0  0  0  0
  8  9  1  0  0  0  0
  9 14  2  0  0  0  0
  9 11  1  0  0  0  0
 10 13  1  0  0  0  0
 10 19  1  0  0  0  0
 11 12  2  0  0  0  0
 12 15  1  0  0  0  0
 13 16  2  0  0  0  0
 13 18  1  0  0  0  0
 14 17  1  0  0  0  0
 14 16  1  0  0  0  0
 15 17  2  0  0  0  0
 19 20  2  0  0  0  0
 19 21  1  0  0  0  0
M  END
