290311
 OpenBabel03021519512D

 31 34  0  0  1  0  0  0  0  0999 V2000
   -7.9242   -0.8373    0.0000 C   0  0  0  0  0  0  0  0  0  0  0  0
   -8.4184    0.5790    0.0000 C   0  0  0  0  0  0  0  0  0  0  0  0
   -7.2242    1.4866    0.0000 C   0  0  0  0  0  0  0  0  0  0  0  0
   -6.4245   -0.8049    0.0000 C   0  0  0  0  0  0  0  0  0  0  0  0
   -5.9919    0.6314    0.0000 N   0  0  0  0  0  0  0  0  0  0  0  0
   -2.6475    1.1000    0.0000 C   0  0  0  0  0  0  0  0  0  0  0  0
   -3.6269   -0.0362    0.0000 C   0  0  3  0  0  0  0  0  0  0  0  0
   -3.1327   -1.4524    0.0000 O   0  0  0  0  0  0  0  0  0  0  0  0
   -1.1739    0.8199    0.0000 C   0  0  0  0  0  0  0  0  0  0  0  0
   -0.6797   -0.5964    0.0000 C   0  0  3  0  0  0  0  0  0  0  0  0
   -1.6590   -1.7325    0.0000 C   0  0  0  0  0  0  0  0  0  0  0  0
    1.5612    0.4125    0.0000 C   0  0  0  0  0  0  0  0  0  0  0  0
    0.8285    1.7214    0.0000 O   0  0  0  0  0  0  0  0  0  0  0  0
   -4.5757    1.1256    0.0000 C   0  0  0  0  0  0  0  0  0  0  0  0
   -4.9358   -0.7688    0.0000 C   0  0  0  0  0  0  0  0  0  0  0  0
    0.7939   -0.8765    0.0000 N   0  0  0  0  0  0  0  0  0  0  0  0
   -0.3701   -2.4997    0.0000 C   0  0  0  0  0  0  0  0  0  0  0  0
   -2.1908   -3.1351    0.0000 C   0  0  0  0  0  0  0  0  0  0  0  0
    3.7937   -0.9164    0.0000 C   0  0  0  0  0  0  0  0  0  0  0  0
    5.2936   -0.9363    0.0000 C   0  0  0  0  0  0  0  0  0  0  0  0
    6.0262   -2.2452    0.0000 C   0  0  0  0  0  0  0  0  0  0  0  0
    5.2590   -3.5342    0.0000 C   0  0  0  0  0  0  0  0  0  0  0  0
    3.7591   -3.5142    0.0000 C   0  0  0  0  0  0  0  0  0  0  0  0
    3.0265   -2.2053    0.0000 C   0  0  0  0  0  0  0  0  0  0  0  0
    3.0610    0.3925    0.0000 C   0  0  3  0  0  0  0  0  0  0  0  0
    3.8282    1.6815    0.0000 C   0  0  0  0  0  0  0  0  0  0  0  0
    3.0956    2.9904    0.0000 C   0  0  0  0  0  0  0  0  0  0  0  0
    3.8628    4.2793    0.0000 C   0  0  0  0  0  0  0  0  0  0  0  0
    5.3627    4.2594    0.0000 C   0  0  0  0  0  0  0  0  0  0  0  0
    6.0953    2.9505    0.0000 C   0  0  0  0  0  0  0  0  0  0  0  0
    5.3281    1.6615    0.0000 C   0  0  0  0  0  0  0  0  0  0  0  0
  1  4  1  0  0  0  0
  1  2  1  0  0  0  0
  2  3  1  0  0  0  0
  3  5  1  0  0  0  0
  4  5  1  0  0  0  0
  5 14  1  0  0  0  0
  6  9  1  0  0  0  0
  6  7  1  0  0  0  0
  7  8  1  0  0  0  0
  7 14  1  0  0  0  0
  7 15  1  0  0  0  0
  8 11  1  0  0  0  0
  9 10  1  0  0  0  0
 10 11  1  0  0  0  0
 10 16  1  0  0  0  0
 11 17  1  0  0  0  0
 11 18  1  0  0  0  0
 12 13  2  0  0  0  0
 12 16  1  0  0  0  0
 12 25  1  0  0  0  0
 19 20  2  0  0  0  0
 19 24  1  0  0  0  0
 19 25  1  0  0  0  0
 20 21  1  0  0  0  0
 21 22  2  0  0  0  0
 22 23  1  0  0  0  0
 23 24  2  0  0  0  0
 25 26  1  0  0  0  0
 26 27  2  0  0  0  0
 26 31  1  0  0  0  0
 27 28  1  0  0  0  0
 28 29  2  0  0  0  0
 29 30  1  0  0  0  0
 30 31  2  0  0  0  0
M  END
