661122
 OpenBabel03021519512D

 27 30  0  0  1  0  0  0  0  0999 V2000
   -3.3156    7.7571    0.0000 C   0  0  0  0  0  0  0  0  0  0  0  0
   -3.3156    9.2571    0.0000 C   0  0  0  0  0  0  0  0  0  0  0  0
   -2.0166   10.0072    0.0000 C   0  0  0  0  0  0  0  0  0  0  0  0
   -0.7176    9.2572    0.0000 C   0  0  0  0  0  0  0  0  0  0  0  0
    0.5815   10.0072    0.0000 C   0  0  0  0  0  0  0  0  0  0  0  0
    1.8805    9.2572    0.0000 C   0  0  0  0  0  0  0  0  0  0  0  0
    1.8805    7.7572    0.0000 C   0  0  0  0  0  0  0  0  0  0  0  0
    0.5815    7.0072    0.0000 O   0  0  0  0  0  0  0  0  0  0  0  0
   -0.7176    7.7572    0.0000 C   0  0  0  0  0  0  0  0  0  0  0  0
   -2.0166    7.0072    0.0000 C   0  0  0  0  0  0  0  0  0  0  0  0
    0.5815   11.5072    0.0000 C   0  0  0  0  0  0  0  0  0  0  0  0
    1.8805   12.2572    0.0000 C   0  0  0  0  0  0  0  0  0  0  0  0
    1.8805   13.7572    0.0000 C   0  0  0  0  0  0  0  0  0  0  0  0
    3.1796    7.0072    0.0000 O   0  0  0  0  0  0  0  0  0  0  0  0
   -2.0166   11.5072    0.0000 O   0  0  0  0  0  0  0  0  0  0  0  0
   -3.3156   12.2571    0.0000 C   0  0  0  0  0  0  0  0  0  0  0  0
   -4.6147   11.5071    0.0000 C   0  0  0  0  0  0  0  0  0  0  0  0
   -4.6147   10.0071    0.0000 C   0  0  0  0  0  0  0  0  0  0  0  0
   -4.6147   13.0071    0.0000 C   0  0  0  0  0  0  0  0  0  0  0  0
   -2.5656   13.5562    0.0000 C   0  0  0  0  0  0  0  0  0  0  0  0
   -4.6147    7.0071    0.0000 O   0  0  0  0  0  0  0  0  0  0  0  0
   -4.6147    5.5071    0.0000 C   0  0  3  0  0  0  0  0  0  0  0  0
   -3.3156    4.7571    0.0000 C   0  0  1  0  0  0  0  0  0  0  0  0
   -2.0166    5.5071    0.0000 C   0  0  2  0  0  0  0  0  0  0  0  0
   -5.9137    4.7571    0.0000 C   0  0  0  0  0  0  0  0  0  0  0  0
   -3.3156    3.2571    0.0000 C   0  0  0  0  0  0  0  0  0  0  0  0
   -0.7176    4.7571    0.0000 O   0  0  0  0  0  0  0  0  0  0  0  0
  1  2  1  0  0  0  0
  1 10  2  0  0  0  0
  1 21  1  0  0  0  0
  2  3  2  0  0  0  0
  2 18  1  0  0  0  0
  3  4  1  0  0  0  0
  3 15  1  0  0  0  0
  4  5  1  0  0  0  0
  4  9  2  0  0  0  0
  5  6  2  0  0  0  0
  5 11  1  0  0  0  0
  6  7  1  0  0  0  0
  7  8  1  0  0  0  0
  7 14  2  0  0  0  0
  8  9  1  0  0  0  0
  9 10  1  0  0  0  0
 10 24  1  0  0  0  0
 11 12  1  0  0  0  0
 12 13  1  0  0  0  0
 15 16  1  0  0  0  0
 16 17  1  0  0  0  0
 16 19  1  0  0  0  0
 16 20  1  0  0  0  0
 17 18  2  0  0  0  0
 21 22  1  0  0  0  0
 22 23  1  0  0  0  0
 23 24  1  0  0  0  0
 23 26  1  1  0  0  0
 24 27  1  1  0  0  0
 25 22  1  0  0  0  0
M  END
