680495
 OpenBabel03021519512D

 19 21  0  0  0  0  0  0  0  0999 V2000
    1.6740    1.3995    0.0000 C   0  0  0  0  0  0  0  0  0  0  0  0
    1.6740   -0.1005    0.0000 C   0  0  0  0  0  0  0  0  0  0  0  0
    2.9731   -0.8505    0.0000 C   0  0  0  0  0  0  0  0  0  0  0  0
    4.2721   -0.1005    0.0000 C   0  0  0  0  0  0  0  0  0  0  0  0
    4.2721    1.3995    0.0000 C   0  0  0  0  0  0  0  0  0  0  0  0
    2.9731    2.1495    0.0000 C   0  0  0  0  0  0  0  0  0  0  0  0
    5.5712   -0.8505    0.0000 N   0  0  0  0  0  0  0  0  0  0  0  0
    6.8702   -0.1005    0.0000 C   0  0  0  0  0  0  0  0  0  0  0  0
    6.8702    1.3995    0.0000 C   0  0  0  0  0  0  0  0  0  0  0  0
    5.5712    2.1495    0.0000 C   0  0  0  0  0  0  0  0  0  0  0  0
    8.1692   -0.8505    0.0000 N   0  0  0  0  0  0  0  0  0  0  0  0
    9.4683   -0.1005    0.0000 N   0  0  0  0  0  0  0  0  0  0  0  0
   10.7673   -0.8505    0.0000 C   0  0  0  0  0  0  0  0  0  0  0  0
   10.7673   -2.3505    0.0000 C   0  0  0  0  0  0  0  0  0  0  0  0
   12.0663   -3.1005    0.0000 C   0  0  0  0  0  0  0  0  0  0  0  0
   13.3654   -2.3505    0.0000 C   0  0  0  0  0  0  0  0  0  0  0  0
   13.3654   -0.8505    0.0000 C   0  0  0  0  0  0  0  0  0  0  0  0
   12.0664   -0.1005    0.0000 C   0  0  0  0  0  0  0  0  0  0  0  0
   14.6644   -3.1005    0.0000 Br  0  0  0  0  0  0  0  0  0  0  0  0
  1  2  2  0  0  0  0
  1  6  1  0  0  0  0
  2  3  1  0  0  0  0
  3  4  2  0  0  0  0
  4  5  1  0  0  0  0
  4  7  1  0  0  0  0
  5  6  2  0  0  0  0
  5 10  1  0  0  0  0
  7  8  2  0  0  0  0
  8  9  1  0  0  0  0
  8 11  1  0  0  0  0
  9 10  2  0  0  0  0
 11 12  2  0  0  0  0
 12 13  1  0  0  0  0
 13 14  2  0  0  0  0
 13 18  1  0  0  0  0
 14 15  1  0  0  0  0
 15 16  2  0  0  0  0
 16 17  1  0  0  0  0
 16 19  1  0  0  0  0
 17 18  2  0  0  0  0
M  END
