309892
 OpenBabel03021519512D

 28 31  0  0  0  0  0  0  0  0999 V2000
   14.1737   -1.1364    0.0000 C   0  0  0  0  0  0  0  0  0  0  0  0
    6.0424    4.7620    0.0000 C   0  0  0  0  0  0  0  0  0  0  0  0
   15.4728   -1.8864    0.0000 C   0  0  0  0  0  0  0  0  0  0  0  0
   12.8747   -1.8864    0.0000 C   0  0  0  0  0  0  0  0  0  0  0  0
   11.4481   -1.4229    0.0000 C   0  0  0  0  0  0  0  0  0  0  0  0
    8.9265    0.0329    0.0000 C   0  0  0  0  0  0  0  0  0  0  0  0
    7.8118    1.0366    0.0000 C   0  0  0  0  0  0  0  0  0  0  0  0
    6.1992    3.2702    0.0000 C   0  0  0  0  0  0  0  0  0  0  0  0
    4.6721    5.3721    0.0000 C   0  0  0  0  0  0  0  0  0  0  0  0
   15.4728   -3.3864    0.0000 C   0  0  0  0  0  0  0  0  0  0  0  0
   12.8747   -3.3864    0.0000 C   0  0  0  0  0  0  0  0  0  0  0  0
   10.5664   -2.6364    0.0000 C   0  0  0  0  0  0  0  0  0  0  0  0
    8.3164   -1.3374    0.0000 C   0  0  0  0  0  0  0  0  0  0  0  0
    6.5128    0.2866    0.0000 C   0  0  0  0  0  0  0  0  0  0  0  0
    4.9857    2.3885    0.0000 C   0  0  0  0  0  0  0  0  0  0  0  0
    3.4586    4.4904    0.0000 C   0  0  0  0  0  0  0  0  0  0  0  0
   14.1737   -4.1364    0.0000 C   0  0  0  0  0  0  0  0  0  0  0  0
    3.6153    2.9986    0.0000 C   0  0  0  0  0  0  0  0  0  0  0  0
    6.8247   -1.1806    0.0000 S   0  0  0  0  0  0  0  0  0  0  0  0
    9.0664   -2.6364    0.0000 C   0  0  0  0  0  0  0  0  0  0  0  0
    8.3164   -3.9355    0.0000 O   0  0  0  0  0  0  0  0  0  0  0  0
   11.4481   -3.8499    0.0000 O   0  0  0  0  0  0  0  0  0  0  0  0
   16.7718   -1.1364    0.0000 Cl  0  0  0  0  0  0  0  0  0  0  0  0
    7.2559    5.6437    0.0000 C   0  0  0  0  0  0  0  0  0  0  0  0
    5.1425    0.8967    0.0000 N   0  0  0  0  0  0  0  0  0  0  0  0
    7.9686    2.5284    0.0000 C   0  0  0  0  0  0  0  0  0  0  0  0
    8.1254    4.0202    0.0000 N   0  0  0  0  0  0  0  0  0  0  0  0
   10.3938    0.3448    0.0000 N   0  0  0  0  0  0  0  0  0  0  0  0
  1  3  2  0  0  0  0
  1  4  1  0  0  0  0
  2  8  2  0  0  0  0
  2  9  1  0  0  0  0
  2 24  1  0  0  0  0
  3 23  1  0  0  0  0
  3 10  1  0  0  0  0
  4  5  1  0  0  0  0
  4 11  2  0  0  0  0
  5 12  2  0  0  0  0
  6  7  1  0  0  0  0
  6 13  2  0  0  0  0
  6 28  1  0  0  0  0
  7 14  2  0  0  0  0
  7 26  1  0  0  0  0
  8 15  1  0  0  0  0
  9 16  2  0  0  0  0
 10 17  2  0  0  0  0
 11 17  1  0  0  0  0
 11 22  1  0  0  0  0
 12 20  1  0  0  0  0
 12 22  1  0  0  0  0
 13 20  1  0  0  0  0
 13 19  1  0  0  0  0
 14 25  1  0  0  0  0
 14 19  1  0  0  0  0
 15 18  2  0  0  0  0
 15 25  1  0  0  0  0
 16 18  1  0  0  0  0
 20 21  2  0  0  0  0
 26 27  3  0  0  0  0
M  END
