35545
 OpenBabel03021519512D

 23 26  0  0  1  0  0  0  0  0999 V2000
    0.0744    0.4378    0.0000 H   0  0  0  0  0  0  0  0  0  0  0  0
    0.3944    1.7847    0.0000 N   0  0  0  0  0  0  0  0  0  0  0  0
    1.8844   -1.5042    0.0000 O   0  0  0  0  0  0  0  0  0  0  0  0
    1.1044    1.7847    0.0000 C   0  0  0  0  0  0  0  0  0  0  0  0
    0.3944    1.0747    0.0000 C   0  0  1  0  0  0  0  0  0  0  0  0
    0.7625    0.4378    0.0000 C   0  0  2  0  0  0  0  0  0  0  0  0
   -0.3415    1.0747    0.0000 C   0  0  0  0  0  0  0  0  0  0  0  0
   -0.7094    0.4378    0.0000 C   0  0  0  0  0  0  0  0  0  0  0  0
    1.5005    0.4348    0.0000 C   0  0  0  0  0  0  0  0  0  0  0  0
    1.8685   -0.2022    0.0000 C   0  0  0  0  0  0  0  0  0  0  0  0
    0.3944   -0.2001    0.0000 C   0  0  2  0  0  0  0  0  0  0  0  0
   -0.3415   -0.2001    0.0000 C   0  0  0  0  0  0  0  0  0  0  0  0
   -1.4454    0.4378    0.0000 C   0  0  0  0  0  0  0  0  0  0  0  0
   -1.8135   -0.2001    0.0000 C   0  0  0  0  0  0  0  0  0  0  0  0
    1.1044   -0.2001    0.0000 C   0  0  0  0  0  0  0  0  0  0  0  0
    1.5005   -0.8401    0.0000 C   0  0  0  0  0  0  0  0  0  0  0  0
    0.7644   -0.8401    0.0000 C   0  0  0  0  0  0  0  0  0  0  0  0
   -0.7094   -0.8372    0.0000 C   0  0  0  0  0  0  0  0  0  0  0  0
   -1.4454   -0.8372    0.0000 C   0  0  0  0  0  0  0  0  0  0  0  0
   -1.8164   -1.4792    0.0000 O   0  0  0  0  0  0  0  0  0  0  0  0
   -2.5564   -1.4789    0.0000 C   0  0  0  0  0  0  0  0  0  0  0  0
   -0.3184   -1.5152    0.0000 O   0  0  0  0  0  0  0  0  0  0  0  0
   -0.2504    2.4297    0.0000 C   0  0  0  0  0  0  0  0  0  0  0  0
  2  4  1  0  0  0  0
  2 23  1  0  0  0  0
  3 16  2  0  0  0  0
  4 15  1  0  0  0  0
  5  2  1  1  0  0  0
  5  6  1  0  0  0  0
  5  7  1  0  0  0  0
  6  1  1  1  0  0  0
  6  9  1  0  0  0  0
  6 11  1  0  0  0  0
  7  8  1  0  0  0  0
  8 12  2  0  0  0  0
  8 13  1  0  0  0  0
  9 10  1  0  0  0  0
 10 16  1  0  0  0  0
 11 17  1  6  0  0  0
 11 15  1  0  0  0  0
 11 12  1  0  0  0  0
 12 18  1  0  0  0  0
 13 14  2  0  0  0  0
 14 19  1  0  0  0  0
 16 17  1  0  0  0  0
 18 19  2  0  0  0  0
 18 22  1  0  0  0  0
 19 20  1  0  0  0  0
 20 21  1  0  0  0  0
M  END
