61910
 OpenBabel03021519512D

 18 19  0  0  0  0  0  0  0  0999 V2000
   -2.3236   -8.5245    0.0000 N   0  0  0  0  0  0  0  0  0  0  0  0
   -1.0245   -6.2745    0.0000 O   0  0  0  0  0  0  0  0  0  0  0  0
   -1.0245  -10.7745    0.0000 N   0  0  0  0  0  0  0  0  0  0  0  0
   -1.0245  -12.2745    0.0000 H   0  0  0  0  0  0  0  0  0  0  0  0
   -1.0245   -7.7745    0.0000 C   0  0  0  0  0  0  0  0  0  0  0  0
    0.2745   -8.5245    0.0000 C   0  0  0  0  0  0  0  0  0  0  0  0
    0.2745  -10.0245    0.0000 C   0  0  0  0  0  0  0  0  0  0  0  0
    0.2745   -5.5245    0.0000 C   0  0  0  0  0  0  0  0  0  0  0  0
    1.5736   -6.2745    0.0000 C   0  0  0  0  0  0  0  0  0  0  0  0
    0.2745   -4.0245    0.0000 C   0  0  0  0  0  0  0  0  0  0  0  0
    1.5736   -3.2745    0.0000 C   0  0  0  0  0  0  0  0  0  0  0  0
    2.8726   -5.5245    0.0000 C   0  0  0  0  0  0  0  0  0  0  0  0
    2.8726   -4.0245    0.0000 C   0  0  0  0  0  0  0  0  0  0  0  0
   -2.3236  -10.0245    0.0000 C   0  0  0  0  0  0  0  0  0  0  0  0
    1.5736  -10.7745    0.0000 O   0  0  0  0  0  0  0  0  0  0  0  0
    1.5736   -7.7745    0.0000 N   0  0  0  0  0  0  0  0  0  0  0  0
   -1.0245   -3.2745    0.0000 C   0  0  0  0  0  0  0  0  0  0  0  0
    1.5736   -1.7745    0.0000 C   0  0  0  0  0  0  0  0  0  0  0  0
  1 14  2  0  0  0  0
  1  5  1  0  0  0  0
  2  5  2  0  0  0  0
  3  7  1  0  0  0  0
  3 14  1  0  0  0  0
  3  4  1  0  0  0  0
  5  6  1  0  0  0  0
  6  7  2  0  0  0  0
  6 16  1  0  0  0  0
  7 15  1  0  0  0  0
  8  9  2  0  0  0  0
  8 10  1  0  0  0  0
  9 12  1  0  0  0  0
  9 16  1  0  0  0  0
 10 11  2  0  0  0  0
 10 17  1  0  0  0  0
 11 13  1  0  0  0  0
 11 18  1  0  0  0  0
 12 13  2  0  0  0  0
M  END
