206630
 OpenBabel03021519512D

 12 12  0  0  0  0  0  0  0  0999 V2000
   -5.5607   -2.2874    0.0000 C   0  0  0  0  0  0  0  0  0  0  0  0
   -4.5000   -3.3481    0.0000 C   0  0  0  0  0  0  0  0  0  0  0  0
   -5.5607   -4.4087    0.0000 C   0  0  0  0  0  0  0  0  0  0  0  0
   -6.6213   -3.3481    0.0000 N   0  0  0  0  0  0  0  0  0  0  0  0
   -3.0000   -3.3481    0.0000 O   0  0  0  0  0  0  0  0  0  0  0  0
   -2.2500   -2.0490    0.0000 C   0  0  0  0  0  0  0  0  0  0  0  0
   -3.0000   -0.7500    0.0000 O   0  0  0  0  0  0  0  0  0  0  0  0
   -8.1213   -3.3481    0.0000 C   0  0  0  0  0  0  0  0  0  0  0  0
   -8.1213   -1.8481    0.0000 C   0  0  0  0  0  0  0  0  0  0  0  0
   -9.6213   -3.3481    0.0000 C   0  0  0  0  0  0  0  0  0  0  0  0
   -8.1213   -4.8481    0.0000 C   0  0  0  0  0  0  0  0  0  0  0  0
   -0.7500   -2.0490    0.0000 N   0  0  0  0  0  0  0  0  0  0  0  0
  1  4  1  0  0  0  0
  1  2  1  0  0  0  0
  2  5  1  0  0  0  0
  2  3  1  0  0  0  0
  3  4  1  0  0  0  0
  4  8  1  0  0  0  0
  5  6  1  0  0  0  0
  6  7  2  0  0  0  0
  6 12  1  0  0  0  0
  8  9  1  0  0  0  0
  8 10  1  0  0  0  0
  8 11  1  0  0  0  0
M  END
