246415
 OpenBabel03021519512D

 15 17  0  0  0  0  0  0  0  0999 V2000
    1.6740    1.3995    0.0000 C   0  0  0  0  0  0  0  0  0  0  0  0
    1.6740   -0.1005    0.0000 C   0  0  0  0  0  0  0  0  0  0  0  0
    2.9731    2.1495    0.0000 C   0  0  0  0  0  0  0  0  0  0  0  0
    2.9731   -0.8505    0.0000 C   0  0  0  0  0  0  0  0  0  0  0  0
    4.2721    1.3995    0.0000 C   0  0  0  0  0  0  0  0  0  0  0  0
    4.2721   -0.1005    0.0000 C   0  0  0  0  0  0  0  0  0  0  0  0
    5.5711    3.6495    0.0000 H   0  0  0  0  0  0  0  0  0  0  0  0
    5.5712   -0.8505    0.0000 N   0  0  0  0  0  0  0  0  0  0  0  0
    5.5712    2.1495    0.0000 N   0  0  0  0  0  0  0  0  0  0  0  0
    5.8830   -2.3177    0.0000 C   0  0  0  0  0  0  0  0  0  0  0  0
    6.8702   -0.1004    0.0000 C   0  0  0  0  0  0  0  0  0  0  0  0
    6.8702    1.3996    0.0000 C   0  0  0  0  0  0  0  0  0  0  0  0
    7.9849   -1.1041    0.0000 C   0  0  0  0  0  0  0  0  0  0  0  0
    7.3748   -2.4745    0.0000 C   0  0  0  0  0  0  0  0  0  0  0  0
    8.1692    2.1496    0.0000 S   0  0  0  0  0  0  0  0  0  0  0  0
  1  3  2  0  0  0  0
  1  2  1  0  0  0  0
  2  4  2  0  0  0  0
  3  5  1  0  0  0  0
  4  6  1  0  0  0  0
  5  9  1  0  0  0  0
  5  6  2  0  0  0  0
  6  8  1  0  0  0  0
  7  9  1  0  0  0  0
  8 11  1  0  0  0  0
  8 10  1  0  0  0  0
  9 12  1  0  0  0  0
 10 14  2  0  0  0  0
 11 12  1  0  0  0  0
 11 13  2  0  0  0  0
 12 15  2  0  0  0  0
 13 14  1  0  0  0  0
M  END
