135857
 OpenBabel03021519512D

 10 10  0  0  1  0  0  0  0  0999 V2000
    2.8713    2.2500    0.0000 N   0  0  0  0  0  0  0  0  0  0  0  0
    4.3713    2.2500    0.0000 C   0  0  3  0  0  0  0  0  0  0  0  0
    4.3713    0.7500    0.0000 C   0  0  0  0  0  0  0  0  0  0  0  0
    2.8713    0.7500    0.0000 C   0  0  0  0  0  0  0  0  0  0  0  0
    1.8107    3.3107    0.0000 C   0  0  0  0  0  0  0  0  0  0  0  0
    0.7500    2.2500    0.0000 C   0  0  0  0  0  0  0  0  0  0  0  0
    0.7500    4.3713    0.0000 C   0  0  0  0  0  0  0  0  0  0  0  0
    2.8713    4.3713    0.0000 C   0  0  0  0  0  0  0  0  0  0  0  0
    5.4320    3.3107    0.0000 C   0  0  0  0  0  0  0  0  0  0  0  0
    6.8809    2.9224    0.0000 N   0  0  0  0  0  0  0  0  0  0  0  0
  1  2  1  0  0  0  0
  1  4  1  0  0  0  0
  1  5  1  0  0  0  0
  2  3  1  0  0  0  0
  2  9  1  0  0  0  0
  3  4  1  0  0  0  0
  5  6  1  0  0  0  0
  5  7  1  0  0  0  0
  5  8  1  0  0  0  0
  9 10  1  0  0  0  0
M  END
