366801
 OpenBabel03021519512D

 23 25  0  0  0  0  0  0  0  0999 V2000
    3.0035    3.7022    0.0000 C   0  0  0  0  0  0  0  0  0  0  0  0
    2.3934    2.3319    0.0000 C   0  0  0  0  0  0  0  0  0  0  0  0
    3.8852    2.4887    0.0000 C   0  0  0  0  0  0  0  0  0  0  0  0
    6.5545    2.6286    0.0000 N   0  0  0  0  0  0  0  0  0  0  0  0
    5.2555    1.8786    0.0000 C   0  0  0  0  0  0  0  0  0  0  0  0
    7.6692    1.6249    0.0000 N   0  0  0  0  0  0  0  0  0  0  0  0
    7.0591    0.2546    0.0000 C   0  0  0  0  0  0  0  0  0  0  0  0
    5.5673    0.4113    0.0000 C   0  0  0  0  0  0  0  0  0  0  0  0
    7.0591   -2.3435    0.0000 C   0  0  0  0  0  0  0  0  0  0  0  0
    5.5591   -2.3435    0.0000 O   0  0  0  0  0  0  0  0  0  0  0  0
    9.3091   -3.6426    0.0000 C   0  0  0  0  0  0  0  0  0  0  0  0
   10.0592   -4.9416    0.0000 C   0  0  0  0  0  0  0  0  0  0  0  0
   10.0591   -2.3435    0.0000 C   0  0  0  0  0  0  0  0  0  0  0  0
   11.5592   -4.9416    0.0000 C   0  0  0  0  0  0  0  0  0  0  0  0
   11.5591   -2.3435    0.0000 C   0  0  0  0  0  0  0  0  0  0  0  0
   12.3091   -3.6425    0.0000 C   0  0  0  0  0  0  0  0  0  0  0  0
   13.8091   -3.6425    0.0000 Cl  0  0  0  0  0  0  0  0  0  0  0  0
    9.1365    1.9367    0.0000 C   0  0  0  0  0  0  0  0  0  0  0  0
    8.8246    3.4040    0.0000 C   0  0  0  0  0  0  0  0  0  0  0  0
    9.4483    0.4695    0.0000 C   0  0  0  0  0  0  0  0  0  0  0  0
   10.6037    2.2486    0.0000 C   0  0  0  0  0  0  0  0  0  0  0  0
    7.8091   -1.0445    0.0000 N   0  0  0  0  0  0  0  0  0  0  0  0
    7.8091   -3.6426    0.0000 N   0  0  0  0  0  0  0  0  0  0  0  0
  1  3  1  0  0  0  0
  1  2  1  0  0  0  0
  2  3  1  0  0  0  0
  3  5  1  0  0  0  0
  4  6  1  0  0  0  0
  4  5  2  0  0  0  0
  5  8  1  0  0  0  0
  6  7  1  0  0  0  0
  6 18  1  0  0  0  0
  7  8  2  0  0  0  0
  7 22  1  0  0  0  0
  9 10  2  0  0  0  0
  9 22  1  0  0  0  0
  9 23  1  0  0  0  0
 11 13  2  0  0  0  0
 11 12  1  0  0  0  0
 11 23  1  0  0  0  0
 12 14  2  0  0  0  0
 13 15  1  0  0  0  0
 14 16  1  0  0  0  0
 15 16  2  0  0  0  0
 16 17  1  0  0  0  0
 18 19  1  0  0  0  0
 18 20  1  0  0  0  0
 18 21  1  0  0  0  0
M  END
