311153
 OpenBabel03021519512D

 33 36  0  0  0  0  0  0  0  0999 V2000
    1.1521   10.0590    0.0000 C   0  0  0  0  0  0  0  0  0  0  0  0
    0.2705    8.8455    0.0000 C   0  0  0  0  0  0  0  0  0  0  0  0
    2.6439    9.9022    0.0000 C   0  0  0  0  0  0  0  0  0  0  0  0
    0.8806    7.4752    0.0000 C   0  0  0  0  0  0  0  0  0  0  0  0
    3.2540    8.5319    0.0000 C   0  0  0  0  0  0  0  0  0  0  0  0
    2.3724    7.3184    0.0000 C   0  0  0  0  0  0  0  0  0  0  0  0
    3.2540    6.1048    0.0000 N   0  0  0  0  0  0  0  0  0  0  0  0
    2.7905    4.6783    0.0000 H   0  0  0  0  0  0  0  0  0  0  0  0
    4.6806    8.0684    0.0000 C   0  0  0  0  0  0  0  0  0  0  0  0
    4.6806    6.5684    0.0000 C   0  0  0  0  0  0  0  0  0  0  0  0
    5.9797    5.8184    0.0000 C   0  0  0  0  0  0  0  0  0  0  0  0
    5.9797    8.8184    0.0000 C   0  0  0  0  0  0  0  0  0  0  0  0
    7.2787    8.0684    0.0000 C   0  0  0  0  0  0  0  0  0  0  0  0
    7.2787    6.5684    0.0000 C   0  0  0  0  0  0  0  0  0  0  0  0
    8.5777    8.8184    0.0000 C   0  0  0  0  0  0  0  0  0  0  0  0
    8.5777    5.8184    0.0000 C   0  0  0  0  0  0  0  0  0  0  0  0
    9.8768    6.5684    0.0000 C   0  0  0  0  0  0  0  0  0  0  0  0
    9.8768    8.0684    0.0000 N   0  3  0  0  0  0  0  0  0  0  0  0
    9.8768   11.0684    0.0000 N   0  0  0  0  0  0  0  0  0  0  0  0
    8.5777   10.3184    0.0000 C   0  0  0  0  0  0  0  0  0  0  0  0
    9.8768   12.5684    0.0000 C   0  0  0  0  0  0  0  0  0  0  0  0
    7.2787   11.0684    0.0000 C   0  0  0  0  0  0  0  0  0  0  0  0
    8.5778   13.3184    0.0000 C   0  0  0  0  0  0  0  0  0  0  0  0
    7.2787   12.5684    0.0000 C   0  0  0  0  0  0  0  0  0  0  0  0
    0.9242    4.3996    0.0000 O   0  5  0  0  0  0  0  0  0  0  0  0
    0.5420   11.4293    0.0000 O   0  0  0  0  0  0  0  0  0  0  0  0
    5.9797   10.3184    0.0000 C   0  0  0  0  0  0  0  0  0  0  0  0
    5.9797    4.3184    0.0000 C   0  0  0  0  0  0  0  0  0  0  0  0
   11.1758    8.8183    0.0000 C   0  0  0  0  0  0  0  0  0  0  0  0
   11.1758   10.3183    0.0000 C   0  0  0  0  0  0  0  0  0  0  0  0
    0.9242    2.8996    0.0000 C   0  0  0  0  0  0  0  0  0  0  0  0
    2.2232    2.1496    0.0000 O   0  0  0  0  0  0  0  0  0  0  0  0
   -0.3749    2.1496    0.0000 C   0  0  0  0  0  0  0  0  0  0  0  0
  1  3  2  0  0  0  0
  1  2  1  0  0  0  0
  1 26  1  0  0  0  0
  2  4  2  0  0  0  0
  3  5  1  0  0  0  0
  4  6  1  0  0  0  0
  5  9  1  0  0  0  0
  5  6  2  0  0  0  0
  6  7  1  0  0  0  0
  7 10  1  0  0  0  0
  7  8  1  0  0  0  0
  9 12  2  0  0  0  0
  9 10  1  0  0  0  0
 10 11  2  0  0  0  0
 11 14  1  0  0  0  0
 11 28  1  0  0  0  0
 12 13  1  0  0  0  0
 12 27  1  0  0  0  0
 13 15  1  0  0  0  0
 13 14  2  0  0  0  0
 14 16  1  0  0  0  0
 15 18  2  0  0  0  0
 16 17  2  0  0  0  0
 17 18  1  0  0  0  0
 18 29  1  0  0  0  0
 19 20  1  0  0  0  0
 19 21  1  0  0  0  0
 19 30  1  0  0  0  0
 20 22  1  0  0  0  0
 21 23  1  0  0  0  0
 22 24  1  0  0  0  0
 23 24  1  0  0  0  0
 25 31  1  0  0  0  0
 29 30  1  0  0  0  0
 31 32  2  0  0  0  0
 31 33  1  0  0  0  0
M  CHG  2  18   1  25  -1
M  END
