372275
 OpenBabel03021519512D

 25 28  0  0  1  0  0  0  0  0999 V2000
    1.4731    4.9485    0.0000 C   0  0  0  0  0  0  0  0  0  0  0  0
    1.4731    3.4485    0.0000 C   0  0  0  0  0  0  0  0  0  0  0  0
    2.7721    5.6985    0.0000 C   0  0  0  0  0  0  0  0  0  0  0  0
    2.7721    2.6985    0.0000 C   0  0  0  0  0  0  0  0  0  0  0  0
    4.0712    4.9485    0.0000 C   0  0  0  0  0  0  0  0  0  0  0  0
    4.0712    3.4485    0.0000 C   0  0  0  0  0  0  0  0  0  0  0  0
    5.3702    5.6985    0.0000 C   0  0  3  0  0  0  0  0  0  0  0  0
    5.5270    7.1903    0.0000 C   0  0  0  0  0  0  0  0  0  0  0  0
    6.7405    5.0884    0.0000 O   0  0  0  0  0  0  0  0  0  0  0  0
    7.7442    6.2031    0.0000 C   0  0  0  0  0  0  0  0  0  0  0  0
    6.9942    7.5022    0.0000 C   0  0  0  0  0  0  0  0  0  0  0  0
    9.2442    6.2031    0.0000 N   0  0  0  0  0  0  0  0  0  0  0  0
    7.7442    8.8012    0.0000 N   0  0  0  0  0  0  0  0  0  0  0  0
    6.9942   10.1003    0.0000 H   0  0  0  0  0  0  0  0  0  0  0  0
    9.9942    7.5022    0.0000 C   0  0  0  0  0  0  0  0  0  0  0  0
    9.2442    8.8012    0.0000 C   0  0  0  0  0  0  0  0  0  0  0  0
   11.4942    7.5022    0.0000 C   0  0  0  0  0  0  0  0  0  0  0  0
    9.9943   10.1003    0.0000 C   0  0  0  0  0  0  0  0  0  0  0  0
   11.4943   10.1002    0.0000 C   0  0  0  0  0  0  0  0  0  0  0  0
   12.2442    8.8012    0.0000 C   0  0  0  0  0  0  0  0  0  0  0  0
    0.1741    2.6985    0.0000 O   0  0  0  0  0  0  0  0  0  0  0  0
   -1.1250    3.4485    0.0000 C   0  0  0  0  0  0  0  0  0  0  0  0
    4.4123    8.1940    0.0000 O   0  0  0  0  0  0  0  0  0  0  0  0
   13.7442    8.8012    0.0000 C   0  0  0  0  0  0  0  0  0  0  0  0
   12.2443   11.3993    0.0000 C   0  0  0  0  0  0  0  0  0  0  0  0
  1  3  1  0  0  0  0
  1  2  2  0  0  0  0
  2  4  1  0  0  0  0
  2 21  1  0  0  0  0
  3  5  2  0  0  0  0
  4  6  2  0  0  0  0
  5  7  1  0  0  0  0
  5  6  1  0  0  0  0
  7  8  1  0  0  0  0
  7  9  1  0  0  0  0
  8 11  2  0  0  0  0
  8 23  1  0  0  0  0
  9 10  1  0  0  0  0
 10 11  1  0  0  0  0
 10 12  2  0  0  0  0
 11 13  1  0  0  0  0
 12 15  1  0  0  0  0
 13 14  1  0  0  0  0
 13 16  1  0  0  0  0
 15 16  2  0  0  0  0
 15 17  1  0  0  0  0
 16 18  1  0  0  0  0
 17 20  2  0  0  0  0
 18 19  2  0  0  0  0
 19 20  1  0  0  0  0
 19 25  1  0  0  0  0
 20 24  1  0  0  0  0
 21 22  1  0  0  0  0
M  END
