55172
 OpenBabel03021519512D

 20 20  0  0  1  0  0  0  0  0999 V2000
    6.1517    8.6121    0.0000 O   0  0  0  0  0  0  0  0  0  0  0  0
    4.6959    6.3703    0.0000 N   0  0  0  0  0  0  0  0  0  0  0  0
    8.5768    6.4285    0.0000 O   0  0  0  0  0  0  0  0  0  0  0  0
    7.1096    6.1166    0.0000 C   0  0  0  0  0  0  0  0  0  0  0  0
    5.9949    7.1203    0.0000 C   0  0  0  0  0  0  0  0  0  0  0  0
    6.4995    4.7463    0.0000 C   0  0  3  0  0  0  0  0  0  0  0  0
    5.0077    4.9031    0.0000 C   0  0  3  0  0  0  0  0  0  0  0  0
    4.0040    3.7884    0.0000 C   0  0  0  0  0  0  0  0  0  0  0  0
    4.4675    2.3618    0.0000 O   0  0  0  0  0  0  0  0  0  0  0  0
    7.2495    3.4473    0.0000 C   0  0  0  0  0  0  0  0  0  0  0  0
    6.4995    2.1482    0.0000 O   0  0  0  0  0  0  0  0  0  0  0  0
    2.5368    4.1003    0.0000 O   0  0  0  0  0  0  0  0  0  0  0  0
    1.5331    2.9856    0.0000 C   0  0  0  0  0  0  0  0  0  0  0  0
    0.0659    3.2974    0.0000 C   0  0  0  0  0  0  0  0  0  0  0  0
    8.7495    3.4473    0.0000 O   0  0  0  0  0  0  0  0  0  0  0  0
    9.4995    4.7463    0.0000 C   0  0  0  0  0  0  0  0  0  0  0  0
   10.9995    4.7463    0.0000 C   0  0  0  0  0  0  0  0  0  0  0  0
    3.3255    6.9804    0.0000 C   0  0  0  0  0  0  0  0  0  0  0  0
    3.1687    8.4722    0.0000 C   0  0  0  0  0  0  0  0  0  0  0  0
    2.1120    6.0988    0.0000 C   0  0  0  0  0  0  0  0  0  0  0  0
  1  5  2  0  0  0  0
  2  5  1  0  0  0  0
  2  7  1  0  0  0  0
  2 18  1  0  0  0  0
  3  4  2  0  0  0  0
  4  5  1  0  0  0  0
  4  6  1  0  0  0  0
  6  7  1  0  0  0  0
  6 10  1  0  0  0  0
  7  8  1  0  0  0  0
  8  9  2  0  0  0  0
  8 12  1  0  0  0  0
 10 11  2  0  0  0  0
 10 15  1  0  0  0  0
 12 13  1  0  0  0  0
 13 14  1  0  0  0  0
 15 16  1  0  0  0  0
 16 17  1  0  0  0  0
 18 19  1  0  0  0  0
 18 20  1  0  0  0  0
M  END
