6910
 OpenBabel03021519512D

 18 18  0  0  0  0  0  0  0  0999 V2000
   -0.9240    7.3995    0.0000 C   0  0  0  0  0  0  0  0  0  0  0  0
   -2.2231    6.6495    0.0000 C   0  0  0  0  0  0  0  0  0  0  0  0
    0.3750    6.6495    0.0000 C   0  0  0  0  0  0  0  0  0  0  0  0
    0.3750    5.1495    0.0000 C   0  0  0  0  0  0  0  0  0  0  0  0
   -2.2231    5.1495    0.0000 C   0  0  0  0  0  0  0  0  0  0  0  0
   -0.9240    4.3995    0.0000 C   0  0  0  0  0  0  0  0  0  0  0  0
   -0.9240    2.8995    0.0000 N   0  3  0  0  0  0  0  0  0  0  0  0
   -2.2231    2.1495    0.0000 O   0  5  0  0  0  0  0  0  0  0  0  0
    0.3750    2.1495    0.0000 O   0  0  0  0  0  0  0  0  0  0  0  0
    1.6740    7.3995    0.0000 C   0  0  0  0  0  0  0  0  0  0  0  0
    2.9731    6.6495    0.0000 O   0  0  0  0  0  0  0  0  0  0  0  0
    1.6740    8.8995    0.0000 N   0  0  0  0  0  0  0  0  0  0  0  0
    0.3750    9.6495    0.0000 C   0  0  0  0  0  0  0  0  0  0  0  0
   -0.9240    8.8995    0.0000 C   0  0  0  0  0  0  0  0  0  0  0  0
    0.3750   11.1495    0.0000 C   0  0  0  0  0  0  0  0  0  0  0  0
    2.9731    9.6495    0.0000 C   0  0  0  0  0  0  0  0  0  0  0  0
    4.2721    8.8995    0.0000 C   0  0  0  0  0  0  0  0  0  0  0  0
    2.9731   11.1495    0.0000 C   0  0  0  0  0  0  0  0  0  0  0  0
  1  2  2  0  0  0  0
  1  3  1  0  0  0  0
  2  5  1  0  0  0  0
  3  4  2  0  0  0  0
  3 10  1  0  0  0  0
  4  6  1  0  0  0  0
  5  6  2  0  0  0  0
  6  7  1  0  0  0  0
  7  8  1  0  0  0  0
  7  9  2  0  0  0  0
 10 11  2  0  0  0  0
 10 12  1  0  0  0  0
 12 13  1  0  0  0  0
 12 16  1  0  0  0  0
 13 14  1  0  0  0  0
 13 15  1  0  0  0  0
 16 17  1  0  0  0  0
 16 18  1  0  0  0  0
M  CHG  2   7   1   8  -1
M  END
