601351
 OpenBabel03021519512D

 17 18  0  0  1  0  0  0  0  0999 V2000
    3.2134    2.1126    0.0000 N   0  0  0  0  0  0  0  0  0  0  0  0
    1.7580    1.7497    0.0000 C   0  0  0  0  0  0  0  0  0  0  0  0
    0.9631    3.0218    0.0000 N   0  0  0  0  0  0  0  0  0  0  0  0
    1.9273    4.1709    0.0000 C   0  0  0  0  0  0  0  0  0  0  0  0
    3.3181    3.6090    0.0000 C   0  0  0  0  0  0  0  0  0  0  0  0
    4.3625    1.1485    0.0000 C   0  0  0  0  0  0  0  0  0  0  0  0
    5.6616    1.8985    0.0000 C   0  0  3  0  0  0  0  0  0  0  0  0
    6.9606    1.1485    0.0000 C   0  0  0  0  0  0  0  0  0  0  0  0
    8.2596    1.8985    0.0000 N   0  0  0  0  0  0  0  0  0  0  0  0
    9.7596    1.8985    0.0000 C   0  0  2  0  0  0  0  0  0  0  0  0
    9.0096    3.1975    0.0000 C   0  0  2  0  0  0  0  0  0  0  0  0
    5.6615    3.3985    0.0000 O   0  0  0  0  0  0  0  0  0  0  0  0
   11.0587    1.1485    0.0000 C   0  0  0  0  0  0  0  0  0  0  0  0
    9.0096    4.6975    0.0000 C   0  0  0  0  0  0  0  0  0  0  0  0
    1.1961    0.3590    0.0000 N   0  3  0  0  0  0  0  0  0  0  0  0
    2.1196   -0.8231    0.0000 O   0  5  0  0  0  0  0  0  0  0  0  0
   -0.2893    0.1502    0.0000 O   0  0  0  0  0  0  0  0  0  0  0  0
  1  2  1  0  0  0  0
  1  5  1  0  0  0  0
  1  6  1  0  0  0  0
  2  3  2  0  0  0  0
  2 15  1  0  0  0  0
  3  4  1  0  0  0  0
  4  5  2  0  0  0  0
  6  7  1  0  0  0  0
  7  8  1  0  0  0  0
  7 12  1  0  0  0  0
  8  9  1  0  0  0  0
  9 10  1  0  0  0  0
  9 11  1  0  0  0  0
 10 11  1  0  0  0  0
 10 13  1  6  0  0  0
 11 14  1  1  0  0  0
 15 16  1  0  0  0  0
 15 17  2  0  0  0  0
M  CHG  2  15   1  16  -1
M  END
