25673
 OpenBabel03021519512D

 23 25  0  0  0  0  0  0  0  0999 V2000
   -8.7703   -8.9296    0.0000 Cl  0  0  0  0  0  0  0  0  0  0  0  0
   -6.1723   -4.4296    0.0000 Cl  0  0  0  0  0  0  0  0  0  0  0  0
   -3.5742   -5.9296    0.0000 N   0  0  0  0  0  0  0  0  0  0  0  0
    0.3229   -3.6796    0.0000 N   0  0  0  0  0  0  0  0  0  0  0  0
    1.6220   -4.4296    0.0000 C   0  0  0  0  0  0  0  0  0  0  0  0
    1.6220   -5.9296    0.0000 C   0  0  0  0  0  0  0  0  0  0  0  0
    0.3229   -6.6796    0.0000 C   0  0  0  0  0  0  0  0  0  0  0  0
   -0.9761   -5.9296    0.0000 C   0  0  0  0  0  0  0  0  0  0  0  0
   -0.9761   -4.4296    0.0000 C   0  0  0  0  0  0  0  0  0  0  0  0
   -2.2751   -6.6796    0.0000 C   0  0  0  0  0  0  0  0  0  0  0  0
   -2.2751   -8.1796    0.0000 C   0  0  0  0  0  0  0  0  0  0  0  0
   -3.5742   -8.9296    0.0000 C   0  0  0  0  0  0  0  0  0  0  0  0
   -4.8732   -8.1796    0.0000 C   0  0  0  0  0  0  0  0  0  0  0  0
   -6.1723   -5.9296    0.0000 C   0  0  0  0  0  0  0  0  0  0  0  0
   -7.4713   -6.6796    0.0000 C   0  0  0  0  0  0  0  0  0  0  0  0
   -4.8732   -6.6796    0.0000 C   0  0  0  0  0  0  0  0  0  0  0  0
   -7.4713   -8.1796    0.0000 C   0  0  0  0  0  0  0  0  0  0  0  0
   -6.1723   -8.9296    0.0000 C   0  0  0  0  0  0  0  0  0  0  0  0
   -3.5742  -10.4296    0.0000 C   0  0  0  0  0  0  0  0  0  0  0  0
   -4.8732  -11.1796    0.0000 O   0  0  0  0  0  0  0  0  0  0  0  0
   -2.2751  -11.1796    0.0000 O   0  0  0  0  0  0  0  0  0  0  0  0
   -0.9761  -10.4296    0.0000 C   0  0  0  0  0  0  0  0  0  0  0  0
    0.3229  -11.1796    0.0000 C   0  0  0  0  0  0  0  0  0  0  0  0
  1 17  1  0  0  0  0
  2 14  1  0  0  0  0
  3 10  2  0  0  0  0
  3 16  1  0  0  0  0
  4  9  2  0  0  0  0
  4  5  1  0  0  0  0
  5  6  2  0  0  0  0
  6  7  1  0  0  0  0
  7  8  2  0  0  0  0
  8  9  1  0  0  0  0
  8 10  1  0  0  0  0
 10 11  1  0  0  0  0
 11 12  2  0  0  0  0
 12 13  1  0  0  0  0
 12 19  1  0  0  0  0
 13 16  2  0  0  0  0
 13 18  1  0  0  0  0
 14 15  2  0  0  0  0
 14 16  1  0  0  0  0
 15 17  1  0  0  0  0
 17 18  2  0  0  0  0
 19 20  2  0  0  0  0
 19 21  1  0  0  0  0
 21 22  1  0  0  0  0
 22 23  1  0  0  0  0
M  END
