69421
 OpenBabel03021519512D

 19 21  0  0  1  0  0  0  0  0999 V2000
    3.7267   -2.5777    0.0000 C   0  0  0  0  0  0  0  0  0  0  0  0
    5.0258   -3.3277    0.0000 C   0  0  0  0  0  0  0  0  0  0  0  0
    2.4277   -3.3277    0.0000 C   0  0  0  0  0  0  0  0  0  0  0  0
    5.0258   -4.8277    0.0000 C   0  0  0  0  0  0  0  0  0  0  0  0
    2.4277   -4.8277    0.0000 C   0  0  0  0  0  0  0  0  0  0  0  0
    3.7267   -5.5777    0.0000 C   0  0  0  0  0  0  0  0  0  0  0  0
    5.0258   -7.8277    0.0000 C   0  0  3  0  0  0  0  0  0  0  0  0
    5.1826   -9.3195    0.0000 C   0  0  0  0  0  0  0  0  0  0  0  0
    6.3961   -7.2176    0.0000 C   0  0  3  0  0  0  0  0  0  0  0  0
    4.1789  -10.4342    0.0000 C   0  0  0  0  0  0  0  0  0  0  0  0
    4.6424  -11.8608    0.0000 C   0  0  0  0  0  0  0  0  0  0  0  0
    7.3998   -8.3323    0.0000 C   0  0  0  0  0  0  0  0  0  0  0  0
    6.6498   -9.6313    0.0000 C   0  0  0  0  0  0  0  0  0  0  0  0
    6.1096  -12.1727    0.0000 C   0  0  0  0  0  0  0  0  0  0  0  0
    7.1133  -11.0579    0.0000 C   0  0  0  0  0  0  0  0  0  0  0  0
    3.7267   -1.0777    0.0000 C   0  0  0  0  0  0  0  0  0  0  0  0
    3.7267    0.4223    0.0000 N   0  0  0  0  0  0  0  0  0  0  0  0
    3.7268   -7.0777    0.0000 N   0  0  0  0  0  0  0  0  0  0  0  0
    6.7080   -5.7504    0.0000 O   0  0  0  0  0  0  0  0  0  0  0  0
  1  2  2  0  0  0  0
  1  3  1  0  0  0  0
  1 16  1  0  0  0  0
  2  4  1  0  0  0  0
  3  5  2  0  0  0  0
  4  6  2  0  0  0  0
  5  6  1  0  0  0  0
  6 18  1  0  0  0  0
  7  8  1  0  0  0  0
  7  9  1  0  0  0  0
  7 18  1  0  0  0  0
  8 13  2  0  0  0  0
  8 10  1  0  0  0  0
  9 12  1  0  0  0  0
  9 19  1  0  0  0  0
 10 11  2  0  0  0  0
 11 14  1  0  0  0  0
 12 13  1  0  0  0  0
 13 15  1  0  0  0  0
 14 15  2  0  0  0  0
 16 17  3  0  0  0  0
M  END
