195031
 OpenBabel03021519512D

 13 12  0  0  0  0  0  0  0  0999 V2000
   -1.3995   -0.9240    0.0000 C   0  0  0  0  0  0  0  0  0  0  0  0
   -2.1495    0.3750    0.0000 C   0  0  0  0  0  0  0  0  0  0  0  0
   -3.6495    0.3750    0.0000 C   0  0  0  0  0  0  0  0  0  0  0  0
   -4.3995    1.6740    0.0000 C   0  0  0  0  0  0  0  0  0  0  0  0
   -5.8995    1.6740    0.0000 C   0  0  0  0  0  0  0  0  0  0  0  0
   -6.6495    2.9731    0.0000 O   0  0  0  0  0  0  0  0  0  0  0  0
   -6.6495    0.3750    0.0000 N   0  0  0  0  0  0  0  0  0  0  0  0
   -8.1495    0.3750    0.0000 C   0  0  0  0  0  0  0  0  0  0  0  0
   -8.8995    1.6740    0.0000 C   0  0  0  0  0  0  0  0  0  0  0  0
  -10.3995    1.6740    0.0000 C   0  0  0  0  0  0  0  0  0  0  0  0
   -5.8995   -0.9240    0.0000 C   0  0  0  0  0  0  0  0  0  0  0  0
   -4.3995   -0.9240    0.0000 C   0  0  0  0  0  0  0  0  0  0  0  0
   -3.6495   -2.2231    0.0000 C   0  0  0  0  0  0  0  0  0  0  0  0
  1  2  1  0  0  0  0
  2  3  1  0  0  0  0
  3  4  1  0  0  0  0
  4  5  1  0  0  0  0
  5  6  2  0  0  0  0
  5  7  1  0  0  0  0
  7  8  1  0  0  0  0
  7 11  1  0  0  0  0
  8  9  1  0  0  0  0
  9 10  1  0  0  0  0
 11 12  1  0  0  0  0
 12 13  1  0  0  0  0
M  END
