49701
 OpenBabel03021519512D

 17 18  0  0  0  0  0  0  0  0999 V2000
   -1.5736    3.2745    0.0000 N   0  0  0  0  0  0  0  0  0  0  0  0
    1.0245    3.2745    0.0000 N   0  0  0  0  0  0  0  0  0  0  0  0
    1.0245    7.7745    0.0000 C   0  0  0  0  0  0  0  0  0  0  0  0
    1.0245    9.2745    0.0000 C   0  0  0  0  0  0  0  0  0  0  0  0
    2.3235    7.0245    0.0000 C   0  0  0  0  0  0  0  0  0  0  0  0
    2.3235   10.0245    0.0000 C   0  0  0  0  0  0  0  0  0  0  0  0
    3.6226    7.7745    0.0000 C   0  0  0  0  0  0  0  0  0  0  0  0
    3.6226    9.2745    0.0000 C   0  0  0  0  0  0  0  0  0  0  0  0
   -0.2745    5.5245    0.0000 C   0  0  0  0  0  0  0  0  0  0  0  0
   -1.5736    4.7745    0.0000 C   0  0  0  0  0  0  0  0  0  0  0  0
    1.0245    4.7745    0.0000 C   0  0  0  0  0  0  0  0  0  0  0  0
   -0.2745    2.5245    0.0000 C   0  0  0  0  0  0  0  0  0  0  0  0
   -2.8726    5.5245    0.0000 C   0  0  0  0  0  0  0  0  0  0  0  0
   -0.2745    1.0245    0.0000 N   0  0  0  0  0  0  0  0  0  0  0  0
    2.3235    5.5245    0.0000 N   0  0  0  0  0  0  0  0  0  0  0  0
    2.3235   11.5245    0.0000 O   0  0  0  0  0  0  0  0  0  0  0  0
    1.0245   12.2745    0.0000 C   0  0  0  0  0  0  0  0  0  0  0  0
  1 10  2  0  0  0  0
  1 12  1  0  0  0  0
  2 12  2  0  0  0  0
  2 11  1  0  0  0  0
  3  4  2  0  0  0  0
  3  5  1  0  0  0  0
  4  6  1  0  0  0  0
  5  7  2  0  0  0  0
  5 15  1  0  0  0  0
  6  8  2  0  0  0  0
  6 16  1  0  0  0  0
  7  8  1  0  0  0  0
  9 11  2  0  0  0  0
  9 10  1  0  0  0  0
 10 13  1  0  0  0  0
 11 15  1  0  0  0  0
 12 14  1  0  0  0  0
 16 17  1  0  0  0  0
M  END
