329255
 OpenBabel03021519512D

 22 24  0  0  0  0  0  0  0  0999 V2000
   -1.0023    4.7360    0.0000 C   0  0  0  0  0  0  0  0  0  0  0  0
   -1.0023    3.2360    0.0000 C   0  0  0  0  0  0  0  0  0  0  0  0
    0.2968    5.4860    0.0000 C   0  0  0  0  0  0  0  0  0  0  0  0
    0.2967    2.4860    0.0000 C   0  0  0  0  0  0  0  0  0  0  0  0
    1.5958    4.7360    0.0000 C   0  0  0  0  0  0  0  0  0  0  0  0
    1.5958    3.2360    0.0000 C   0  0  0  0  0  0  0  0  0  0  0  0
    3.0224    5.1996    0.0000 N   0  0  0  0  0  0  0  0  0  0  0  0
    3.0224    2.7725    0.0000 S   0  0  0  0  0  0  0  0  0  0  0  0
    3.9040    3.9860    0.0000 C   0  0  0  0  0  0  0  0  0  0  0  0
    6.1541    5.2851    0.0000 C   0  0  0  0  0  0  0  0  0  0  0  0
    5.4041    6.5841    0.0000 O   0  0  0  0  0  0  0  0  0  0  0  0
    8.4040    6.5841    0.0000 C   0  0  0  0  0  0  0  0  0  0  0  0
    9.9041    6.5841    0.0000 C   0  0  0  0  0  0  0  0  0  0  0  0
    7.6541    7.8831    0.0000 C   0  0  0  0  0  0  0  0  0  0  0  0
    8.4041    9.1822    0.0000 C   0  0  0  0  0  0  0  0  0  0  0  0
   10.6541    7.8831    0.0000 C   0  0  0  0  0  0  0  0  0  0  0  0
   12.1541    7.8831    0.0000 S   0  0  0  0  0  0  0  0  0  0  0  0
    9.9041    9.1822    0.0000 C   0  0  0  0  0  0  0  0  0  0  0  0
    0.2968    6.9860    0.0000 C   0  0  0  0  0  0  0  0  0  0  0  0
    5.4040    3.9860    0.0000 N   0  0  0  0  0  0  0  0  0  0  0  0
    7.6540    5.2851    0.0000 N   0  0  0  0  0  0  0  0  0  0  0  0
   12.9041    9.1822    0.0000 C   0  0  0  0  0  0  0  0  0  0  0  0
  1  3  2  0  0  0  0
  1  2  1  0  0  0  0
  2  4  2  0  0  0  0
  3  5  1  0  0  0  0
  3 19  1  0  0  0  0
  4  6  1  0  0  0  0
  5  7  1  0  0  0  0
  5  6  2  0  0  0  0
  6  8  1  0  0  0  0
  7  9  2  0  0  0  0
  8  9  1  0  0  0  0
  9 20  1  0  0  0  0
 10 11  2  0  0  0  0
 10 20  1  0  0  0  0
 10 21  1  0  0  0  0
 12 14  2  0  0  0  0
 12 13  1  0  0  0  0
 12 21  1  0  0  0  0
 13 16  2  0  0  0  0
 14 15  1  0  0  0  0
 15 18  2  0  0  0  0
 16 18  1  0  0  0  0
 16 17  1  0  0  0  0
 17 22  1  0  0  0  0
M  END
