379099
 OpenBabel03021519512D

 27 30  0  0  0  0  0  0  0  0999 V2000
    0.7500    0.7500    0.0000 Cl  0  0  0  0  0  0  0  0  0  0  0  0
    2.0490    3.0000    0.0000 C   0  0  0  0  0  0  0  0  0  0  0  0
    2.0490    1.5000    0.0000 C   0  0  0  0  0  0  0  0  0  0  0  0
    3.3481    3.7500    0.0000 C   0  0  0  0  0  0  0  0  0  0  0  0
    3.3481    0.7500    0.0000 C   0  0  0  0  0  0  0  0  0  0  0  0
    3.3481    5.2500    0.0000 Cl  0  0  0  0  0  0  0  0  0  0  0  0
    4.6471    1.5000    0.0000 C   0  0  0  0  0  0  0  0  0  0  0  0
    4.6471    3.0000    0.0000 C   0  0  0  0  0  0  0  0  0  0  0  0
    6.0737    1.0365    0.0000 O   0  0  0  0  0  0  0  0  0  0  0  0
    6.9554    2.2500    0.0000 C   0  0  0  0  0  0  0  0  0  0  0  0
    6.0737    3.4635    0.0000 C   0  0  0  0  0  0  0  0  0  0  0  0
    6.6838    4.8339    0.0000 C   0  0  0  0  0  0  0  0  0  0  0  0
    8.4472    2.4068    0.0000 C   0  0  0  0  0  0  0  0  0  0  0  0
   11.3937    0.5613    0.0000 N   0  0  0  0  0  0  0  0  0  0  0  0
    8.1756    4.9906    0.0000 C   0  0  0  0  0  0  0  0  0  0  0  0
    9.0573    3.7771    0.0000 C   0  0  0  0  0  0  0  0  0  0  0  0
   12.0038    1.9316    0.0000 C   0  0  0  0  0  0  0  0  0  0  0  0
   11.1222    3.1451    0.0000 C   0  0  0  0  0  0  0  0  0  0  0  0
   13.4956    2.0884    0.0000 C   0  0  0  0  0  0  0  0  0  0  0  0
   11.7323    4.5154    0.0000 C   0  0  0  0  0  0  0  0  0  0  0  0
   14.1057    3.4587    0.0000 C   0  0  0  0  0  0  0  0  0  0  0  0
   13.2240    4.6722    0.0000 C   0  0  0  0  0  0  0  0  0  0  0  0
   13.8341    6.0426    0.0000 O   0  0  0  0  0  0  0  0  0  0  0  0
    0.7500    3.7500    0.0000 O   0  0  0  0  0  0  0  0  0  0  0  0
    9.9019    0.4045    0.0000 C   0  0  0  0  0  0  0  0  0  0  0  0
   10.5491    3.9339    0.0000 O   0  0  0  0  0  0  0  0  0  0  0  0
   12.9525    7.2561    0.0000 C   0  0  0  0  0  0  0  0  0  0  0  0
  1  3  1  0  0  0  0
  2  4  2  0  0  0  0
  2  3  1  0  0  0  0
  2 24  1  0  0  0  0
  3  5  2  0  0  0  0
  4  6  1  0  0  0  0
  4  8  1  0  0  0  0
  5  7  1  0  0  0  0
  7  8  2  0  0  0  0
  7  9  1  0  0  0  0
  8 11  1  0  0  0  0
  9 10  1  0  0  0  0
 10 11  1  0  0  0  0
 10 13  2  0  0  0  0
 11 12  2  0  0  0  0
 12 15  1  0  0  0  0
 13 16  1  0  0  0  0
 13 25  1  0  0  0  0
 14 17  1  0  0  0  0
 14 25  2  0  0  0  0
 15 16  2  0  0  0  0
 16 26  1  0  0  0  0
 17 18  2  0  0  0  0
 17 19  1  0  0  0  0
 18 20  1  0  0  0  0
 19 21  2  0  0  0  0
 20 22  2  0  0  0  0
 21 22  1  0  0  0  0
 22 23  1  0  0  0  0
 23 27  1  0  0  0  0
M  END
