294154
 OpenBabel03021519512D

 14 15  0  0  0  0  0  0  0  0999 V2000
    2.9773    0.8529    0.0000 Cl  0  0  0  0  0  0  0  0  0  0  0  0
    4.2763   -1.3971    0.0000 C   0  0  0  0  0  0  0  0  0  0  0  0
    4.2763    0.1029    0.0000 C   0  0  0  0  0  0  0  0  0  0  0  0
    5.5753   -2.1471    0.0000 N   0  0  0  0  0  0  0  0  0  0  0  0
    5.8872   -3.6143    0.0000 C   0  0  0  0  0  0  0  0  0  0  0  0
    5.5753    0.8529    0.0000 C   0  0  0  0  0  0  0  0  0  0  0  0
    6.8744   -1.3971    0.0000 C   0  0  0  0  0  0  0  0  0  0  0  0
    6.8744    0.1029    0.0000 C   0  0  0  0  0  0  0  0  0  0  0  0
    7.3790   -3.7711    0.0000 C   0  0  0  0  0  0  0  0  0  0  0  0
    7.9891   -2.4008    0.0000 N   0  0  0  0  0  0  0  0  0  0  0  0
    4.8835   -4.7290    0.0000 N   0  3  0  0  0  0  0  0  0  0  0  0
    3.4163   -4.4172    0.0000 O   0  5  0  0  0  0  0  0  0  0  0  0
    5.3470   -6.1556    0.0000 O   0  0  0  0  0  0  0  0  0  0  0  0
    8.1290   -5.0701    0.0000 C   0  0  0  0  0  0  0  0  0  0  0  0
  1  3  1  0  0  0  0
  2  3  2  0  0  0  0
  2  4  1  0  0  0  0
  3  6  1  0  0  0  0
  4  7  1  0  0  0  0
  4  5  1  0  0  0  0
  5  9  2  0  0  0  0
  5 11  1  0  0  0  0
  6  8  2  0  0  0  0
  7  8  1  0  0  0  0
  7 10  2  0  0  0  0
  9 10  1  0  0  0  0
  9 14  1  0  0  0  0
 11 12  1  0  0  0  0
 11 13  2  0  0  0  0
M  CHG  2  11   1  12  -1
M  END
