31698
 OpenBabel03021519512D

 20 22  0  0  0  0  0  0  0  0999 V2000
    2.7275   -2.7758    0.0000 C   0  0  0  0  0  0  0  0  0  0  0  0
    1.4285   -3.5258    0.0000 C   0  0  0  0  0  0  0  0  0  0  0  0
    4.0265   -3.5258    0.0000 C   0  0  0  0  0  0  0  0  0  0  0  0
    4.0266   -5.0258    0.0000 C   0  0  0  0  0  0  0  0  0  0  0  0
    1.4285   -5.0258    0.0000 C   0  0  0  0  0  0  0  0  0  0  0  0
    2.7275   -5.7758    0.0000 C   0  0  0  0  0  0  0  0  0  0  0  0
    0.1294   -5.7758    0.0000 C   0  0  0  0  0  0  0  0  0  0  0  0
   -1.1696   -5.0258    0.0000 C   0  0  0  0  0  0  0  0  0  0  0  0
   -2.4686   -5.7758    0.0000 C   0  0  0  0  0  0  0  0  0  0  0  0
    2.7275   -7.2758    0.0000 C   0  0  0  0  0  0  0  0  0  0  0  0
    0.1294   -7.2758    0.0000 C   0  0  0  0  0  0  0  0  0  0  0  0
   -2.4686   -7.2758    0.0000 C   0  0  0  0  0  0  0  0  0  0  0  0
    1.4285   -8.0258    0.0000 C   0  0  0  0  0  0  0  0  0  0  0  0
   -1.1696   -8.0258    0.0000 C   0  0  0  0  0  0  0  0  0  0  0  0
    1.4285   -9.5258    0.0000 N   0  0  0  0  0  0  0  0  0  0  0  0
    0.1294  -10.2758    0.0000 C   0  0  0  0  0  0  0  0  0  0  0  0
   -1.1696   -9.5258    0.0000 O   0  0  0  0  0  0  0  0  0  0  0  0
    0.1295  -11.7758    0.0000 C   0  0  0  0  0  0  0  0  0  0  0  0
    4.0266   -8.0258    0.0000 O   0  0  0  0  0  0  0  0  0  0  0  0
    5.3256   -7.2758    0.0000 C   0  0  0  0  0  0  0  0  0  0  0  0
  1  2  2  0  0  0  0
  1  3  1  0  0  0  0
  2  5  1  0  0  0  0
  3  4  2  0  0  0  0
  4  6  1  0  0  0  0
  5  6  2  0  0  0  0
  5  7  1  0  0  0  0
  6 10  1  0  0  0  0
  7 11  2  0  0  0  0
  7  8  1  0  0  0  0
  8  9  2  0  0  0  0
  9 12  1  0  0  0  0
 10 13  2  0  0  0  0
 10 19  1  0  0  0  0
 11 13  1  0  0  0  0
 11 14  1  0  0  0  0
 12 14  2  0  0  0  0
 13 15  1  0  0  0  0
 15 16  1  0  0  0  0
 16 17  2  0  0  0  0
 16 18  1  0  0  0  0
 19 20  1  0  0  0  0
M  END
