118832
 OpenBabel03021519512D

 13 14  0  0  0  0  0  0  0  0999 V2000
   -7.1952    2.6541    0.0000 N   0  0  0  0  0  0  0  0  0  0  0  0
   -6.9415    0.2404    0.0000 S   0  0  0  0  0  0  0  0  0  0  0  0
   -5.7279    2.3423    0.0000 C   0  0  0  0  0  0  0  0  0  0  0  0
   -5.5712    0.8505    0.0000 C   0  0  0  0  0  0  0  0  0  0  0  0
   -4.2721    0.1005    0.0000 C   0  0  0  0  0  0  0  0  0  0  0  0
   -2.9731    0.8505    0.0000 C   0  0  0  0  0  0  0  0  0  0  0  0
   -1.6740    0.1005    0.0000 C   0  0  0  0  0  0  0  0  0  0  0  0
   -1.6740   -1.3995    0.0000 C   0  0  0  0  0  0  0  0  0  0  0  0
   -4.2721   -1.3995    0.0000 C   0  0  0  0  0  0  0  0  0  0  0  0
   -2.9731   -2.1495    0.0000 C   0  0  0  0  0  0  0  0  0  0  0  0
   -7.9452    1.3551    0.0000 C   0  0  0  0  0  0  0  0  0  0  0  0
  -10.3186    2.4118    0.0000 O   0  0  0  0  0  0  0  0  0  0  0  0
   -9.4370    1.1983    0.0000 C   0  0  0  0  0  0  0  0  0  0  0  0
  1 11  2  0  0  0  0
  1  3  1  0  0  0  0
  2  4  1  0  0  0  0
  2 11  1  0  0  0  0
  3  4  2  0  0  0  0
  4  5  1  0  0  0  0
  5  9  2  0  0  0  0
  5  6  1  0  0  0  0
  6  7  2  0  0  0  0
  7  8  1  0  0  0  0
  8 10  2  0  0  0  0
  9 10  1  0  0  0  0
 11 13  1  0  0  0  0
 12 13  1  0  0  0  0
M  END
