9852
 OpenBabel03021519512D

 19 21  0  0  0  0  0  0  0  0999 V2000
   -5.1053   -0.1809    0.0000 N   0  0  0  0  0  0  0  0  0  0  0  0
   -4.6418    1.2457    0.0000 H   0  0  0  0  0  0  0  0  0  0  0  0
   -2.7318   -1.5512    0.0000 C   0  0  0  0  0  0  0  0  0  0  0  0
   -4.2236   -1.3944    0.0000 C   0  0  0  0  0  0  0  0  0  0  0  0
   -2.1217   -2.9215    0.0000 C   0  0  0  0  0  0  0  0  0  0  0  0
   -3.0034   -4.1351    0.0000 C   0  0  0  0  0  0  0  0  0  0  0  0
   -5.1053   -2.6080    0.0000 C   0  0  0  0  0  0  0  0  0  0  0  0
   -4.4952   -3.9783    0.0000 C   0  0  0  0  0  0  0  0  0  0  0  0
   -6.5319   -2.1444    0.0000 C   0  0  0  0  0  0  0  0  0  0  0  0
   -7.8309    0.1056    0.0000 C   0  0  0  0  0  0  0  0  0  0  0  0
   -6.5319   -0.6444    0.0000 C   0  0  0  0  0  0  0  0  0  0  0  0
   -9.1300   -0.6444    0.0000 C   0  0  0  0  0  0  0  0  0  0  0  0
   -9.1300   -2.1444    0.0000 C   0  0  0  0  0  0  0  0  0  0  0  0
   -7.8309   -2.8944    0.0000 C   0  0  0  0  0  0  0  0  0  0  0  0
  -10.4290    0.1056    0.0000 N   0  3  0  0  0  0  0  0  0  0  0  0
  -11.7280   -0.6444    0.0000 O   0  5  0  0  0  0  0  0  0  0  0  0
  -10.4290    1.6056    0.0000 O   0  0  0  0  0  0  0  0  0  0  0  0
   -5.3769   -5.1918    0.0000 C   0  0  0  0  0  0  0  0  0  0  0  0
   -6.8687   -5.0350    0.0000 C   0  0  0  0  0  0  0  0  0  0  0  0
  1  4  1  0  0  0  0
  1 11  1  0  0  0  0
  1  2  1  0  0  0  0
  3  5  2  0  0  0  0
  3  4  1  0  0  0  0
  4  7  2  0  0  0  0
  5  6  1  0  0  0  0
  6  8  2  0  0  0  0
  7  8  1  0  0  0  0
  7  9  1  0  0  0  0
  8 18  1  0  0  0  0
  9 11  2  0  0  0  0
  9 14  1  0  0  0  0
 10 12  2  0  0  0  0
 10 11  1  0  0  0  0
 12 13  1  0  0  0  0
 12 15  1  0  0  0  0
 13 14  2  0  0  0  0
 15 16  1  0  0  0  0
 15 17  2  0  0  0  0
 18 19  1  0  0  0  0
M  CHG  2  15   1  16  -1
M  END
