33738
 OpenBabel03021519512D

 22 23  0  0  0  0  0  0  0  0999 V2000
    9.7643   -2.0977    0.0000 Cl  0  0  0  0  0  0  0  0  0  0  0  0
    9.2434    0.8568    0.0000 Cl  0  0  0  0  0  0  0  0  0  0  0  0
    4.6471   -4.5000    0.0000 C   0  0  0  0  0  0  0  0  0  0  0  0
    3.3481   -5.2500    0.0000 C   0  0  0  0  0  0  0  0  0  0  0  0
    5.9462   -5.2500    0.0000 C   0  0  0  0  0  0  0  0  0  0  0  0
    5.9462   -6.7500    0.0000 C   0  0  0  0  0  0  0  0  0  0  0  0
    3.3481   -6.7500    0.0000 C   0  0  0  0  0  0  0  0  0  0  0  0
    4.6471   -7.5000    0.0000 C   0  0  0  0  0  0  0  0  0  0  0  0
    7.2057   -2.5488    0.0000 C   0  0  0  0  0  0  0  0  0  0  0  0
    8.3548   -1.5846    0.0000 C   0  0  0  0  0  0  0  0  0  0  0  0
    5.7962   -2.0358    0.0000 C   0  0  0  0  0  0  0  0  0  0  0  0
    5.5357   -0.5586    0.0000 C   0  0  0  0  0  0  0  0  0  0  0  0
    8.0943   -0.1074    0.0000 C   0  0  0  0  0  0  0  0  0  0  0  0
    6.6848    0.4056    0.0000 C   0  0  0  0  0  0  0  0  0  0  0  0
    4.6471   -3.0000    0.0000 N   0  0  0  0  0  0  0  0  0  0  0  0
    3.3481   -2.2500    0.0000 C   0  0  0  0  0  0  0  0  0  0  0  0
    3.3481   -0.7500    0.0000 O   0  0  0  0  0  0  0  0  0  0  0  0
    2.0490   -3.0000    0.0000 C   0  0  0  0  0  0  0  0  0  0  0  0
    2.0490   -4.5000    0.0000 O   0  0  0  0  0  0  0  0  0  0  0  0
    2.0491   -7.5000    0.0000 C   0  0  0  0  0  0  0  0  0  0  0  0
    2.0491   -9.0000    0.0000 O   0  0  0  0  0  0  0  0  0  0  0  0
    0.7500   -6.7500    0.0000 N   0  0  0  0  0  0  0  0  0  0  0  0
  1 10  1  0  0  0  0
  2 13  1  0  0  0  0
  3  5  2  0  0  0  0
  3  4  1  0  0  0  0
  4  7  2  0  0  0  0
  4 19  1  0  0  0  0
  5  6  1  0  0  0  0
  6  8  2  0  0  0  0
  7  8  1  0  0  0  0
  7 20  1  0  0  0  0
  9 11  2  0  0  0  0
  9 10  1  0  0  0  0
 10 13  2  0  0  0  0
 11 12  1  0  0  0  0
 11 15  1  0  0  0  0
 12 14  2  0  0  0  0
 13 14  1  0  0  0  0
 15 16  1  0  0  0  0
 16 17  2  0  0  0  0
 16 18  1  0  0  0  0
 18 19  1  0  0  0  0
 20 21  2  0  0  0  0
 20 22  1  0  0  0  0
M  END
