101266
 OpenBabel03021519512D

 16 17  0  0  0  0  0  0  0  0999 V2000
    2.7852    1.0808    0.0000 N   0  0  0  0  0  0  0  0  0  0  0  0
    1.8540   -0.0952    0.0000 C   0  0  0  0  0  0  0  0  0  0  0  0
    3.3380   -0.3136    0.0000 C   0  0  0  0  0  0  0  0  0  0  0  0
   -0.2221   -1.5089    0.0000 C   0  0  0  0  0  0  0  0  0  0  0  0
   -0.4405   -2.9929    0.0000 C   0  0  0  0  0  0  0  0  0  0  0  0
   -1.3981   -0.5777    0.0000 C   0  0  0  0  0  0  0  0  0  0  0  0
   -2.7925   -1.1305    0.0000 C   0  0  0  0  0  0  0  0  0  0  0  0
   -1.8349   -3.5457    0.0000 C   0  0  0  0  0  0  0  0  0  0  0  0
   -3.0109   -2.6145    0.0000 C   0  0  0  0  0  0  0  0  0  0  0  0
   -3.9684   -0.1994    0.0000 C   0  0  0  0  0  0  0  0  0  0  0  0
   -1.1796    0.9063    0.0000 N   0  0  0  0  0  0  0  0  0  0  0  0
    0.2148    1.4592    0.0000 C   0  0  0  0  0  0  0  0  0  0  0  0
    1.3907    0.5280    0.0000 O   0  0  0  0  0  0  0  0  0  0  0  0
    0.4332    2.9432    0.0000 N   0  0  0  0  0  0  0  0  0  0  0  0
    1.8276    3.4960    0.0000 C   0  0  0  0  0  0  0  0  0  0  0  0
    3.0036    2.5648    0.0000 C   0  0  0  0  0  0  0  0  0  0  0  0
  1  2  1  0  0  0  0
  1  3  1  0  0  0  0
  1 16  1  0  0  0  0
  2  3  1  0  0  0  0
  4  5  2  0  0  0  0
  4  6  1  0  0  0  0
  5  8  1  0  0  0  0
  6  7  2  0  0  0  0
  6 11  1  0  0  0  0
  7  9  1  0  0  0  0
  7 10  1  0  0  0  0
  8  9  2  0  0  0  0
 11 12  1  0  0  0  0
 12 13  2  0  0  0  0
 12 14  1  0  0  0  0
 14 15  1  0  0  0  0
 15 16  1  0  0  0  0
M  END
