145180
 OpenBabel03021519512D

 11 12  0  0  0  0  0  0  0  0999 V2000
    0.2745    4.0245    0.0000 N   0  0  0  0  0  0  0  0  0  0  0  0
    1.5736    6.2745    0.0000 N   0  0  0  0  0  0  0  0  0  0  0  0
    1.5736    1.7745    0.0000 S   0  0  0  0  0  0  0  0  0  0  0  0
    2.8726    4.0245    0.0000 N   0  0  0  0  0  0  0  0  0  0  0  0
    4.2992    5.9880    0.0000 N   0  0  0  0  0  0  0  0  0  0  0  0
    4.2992    3.5610    0.0000 N   0  0  0  0  0  0  0  0  0  0  0  0
    5.1809    4.7745    0.0000 C   0  0  0  0  0  0  0  0  0  0  0  0
    2.8726    5.5245    0.0000 C   0  0  0  0  0  0  0  0  0  0  0  0
    0.2745    5.5245    0.0000 C   0  0  0  0  0  0  0  0  0  0  0  0
    1.5736    3.2745    0.0000 C   0  0  0  0  0  0  0  0  0  0  0  0
   -1.0245    3.2745    0.0000 C   0  0  0  0  0  0  0  0  0  0  0  0
  1  9  1  0  0  0  0
  1 10  1  0  0  0  0
  1 11  1  0  0  0  0
  2  9  2  0  0  0  0
  2  8  1  0  0  0  0
  3 10  2  0  0  0  0
  4  6  1  0  0  0  0
  4  8  1  0  0  0  0
  4 10  1  0  0  0  0
  5  8  2  0  0  0  0
  5  7  1  0  0  0  0
  6  7  2  0  0  0  0
M  END
