24951
 OpenBabel03021519512D

 31 37  0  0  1  0  0  0  0  0999 V2000
    6.2489    0.7500    0.0000 O   0  0  0  0  0  0  0  0  0  0  0  0
    6.4192    3.2323    0.0000 N   0  0  0  0  0  0  0  0  0  0  0  0
    7.7948    3.1479    0.0000 H   0  0  0  0  0  0  0  0  0  0  0  0
    9.7181    1.8327    0.0000 H   0  0  0  0  0  0  0  0  0  0  0  0
    6.2724    7.8174    0.0000 N   0  3  3  0  0  0  0  0  0  0  0  0
    5.8885    9.2674    0.0000 O   0  5  0  0  0  0  0  0  0  0  0  0
    7.8498    5.5541    0.0000 H   0  0  0  0  0  0  0  0  0  0  0  0
   10.3734    2.9314    0.0000 O   0  0  0  0  0  0  0  0  0  0  0  0
    9.9553    4.1676    0.0000 H   0  0  0  0  0  0  0  0  0  0  0  0
    8.0352    7.9739    0.0000 H   0  0  0  0  0  0  0  0  0  0  0  0
    9.1593    8.1879    0.0000 C   0  0  0  0  0  0  0  0  0  0  0  0
   10.4284    5.6789    0.0000 C   0  0  0  0  0  0  0  0  0  0  0  0
   11.3638    4.9269    0.0000 C   0  0  0  0  0  0  0  0  0  0  0  0
    4.9959    7.2928    0.0000 C   0  0  0  0  0  0  0  0  0  0  0  0
    5.1170    5.8696    0.0000 C   0  0  0  0  0  0  0  0  0  0  0  0
    7.1528    6.7610    0.0000 C   0  0  2  0  0  0  0  0  0  0  0  0
    6.4742    5.5322    0.0000 C   0  0  1  0  0  0  0  0  0  0  0  0
    8.4954    6.7169    0.0000 C   0  0  0  0  0  0  0  0  0  0  0  0
    9.1886    5.5065    0.0000 C   0  0  2  0  0  0  0  0  0  0  0  0
    7.0684    4.4354    0.0000 C   0  0  2  0  0  0  0  0  0  0  0  0
    4.9153    5.2461    0.0000 C   0  0  0  0  0  0  0  0  0  0  0  0
    3.5398    6.0457    0.0000 C   0  0  0  0  0  0  0  0  0  0  0  0
    2.1642    5.2461    0.0000 C   0  0  0  0  0  0  0  0  0  0  0  0
    4.9153    3.6834    0.0000 C   0  0  0  0  0  0  0  0  0  0  0  0
    2.1642    3.6834    0.0000 C   0  0  0  0  0  0  0  0  0  0  0  0
    8.4587    4.3657    0.0000 C   0  0  2  0  0  0  0  0  0  0  0  0
    3.5398    2.8801    0.0000 C   0  0  0  0  0  0  0  0  0  0  0  0
    9.1079    3.2029    0.0000 C   0  0  2  0  0  0  0  0  0  0  0  0
   11.3602    3.7238    0.0000 C   0  0  0  0  0  0  0  0  0  0  0  0
    8.3999    1.9704    0.0000 C   0  0  0  0  0  0  0  0  0  0  0  0
    7.0501    2.0181    0.0000 C   0  0  0  0  0  0  0  0  0  0  0  0
  1 31  2  0  0  0  0
  2 20  1  0  0  0  0
  2 24  1  0  0  0  0
  2 31  1  0  0  0  0
  5  6  1  0  0  0  0
  5 11  1  0  0  0  0
  5 14  1  0  0  0  0
  5 16  1  0  0  0  0
  8 28  1  0  0  0  0
  8 29  1  0  0  0  0
 11 12  1  0  0  0  0
 12 13  2  0  0  0  0
 12 19  1  0  0  0  0
 13 29  1  0  0  0  0
 14 15  1  0  0  0  0
 16 10  1  6  0  0  0
 16 17  1  0  0  0  0
 16 18  1  0  0  0  0
 17 15  1  1  0  0  0
 17 20  1  0  0  0  0
 17 21  1  0  0  0  0
 18 19  1  0  0  0  0
 19  9  1  6  0  0  0
 19 26  1  0  0  0  0
 20  3  1  1  0  0  0
 20 26  1  0  0  0  0
 21 24  2  0  0  0  0
 21 22  1  0  0  0  0
 22 23  2  0  0  0  0
 23 25  1  0  0  0  0
 24 27  1  0  0  0  0
 25 27  2  0  0  0  0
 26  7  1  6  0  0  0
 26 28  1  0  0  0  0
 28  4  1  6  0  0  0
 28 30  1  0  0  0  0
 30 31  1  0  0  0  0
M  CHG  2   5   1   6  -1
M  END
