303244
 OpenBabel03021519512D

 16 17  0  0  1  0  0  0  0  0999 V2000
    4.9216    2.5245    0.0000 C   0  0  0  0  0  0  0  0  0  0  0  0
    8.8187    1.7746    0.0000 C   0  0  0  0  0  0  0  0  0  0  0  0
    6.2207    1.7745    0.0000 C   0  0  0  0  0  0  0  0  0  0  0  0
    3.6226    1.7745    0.0000 C   0  0  0  0  0  0  0  0  0  0  0  0
    6.2207    0.2745    0.0000 C   0  0  0  0  0  0  0  0  0  0  0  0
    3.6226    0.2745    0.0000 C   0  0  0  0  0  0  0  0  0  0  0  0
    7.5197   -0.4755    0.0000 C   0  0  3  0  0  0  0  0  0  0  0  0
    4.9216   -0.4755    0.0000 C   0  0  0  0  0  0  0  0  0  0  0  0
    7.5197    2.5245    0.0000 N   0  0  0  0  0  0  0  0  0  0  0  0
    8.8187    0.2746    0.0000 N   0  0  0  0  0  0  0  0  0  0  0  0
   10.1178   -0.4754    0.0000 H   0  0  0  0  0  0  0  0  0  0  0  0
    2.3236   -0.4755    0.0000 C   0  0  0  0  0  0  0  0  0  0  0  0
    2.3235    2.5245    0.0000 C   0  0  0  0  0  0  0  0  0  0  0  0
    4.9216    4.0245    0.0000 C   0  0  0  0  0  0  0  0  0  0  0  0
    4.9216    5.5245    0.0000 N   0  0  0  0  0  0  0  0  0  0  0  0
    7.5197   -1.9755    0.0000 C   0  0  0  0  0  0  0  0  0  0  0  0
  1  4  2  0  0  0  0
  1  3  1  0  0  0  0
  1 14  1  0  0  0  0
  2  9  2  0  0  0  0
  2 10  1  0  0  0  0
  3  9  1  0  0  0  0
  3  5  2  0  0  0  0
  4  6  1  0  0  0  0
  4 13  1  0  0  0  0
  5  7  1  0  0  0  0
  5  8  1  0  0  0  0
  6  8  2  0  0  0  0
  6 12  1  0  0  0  0
  7 10  1  0  0  0  0
  7 16  1  0  0  0  0
 10 11  1  0  0  0  0
 14 15  3  0  0  0  0
M  END
