57165
 OpenBabel03021519512D

 14 15  0  0  0  0  0  0  0  0999 V2000
   -2.2231    5.1495    0.0000 N   0  0  0  0  0  0  0  0  0  0  0  0
   -2.2231    2.1495    0.0000 N   0  0  0  0  0  0  0  0  0  0  0  0
    0.3750    5.1495    0.0000 S   0  0  0  0  0  0  0  0  0  0  0  0
   -0.9240    7.3995    0.0000 C   0  0  0  0  0  0  0  0  0  0  0  0
   -0.9240    8.8995    0.0000 C   0  0  0  0  0  0  0  0  0  0  0  0
    0.3750    6.6495    0.0000 C   0  0  0  0  0  0  0  0  0  0  0  0
    0.3750    9.6495    0.0000 C   0  0  0  0  0  0  0  0  0  0  0  0
    1.6740    7.3995    0.0000 C   0  0  0  0  0  0  0  0  0  0  0  0
    1.6740    8.8995    0.0000 C   0  0  0  0  0  0  0  0  0  0  0  0
   -0.9240    4.3995    0.0000 C   0  0  0  0  0  0  0  0  0  0  0  0
   -0.9240    2.8995    0.0000 C   0  0  0  0  0  0  0  0  0  0  0  0
   -3.5221    4.3995    0.0000 C   0  0  0  0  0  0  0  0  0  0  0  0
   -3.5221    2.8995    0.0000 C   0  0  0  0  0  0  0  0  0  0  0  0
    0.3750    2.1495    0.0000 C   0  0  0  0  0  0  0  0  0  0  0  0
  1 10  2  0  0  0  0
  1 12  1  0  0  0  0
  2 11  2  0  0  0  0
  2 13  1  0  0  0  0
  3  6  1  0  0  0  0
  3 10  1  0  0  0  0
  4  5  2  0  0  0  0
  4  6  1  0  0  0  0
  5  7  1  0  0  0  0
  6  8  2  0  0  0  0
  7  9  2  0  0  0  0
  8  9  1  0  0  0  0
 10 11  1  0  0  0  0
 11 14  1  0  0  0  0
 12 13  2  0  0  0  0
M  END
