11276
 OpenBabel03021519512D

 19 20  0  0  1  0  0  0  0  0999 V2000
    0.7500    2.2500    0.0000 O   0  0  0  0  0  0  0  0  0  0  0  0
    2.0490    4.5000    0.0000 N   0  0  0  0  0  0  0  0  0  0  0  0
    3.3481    2.2500    0.0000 N   0  0  0  0  0  0  0  0  0  0  0  0
    3.3481    6.7500    0.0000 O   0  0  0  0  0  0  0  0  0  0  0  0
    6.0737    4.9635    0.0000 N   0  0  0  0  0  0  0  0  0  0  0  0
    6.0737    2.5365    0.0000 N   0  0  0  0  0  0  0  0  0  0  0  0
    3.3481    5.2500    0.0000 C   0  0  0  0  0  0  0  0  0  0  0  0
    4.6471    4.5000    0.0000 C   0  0  0  0  0  0  0  0  0  0  0  0
    4.6471    3.0000    0.0000 C   0  0  0  0  0  0  0  0  0  0  0  0
    6.9554    3.7500    0.0000 C   0  0  0  0  0  0  0  0  0  0  0  0
    2.0490    3.0000    0.0000 C   0  0  0  0  0  0  0  0  0  0  0  0
    0.7500    5.2500    0.0000 C   0  0  0  0  0  0  0  0  0  0  0  0
    3.3481    0.7500    0.0000 C   0  0  0  0  0  0  0  0  0  0  0  0
    6.5372    6.3901    0.0000 C   0  0  0  0  0  0  0  0  0  0  0  0
    8.4554    3.7500    0.0000 O   0  0  0  0  0  0  0  0  0  0  0  0
    9.2054    2.4510    0.0000 C   0  0  3  0  0  0  0  0  0  0  0  0
   10.7054    2.4510    0.0000 C   0  0  0  0  0  0  0  0  0  0  0  0
   11.4554    1.1520    0.0000 C   0  0  0  0  0  0  0  0  0  0  0  0
    8.4554    1.1519    0.0000 C   0  0  0  0  0  0  0  0  0  0  0  0
  1 11  2  0  0  0  0
  2  7  1  0  0  0  0
  2 11  1  0  0  0  0
  2 12  1  0  0  0  0
  3  9  1  0  0  0  0
  3 11  1  0  0  0  0
  3 13  1  0  0  0  0
  4  7  2  0  0  0  0
  5  8  1  0  0  0  0
  5 10  1  0  0  0  0
  5 14  1  0  0  0  0
  6 10  2  0  0  0  0
  6  9  1  0  0  0  0
  7  8  1  0  0  0  0
  8  9  2  0  0  0  0
 10 15  1  0  0  0  0
 15 16  1  0  0  0  0
 16 17  1  0  0  0  0
 16 19  1  0  0  0  0
 17 18  1  0  0  0  0
M  END
