53275
 OpenBabel03021519512D

 32 35  0  0  1  0  0  0  0  0999 V2000
    2.0846    0.7735    0.0000 O   0  0  0  0  0  0  0  0  0  0  0  0
    1.4100    3.8328    0.0000 N   0  0  0  0  0  0  0  0  0  0  0  0
    3.2889    6.7441    0.0000 O   0  0  0  0  0  0  0  0  0  0  0  0
    1.0471    5.2883    0.0000 N   0  0  0  0  0  0  0  0  0  0  0  0
    0.7934    7.7020    0.0000 O   0  0  0  0  0  0  0  0  0  0  0  0
   -7.0721    3.3419    0.0000 C   0  0  0  0  0  0  0  0  0  0  0  0
   -5.7730    2.5919    0.0000 C   0  0  0  0  0  0  0  0  0  0  0  0
   -7.0721    4.8419    0.0000 C   0  0  0  0  0  0  0  0  0  0  0  0
   -4.4740    3.3419    0.0000 C   0  0  0  0  0  0  0  0  0  0  0  0
   -5.7731    5.5919    0.0000 C   0  0  0  0  0  0  0  0  0  0  0  0
   -4.4740    4.8419    0.0000 C   0  0  0  0  0  0  0  0  0  0  0  0
   -0.4201    5.6001    0.0000 C   0  0  0  0  0  0  0  0  0  0  0  0
   -0.5769    7.0919    0.0000 C   0  0  3  0  0  0  0  0  0  0  0  0
   -5.7731   10.0919    0.0000 C   0  0  0  0  0  0  0  0  0  0  0  0
   -4.4740    9.3419    0.0000 C   0  0  0  0  0  0  0  0  0  0  0  0
   -5.7731   11.5919    0.0000 C   0  0  0  0  0  0  0  0  0  0  0  0
   -4.4741   12.3419    0.0000 C   0  0  0  0  0  0  0  0  0  0  0  0
   -3.1750   10.0919    0.0000 C   0  0  0  0  0  0  0  0  0  0  0  0
   -3.1750   11.5919    0.0000 C   0  0  0  0  0  0  0  0  0  0  0  0
    0.6939    1.3354    0.0000 C   0  0  0  0  0  0  0  0  0  0  0  0
   -0.2703    0.1863    0.0000 C   0  0  0  0  0  0  0  0  0  0  0  0
    0.5246   -1.0858    0.0000 C   0  0  0  0  0  0  0  0  0  0  0  0
    1.9800   -0.7229    0.0000 C   0  0  0  0  0  0  0  0  0  0  0  0
    1.7971    6.5873    0.0000 C   0  0  0  0  0  0  0  0  0  0  0  0
    3.1291   -1.6871    0.0000 N   0  3  0  0  0  0  0  0  0  0  0  0
    2.8686   -3.1643    0.0000 O   0  5  0  0  0  0  0  0  0  0  0  0
    4.5386   -1.1740    0.0000 O   0  0  0  0  0  0  0  0  0  0  0  0
    0.3310    2.7908    0.0000 C   0  0  0  0  0  0  0  0  0  0  0  0
   -1.8759    7.8419    0.0000 C   0  0  0  0  0  0  0  0  0  0  0  0
   -3.1750    7.0919    0.0000 N   0  0  0  0  0  0  0  0  0  0  0  0
   -4.4740    7.8419    0.0000 C   0  0  0  0  0  0  0  0  0  0  0  0
   -3.1750    5.5919    0.0000 C   0  0  0  0  0  0  0  0  0  0  0  0
  1 20  1  0  0  0  0
  1 23  1  0  0  0  0
  2  4  1  0  0  0  0
  2 28  2  0  0  0  0
  3 24  2  0  0  0  0
  4 12  1  0  0  0  0
  4 24  1  0  0  0  0
  5 13  1  0  0  0  0
  5 24  1  0  0  0  0
  6  7  2  0  0  0  0
  6  8  1  0  0  0  0
  7  9  1  0  0  0  0
  8 10  2  0  0  0  0
  9 11  2  0  0  0  0
 10 11  1  0  0  0  0
 11 32  1  0  0  0  0
 12 13  1  0  0  0  0
 13 29  1  0  0  0  0
 14 16  2  0  0  0  0
 14 15  1  0  0  0  0
 15 18  2  0  0  0  0
 15 31  1  0  0  0  0
 16 17  1  0  0  0  0
 17 19  2  0  0  0  0
 18 19  1  0  0  0  0
 20 21  2  0  0  0  0
 20 28  1  0  0  0  0
 21 22  1  0  0  0  0
 22 23  2  0  0  0  0
 23 25  1  0  0  0  0
 25 26  1  0  0  0  0
 25 27  2  0  0  0  0
 29 30  1  0  0  0  0
 30 31  1  0  0  0  0
 30 32  1  0  0  0  0
M  CHG  2  25   1  26  -1
M  END
