168027
 OpenBabel03021519512D

 30 32  0  0  1  0  0  0  0  0999 V2000
  -10.8134    2.9504    0.0000 O   0  0  0  0  0  0  0  0  0  0  0  0
   -9.1944    6.5867    0.0000 O   0  0  0  0  0  0  0  0  0  0  0  0
   -8.7397   -0.0426    0.0000 O   0  0  0  0  0  0  0  0  0  0  0  0
   -8.4783    4.0893    0.0000 C   0  0  0  0  0  0  0  0  0  0  0  0
   -7.1080    3.4792    0.0000 C   0  0  3  0  0  0  0  0  0  0  0  0
   -8.3215    2.5975    0.0000 C   0  0  3  0  0  0  0  0  0  0  0  0
   -5.8945    2.5975    0.0000 C   0  0  3  0  0  0  0  0  0  0  0  0
   -6.3580    1.1709    0.0000 C   0  0  3  0  0  0  0  0  0  0  0  0
   -4.8908    1.4828    0.0000 C   0  0  0  0  0  0  0  0  0  0  0  0
   -7.8580    1.1709    0.0000 C   0  0  0  0  0  0  0  0  0  0  0  0
  -12.3098    3.0550    0.0000 C   0  0  0  0  0  0  0  0  0  0  0  0
  -12.2052    4.5513    0.0000 C   0  0  0  0  0  0  0  0  0  0  0  0
  -13.8061    3.1596    0.0000 C   0  0  0  0  0  0  0  0  0  0  0  0
  -12.4144    1.5587    0.0000 C   0  0  0  0  0  0  0  0  0  0  0  0
   -8.8316    8.0422    0.0000 C   0  0  0  0  0  0  0  0  0  0  0  0
   -7.3761    7.6793    0.0000 C   0  0  0  0  0  0  0  0  0  0  0  0
   -8.4687    9.4976    0.0000 C   0  0  0  0  0  0  0  0  0  0  0  0
  -10.2870    8.4050    0.0000 C   0  0  0  0  0  0  0  0  0  0  0  0
   -9.9747    4.1939    0.0000 C   0  0  0  0  0  0  0  0  0  0  0  0
  -10.6322    5.5421    0.0000 O   0  0  0  0  0  0  0  0  0  0  0  0
   -8.1154    5.5447    0.0000 C   0  0  0  0  0  0  0  0  0  0  0  0
   -6.6735    5.9582    0.0000 O   0  0  0  0  0  0  0  0  0  0  0  0
   -4.3289    0.0920    0.0000 C   0  0  0  0  0  0  0  0  0  0  0  0
   -2.8435   -0.1167    0.0000 O   0  0  0  0  0  0  0  0  0  0  0  0
   -3.6187    2.2777    0.0000 C   0  0  0  0  0  0  0  0  0  0  0  0
   -2.2943    1.5735    0.0000 O   0  0  0  0  0  0  0  0  0  0  0  0
   -5.2523   -1.0900    0.0000 O   0  0  0  0  0  0  0  0  0  0  0  0
   -4.6904   -2.4808    0.0000 C   0  0  0  0  0  0  0  0  0  0  0  0
   -3.6710    3.7768    0.0000 O   0  0  0  0  0  0  0  0  0  0  0  0
   -4.9955    4.4810    0.0000 C   0  0  0  0  0  0  0  0  0  0  0  0
  1 11  1  0  0  0  0
  1 19  1  0  0  0  0
  2 15  1  0  0  0  0
  2 21  1  0  0  0  0
  3 10  2  0  0  0  0
  4  5  1  0  0  0  0
  4  6  1  0  0  0  0
  4 19  1  0  0  0  0
  4 21  1  0  0  0  0
  5  6  1  0  0  0  0
  5  7  1  0  0  0  0
  6 10  1  0  0  0  0
  7  8  1  0  0  0  0
  7  9  1  0  0  0  0
  8  9  1  0  0  0  0
  8 10  1  0  0  0  0
  9 23  1  0  0  0  0
  9 25  1  0  0  0  0
 11 12  1  0  0  0  0
 11 13  1  0  0  0  0
 11 14  1  0  0  0  0
 15 16  1  0  0  0  0
 15 17  1  0  0  0  0
 15 18  1  0  0  0  0
 19 20  2  0  0  0  0
 21 22  2  0  0  0  0
 23 24  2  0  0  0  0
 23 27  1  0  0  0  0
 25 26  2  0  0  0  0
 25 29  1  0  0  0  0
 27 28  1  0  0  0  0
 29 30  1  0  0  0  0
M  END
