70717
 OpenBabel03021519512D

 12 13  0  0  0  0  0  0  0  0999 V2000
    4.2721   -0.1005    0.0000 N   0  0  0  0  0  0  0  0  0  0  0  0
    5.6987    1.8631    0.0000 N   0  0  0  0  0  0  0  0  0  0  0  0
    6.5804    0.6495    0.0000 N   0  0  0  0  0  0  0  0  0  0  0  0
    8.0804    0.6495    0.0000 H   0  0  0  0  0  0  0  0  0  0  0  0
    6.1622   -1.9906    0.0000 S   0  0  0  0  0  0  0  0  0  0  0  0
    2.9731    2.1495    0.0000 C   0  0  0  0  0  0  0  0  0  0  0  0
    1.6740    1.3995    0.0000 C   0  0  0  0  0  0  0  0  0  0  0  0
    4.2721    1.3995    0.0000 C   0  0  0  0  0  0  0  0  0  0  0  0
    1.6740   -0.1005    0.0000 C   0  0  0  0  0  0  0  0  0  0  0  0
    2.9731   -0.8505    0.0000 C   0  0  0  0  0  0  0  0  0  0  0  0
    5.6987   -0.5640    0.0000 C   0  0  0  0  0  0  0  0  0  0  0  0
    2.9731    3.6495    0.0000 C   0  0  0  0  0  0  0  0  0  0  0  0
  1  8  1  0  0  0  0
  1 10  1  0  0  0  0
  1 11  1  0  0  0  0
  2  3  1  0  0  0  0
  2  8  2  0  0  0  0
  3 11  1  0  0  0  0
  3  4  1  0  0  0  0
  5 11  2  0  0  0  0
  6  7  2  0  0  0  0
  6  8  1  0  0  0  0
  6 12  1  0  0  0  0
  7  9  1  0  0  0  0
  9 10  2  0  0  0  0
M  END
