157522
 OpenBabel03021519512D

 19 20  0  0  0  0  0  0  0  0999 V2000
   -9.8433   -3.7500    0.0000 N   0  0  0  0  0  0  0  0  0  0  0  0
   -8.5442   -6.0000    0.0000 N   0  0  0  0  0  0  0  0  0  0  0  0
   -5.9462   -3.0000    0.0000 C   0  0  0  0  0  0  0  0  0  0  0  0
   -0.7500   -6.0000    0.0000 Cl  0  0  0  0  0  0  0  0  0  0  0  0
   -8.5442   -3.0000    0.0000 C   0  0  0  0  0  0  0  0  0  0  0  0
   -7.2452   -3.7500    0.0000 C   0  0  0  0  0  0  0  0  0  0  0  0
   -7.2452   -5.2500    0.0000 C   0  0  0  0  0  0  0  0  0  0  0  0
   -3.3481   -3.0000    0.0000 C   0  0  0  0  0  0  0  0  0  0  0  0
   -4.6471   -3.7500    0.0000 C   0  0  0  0  0  0  0  0  0  0  0  0
   -2.0490   -3.7500    0.0000 C   0  0  0  0  0  0  0  0  0  0  0  0
   -2.0490   -5.2500    0.0000 C   0  0  0  0  0  0  0  0  0  0  0  0
   -4.6471   -5.2500    0.0000 C   0  0  0  0  0  0  0  0  0  0  0  0
   -3.3481   -6.0000    0.0000 C   0  0  0  0  0  0  0  0  0  0  0  0
   -9.8433   -5.2500    0.0000 C   0  0  0  0  0  0  0  0  0  0  0  0
   -8.5442   -1.5000    0.0000 N   0  0  0  0  0  0  0  0  0  0  0  0
   -5.9461   -6.0000    0.0000 N   0  0  0  0  0  0  0  0  0  0  0  0
   -5.9462   -1.5000    0.0000 C   0  0  0  0  0  0  0  0  0  0  0  0
   -7.2452   -0.7500    0.0000 C   0  0  0  0  0  0  0  0  0  0  0  0
   -4.6471   -0.7500    0.0000 C   0  0  0  0  0  0  0  0  0  0  0  0
  1  5  2  0  0  0  0
  1 14  1  0  0  0  0
  2 14  2  0  0  0  0
  2  7  1  0  0  0  0
  3  6  1  0  0  0  0
  3  9  1  0  0  0  0
  3 17  2  0  0  0  0
  4 11  1  0  0  0  0
  5  6  1  0  0  0  0
  5 15  1  0  0  0  0
  6  7  2  0  0  0  0
  7 16  1  0  0  0  0
  8 10  2  0  0  0  0
  8  9  1  0  0  0  0
  9 12  2  0  0  0  0
 10 11  1  0  0  0  0
 11 13  2  0  0  0  0
 12 13  1  0  0  0  0
 17 18  1  0  0  0  0
 17 19  1  0  0  0  0
M  END
