298197
 OpenBabel03021519512D

 15 16  0  0  0  0  0  0  0  0999 V2000
    3.4755    7.5197    0.0000 C   0  0  0  0  0  0  0  0  0  0  0  0
    4.2255    6.2207    0.0000 C   0  0  0  0  0  0  0  0  0  0  0  0
    1.9755    7.5197    0.0000 C   0  0  0  0  0  0  0  0  0  0  0  0
    1.2255    6.2207    0.0000 C   0  0  0  0  0  0  0  0  0  0  0  0
    3.4755    4.9216    0.0000 C   0  0  0  0  0  0  0  0  0  0  0  0
    1.9755    4.9216    0.0000 C   0  0  0  0  0  0  0  0  0  0  0  0
    1.2255    3.6226    0.0000 N   0  0  0  0  0  0  0  0  0  0  0  0
    1.9755    2.3236    0.0000 N   0  0  0  0  0  0  0  0  0  0  0  0
    1.2255    1.0245    0.0000 C   0  0  0  0  0  0  0  0  0  0  0  0
    1.8356   -0.3458    0.0000 N   0  0  0  0  0  0  0  0  0  0  0  0
   -0.2663    0.8677    0.0000 S   0  0  0  0  0  0  0  0  0  0  0  0
   -0.5781   -0.5995    0.0000 C   0  0  0  0  0  0  0  0  0  0  0  0
    0.7209   -1.3495    0.0000 C   0  0  0  0  0  0  0  0  0  0  0  0
    4.2255    8.8188    0.0000 O   0  0  0  0  0  0  0  0  0  0  0  0
    4.2255    3.6226    0.0000 O   0  0  0  0  0  0  0  0  0  0  0  0
  1  2  2  0  0  0  0
  1  3  1  0  0  0  0
  1 14  1  0  0  0  0
  2  5  1  0  0  0  0
  3  4  2  0  0  0  0
  4  6  1  0  0  0  0
  5  6  2  0  0  0  0
  5 15  1  0  0  0  0
  6  7  1  0  0  0  0
  7  8  2  0  0  0  0
  8  9  1  0  0  0  0
  9 11  1  0  0  0  0
  9 10  2  0  0  0  0
 10 13  1  0  0  0  0
 11 12  1  0  0  0  0
 12 13  2  0  0  0  0
M  END
