170621
 OpenBabel03021519512D

 15 16  0  0  0  0  0  0  0  0999 V2000
   -2.9731    3.6495    0.0000 O   0  5  0  0  0  0  0  0  0  0  0  0
   -2.9731    2.1495    0.0000 N   0  3  0  0  0  0  0  0  0  0  0  0
   -5.5712    2.1495    0.0000 C   0  0  0  0  0  0  0  0  0  0  0  0
   -4.2721    1.3995    0.0000 C   0  0  0  0  0  0  0  0  0  0  0  0
   -6.8702    1.3995    0.0000 C   0  0  0  0  0  0  0  0  0  0  0  0
   -4.2721   -0.1005    0.0000 C   0  0  0  0  0  0  0  0  0  0  0  0
   -6.8702   -0.1005    0.0000 C   0  0  0  0  0  0  0  0  0  0  0  0
   -2.9731   -0.8505    0.0000 C   0  0  0  0  0  0  0  0  0  0  0  0
   -1.6740    1.3995    0.0000 C   0  0  0  0  0  0  0  0  0  0  0  0
   -1.6740   -0.1005    0.0000 C   0  0  0  0  0  0  0  0  0  0  0  0
   -5.5712   -0.8505    0.0000 C   0  0  0  0  0  0  0  0  0  0  0  0
   -6.8702    5.8995    0.0000 N   0  0  0  0  0  0  0  0  0  0  0  0
   -6.8702    4.3995    0.0000 C   0  0  0  0  0  0  0  0  0  0  0  0
   -5.5712    3.6495    0.0000 C   0  0  0  0  0  0  0  0  0  0  0  0
   -4.2721    4.3995    0.0000 O   0  0  0  0  0  0  0  0  0  0  0  0
  1  2  1  0  0  0  0
  2  9  2  0  0  0  0
  2  4  1  0  0  0  0
  3  5  2  0  0  0  0
  3  4  1  0  0  0  0
  3 14  1  0  0  0  0
  4  6  2  0  0  0  0
  5  7  1  0  0  0  0
  6  8  1  0  0  0  0
  6 11  1  0  0  0  0
  7 11  2  0  0  0  0
  8 10  2  0  0  0  0
  9 10  1  0  0  0  0
 12 13  1  0  0  0  0
 13 14  1  0  0  0  0
 14 15  2  0  0  0  0
M  CHG  2   1  -1   2   1
M  END
