196515
 OpenBabel03021519512D

 38 37  0  0  1  0  0  0  0  0999 V2000
    2.2728   -8.5789    0.0000 C   0  0  2  0  0  0  0  0  0  0  0  0
    3.3518   -7.5369    0.0000 C   0  0  0  0  0  0  0  0  0  0  0  0
    2.9890   -6.0815    0.0000 H   0  0  0  0  0  0  0  0  0  0  0  0
    5.1566   -9.4058    0.0000 H   0  0  0  0  0  0  0  0  0  0  0  0
    4.7937   -7.9504    0.0000 C   0  0  0  0  0  0  0  0  0  0  0  0
    6.9147   -7.9874    0.0000 H   0  0  0  0  0  0  0  0  0  0  0  0
   -1.3537   -7.1270    0.0000 C   0  0  0  0  0  0  0  0  0  0  0  0
   -1.9638   -8.4973    0.0000 H   0  0  0  0  0  0  0  0  0  0  0  0
    5.8727   -6.9084    0.0000 C   0  0  1  0  0  0  0  0  0  0  0  0
   -2.2354   -5.9135    0.0000 C   0  0  0  0  0  0  0  0  0  0  0  0
   -3.7272   -6.0703    0.0000 H   0  0  0  0  0  0  0  0  0  0  0  0
    0.0914   -9.6428    0.0000 C   0  0  1  0  0  0  0  0  0  0  0  0
    1.1334  -10.7219    0.0000 C   0  0  0  0  0  0  0  0  0  0  0  0
    0.7956   -8.3184    0.0000 C   0  0  2  0  0  0  0  0  0  0  0  0
    2.4816  -10.0643    0.0000 C   0  0  1  0  0  0  0  0  0  0  0  0
    3.8060  -10.7685    0.0000 O   0  0  0  0  0  0  0  0  0  0  0  0
   -1.3940   -9.8516    0.0000 O   0  0  0  0  0  0  0  0  0  0  0  0
    0.1381   -6.9702    0.0000 C   0  0  0  0  0  0  0  0  0  0  0  0
    7.3282   -6.5455    0.0000 O   0  0  0  0  0  0  0  0  0  0  0  0
    5.5099   -5.4529    0.0000 C   0  0  0  0  0  0  0  0  0  0  0  0
   -1.6253   -4.5432    0.0000 C   0  0  0  0  0  0  0  0  0  0  0  0
    6.5889   -4.4110    0.0000 C   0  0  0  0  0  0  0  0  0  0  0  0
   -2.5070   -3.3296    0.0000 C   0  0  0  0  0  0  0  0  0  0  0  0
    6.2260   -2.9555    0.0000 C   0  0  0  0  0  0  0  0  0  0  0  0
   -1.8968   -1.9593    0.0000 C   0  0  0  0  0  0  0  0  0  0  0  0
    7.3050   -1.9135    0.0000 C   0  0  0  0  0  0  0  0  0  0  0  0
   -2.7785   -0.7458    0.0000 C   0  0  0  0  0  0  0  0  0  0  0  0
   -2.1684    0.6245    0.0000 O   0  0  0  0  0  0  0  0  0  0  0  0
   -4.2703   -0.9026    0.0000 O   0  0  0  0  0  0  0  0  0  0  0  0
    6.9421   -0.4581    0.0000 C   0  0  0  0  0  0  0  0  0  0  0  0
    2.6353  -17.0417    0.0000 N   0  0  0  0  0  0  0  0  0  0  0  0
    4.1353  -17.0417    0.0000 C   0  0  0  0  0  0  0  0  0  0  0  0
    4.1353  -18.5417    0.0000 C   0  0  0  0  0  0  0  0  0  0  0  0
    2.8362  -19.2917    0.0000 O   0  0  0  0  0  0  0  0  0  0  0  0
    4.1353  -15.5417    0.0000 C   0  0  0  0  0  0  0  0  0  0  0  0
    2.8362  -14.7917    0.0000 O   0  0  0  0  0  0  0  0  0  0  0  0
    5.6353  -17.0417    0.0000 C   0  0  0  0  0  0  0  0  0  0  0  0
    6.3853  -15.7427    0.0000 O   0  0  0  0  0  0  0  0  0  0  0  0
  1 14  1  0  0  0  0
  1 15  1  0  0  0  0
  1  2  1  1  0  0  0
  2  5  2  0  0  0  0
  2  3  1  0  0  0  0
  4  5  1  0  0  0  0
  5  9  1  0  0  0  0
  7  8  1  0  0  0  0
  7 10  2  0  0  0  0
  7 18  1  0  0  0  0
  9  6  1  1  0  0  0
  9 19  1  0  0  0  0
  9 20  1  0  0  0  0
 10 11  1  0  0  0  0
 10 21  1  0  0  0  0
 12 13  1  0  0  0  0
 12 14  1  0  0  0  0
 12 17  1  6  0  0  0
 13 15  1  0  0  0  0
 14 18  1  6  0  0  0
 15 16  1  6  0  0  0
 20 22  1  0  0  0  0
 21 23  1  0  0  0  0
 22 24  1  0  0  0  0
 23 25  1  0  0  0  0
 24 26  1  0  0  0  0
 25 27  1  0  0  0  0
 26 30  1  0  0  0  0
 27 28  2  0  0  0  0
 27 29  1  0  0  0  0
 31 32  1  0  0  0  0
 32 33  1  0  0  0  0
 32 35  1  0  0  0  0
 32 37  1  0  0  0  0
 33 34  1  0  0  0  0
 35 36  1  0  0  0  0
 37 38  1  0  0  0  0
M  END
