76015
 OpenBabel03021519512D

 11 11  0  0  0  0  0  0  0  0999 V2000
   -6.5056   -0.7500    0.0000 Br  0  0  0  0  0  0  0  0  0  0  0  0
   -6.5056   -3.7500    0.0000 Br  0  0  0  0  0  0  0  0  0  0  0  0
   -3.9076   -0.7500    0.0000 N   0  0  0  0  0  0  0  0  0  0  0  0
   -1.3095   -3.7500    0.0000 Br  0  0  0  0  0  0  0  0  0  0  0  0
   -5.2066   -1.5000    0.0000 C   0  0  0  0  0  0  0  0  0  0  0  0
   -5.2066   -3.0000    0.0000 C   0  0  0  0  0  0  0  0  0  0  0  0
   -3.9075   -3.7500    0.0000 C   0  0  0  0  0  0  0  0  0  0  0  0
   -2.6085   -1.5000    0.0000 C   0  0  0  0  0  0  0  0  0  0  0  0
   -2.6085   -3.0000    0.0000 C   0  0  0  0  0  0  0  0  0  0  0  0
   -3.9075   -5.2500    0.0000 C   0  0  0  0  0  0  0  0  0  0  0  0
   -1.3095   -0.7500    0.0000 C   0  0  0  0  0  0  0  0  0  0  0  0
  1  5  1  0  0  0  0
  2  6  1  0  0  0  0
  3  8  2  0  0  0  0
  3  5  1  0  0  0  0
  4  9  1  0  0  0  0
  5  6  2  0  0  0  0
  6  7  1  0  0  0  0
  7  9  2  0  0  0  0
  7 10  1  0  0  0  0
  8  9  1  0  0  0  0
  8 11  1  0  0  0  0
M  END
