317605
 OpenBabel03021519512D

 27 30  0  0  0  0  0  0  0  0999 V2000
   -1.0245    3.2745    0.0000 Cl  0  0  0  0  0  0  0  0  0  0  0  0
    0.2745    5.5245    0.0000 C   0  0  0  0  0  0  0  0  0  0  0  0
    0.2745    4.0245    0.0000 C   0  0  0  0  0  0  0  0  0  0  0  0
    1.5735    6.2745    0.0000 C   0  0  0  0  0  0  0  0  0  0  0  0
    1.5736    3.2745    0.0000 C   0  0  0  0  0  0  0  0  0  0  0  0
    2.8726    5.5245    0.0000 C   0  0  0  0  0  0  0  0  0  0  0  0
    2.8726    4.0245    0.0000 C   0  0  0  0  0  0  0  0  0  0  0  0
    3.4798    8.8565    0.0000 H   0  0  0  0  0  0  0  0  0  0  0  0
    4.1716    6.2745    0.0000 C   0  0  0  0  0  0  0  0  0  0  0  0
    4.1716    3.2745    0.0000 N   0  0  0  0  0  0  0  0  0  0  0  0
    4.4835    7.7418    0.0000 N   0  0  0  0  0  0  0  0  0  0  0  0
    5.4707    5.5245    0.0000 C   0  0  0  0  0  0  0  0  0  0  0  0
    5.4707    4.0245    0.0000 C   0  0  0  0  0  0  0  0  0  0  0  0
    6.5854    6.5282    0.0000 C   0  0  0  0  0  0  0  0  0  0  0  0
    5.9753    7.8986    0.0000 C   0  0  0  0  0  0  0  0  0  0  0  0
    6.8569    9.1121    0.0000 C   0  0  0  0  0  0  0  0  0  0  0  0
    8.0772    6.3715    0.0000 C   0  0  0  0  0  0  0  0  0  0  0  0
    8.9588    7.5850    0.0000 C   0  0  0  0  0  0  0  0  0  0  0  0
    8.3487    8.9553    0.0000 C   0  0  0  0  0  0  0  0  0  0  0  0
   10.4506    7.4282    0.0000 O   0  0  0  0  0  0  0  0  0  0  0  0
   10.7222   10.0120    0.0000 N   0  0  0  0  0  0  0  0  0  0  0  0
    9.2304   10.1688    0.0000 C   0  0  0  0  0  0  0  0  0  0  0  0
   11.0607    6.0579    0.0000 C   0  0  0  0  0  0  0  0  0  0  0  0
   11.6039   11.2256    0.0000 C   0  0  0  0  0  0  0  0  0  0  0  0
   10.9938   12.5959    0.0000 C   0  0  0  0  0  0  0  0  0  0  0  0
   11.3323    8.6417    0.0000 C   0  0  0  0  0  0  0  0  0  0  0  0
   12.8241    8.4849    0.0000 C   0  0  0  0  0  0  0  0  0  0  0  0
  1  3  1  0  0  0  0
  2  4  2  0  0  0  0
  2  3  1  0  0  0  0
  3  5  2  0  0  0  0
  4  6  1  0  0  0  0
  5  7  1  0  0  0  0
  6  9  1  0  0  0  0
  6  7  2  0  0  0  0
  7 10  1  0  0  0  0
  8 11  1  0  0  0  0
  9 11  1  0  0  0  0
  9 12  2  0  0  0  0
 10 13  2  0  0  0  0
 11 15  1  0  0  0  0
 12 14  1  0  0  0  0
 12 13  1  0  0  0  0
 14 15  2  0  0  0  0
 14 17  1  0  0  0  0
 15 16  1  0  0  0  0
 16 19  2  0  0  0  0
 17 18  2  0  0  0  0
 18 19  1  0  0  0  0
 18 20  1  0  0  0  0
 19 22  1  0  0  0  0
 20 23  1  0  0  0  0
 21 22  1  0  0  0  0
 21 24  1  0  0  0  0
 21 26  1  0  0  0  0
 24 25  1  0  0  0  0
 26 27  1  0  0  0  0
M  END
