49252
 OpenBabel03021519512D

 10  9  0  0  0  0  0  0  0  0999 V2000
   -1.4910    5.2014    0.0000 C   0  0  0  0  0  0  0  0  0  0  0  0
    0.0090    5.2014    0.0000 C   0  0  0  0  0  0  0  0  0  0  0  0
    0.7590    6.5004    0.0000 C   0  0  0  0  0  0  0  0  0  0  0  0
    2.2590    6.5004    0.0000 N   0  0  0  0  0  0  0  0  0  0  0  0
    3.0090    5.2014    0.0000 C   0  0  0  0  0  0  0  0  0  0  0  0
    4.5090    5.2014    0.0000 S   0  0  0  0  0  0  0  0  0  0  0  0
    2.2590    3.9023    0.0000 N   0  0  0  0  0  0  0  0  0  0  0  0
    0.7590    3.9023    0.0000 C   0  0  0  0  0  0  0  0  0  0  0  0
    0.0090    2.6033    0.0000 C   0  0  0  0  0  0  0  0  0  0  0  0
    0.7590    1.3043    0.0000 C   0  0  0  0  0  0  0  0  0  0  0  0
  1  2  2  0  0  0  0
  2  3  1  0  0  0  0
  3  4  1  0  0  0  0
  4  5  1  0  0  0  0
  5  6  2  0  0  0  0
  5  7  1  0  0  0  0
  7  8  1  0  0  0  0
  8  9  1  0  0  0  0
  9 10  2  0  0  0  0
M  END
