335506
 OpenBabel03021519512D

 29 30  0  0  1  0  0  0  0  0999 V2000
    5.8696   10.6649    0.0000 C   0  0  3  0  0  0  0  0  0  0  0  0
    4.5173   10.0157    0.0000 C   0  0  0  0  0  0  0  0  0  0  0  0
    4.1817    8.5537    0.0000 C   0  0  0  0  0  0  0  0  0  0  0  0
    5.1155    7.3798    0.0000 C   0  0  0  0  0  0  0  0  0  0  0  0
    6.6155    7.3780    0.0000 C   0  0  0  0  0  0  0  0  0  0  0  0
    7.5522    8.5496    0.0000 C   0  0  0  0  0  0  0  0  0  0  0  0
    7.2202   10.0124    0.0000 C   0  0  0  0  0  0  0  0  0  0  0  0
    3.4190   11.0373    0.0000 C   0  0  0  0  0  0  0  0  0  0  0  0
    1.9851   10.5969    0.0000 C   0  0  0  0  0  0  0  0  0  0  0  0
    1.6495    9.1350    0.0000 C   0  0  0  0  0  0  0  0  0  0  0  0
    2.7478    8.1134    0.0000 C   0  0  0  0  0  0  0  0  0  0  0  0
    8.9850    8.1057    0.0000 C   0  0  0  0  0  0  0  0  0  0  0  0
   10.0859    9.1246    0.0000 C   0  0  0  0  0  0  0  0  0  0  0  0
    9.7539   10.5874    0.0000 C   0  0  0  0  0  0  0  0  0  0  0  0
    8.3211   11.0313    0.0000 N   0  0  0  0  0  0  0  0  0  0  0  0
    5.8714   12.1649    0.0000 C   0  0  0  0  0  0  0  0  0  0  0  0
    7.1713   12.9133    0.0000 C   0  0  0  0  0  0  0  0  0  0  0  0
    7.1732   14.4133    0.0000 N   0  0  0  0  0  0  0  0  0  0  0  0
    5.8751   15.1649    0.0000 C   0  0  0  0  0  0  0  0  0  0  0  0
    8.4731   15.1617    0.0000 C   0  0  0  0  0  0  0  0  0  0  0  0
    0.2156    8.6946    0.0000 Cl  0  0  0  0  0  0  0  0  0  0  0  0
    2.1015   15.7431    0.0000 C   0  0  0  0  0  0  0  0  0  0  0  0
    0.6056   15.6328    0.0000 N   0  0  0  0  0  0  0  0  0  0  0  0
   -0.0469   14.2822    0.0000 C   0  0  0  0  0  0  0  0  0  0  0  0
    0.7966   13.0418    0.0000 O   0  0  0  0  0  0  0  0  0  0  0  0
   -1.5428   14.1719    0.0000 C   0  0  0  0  0  0  0  0  0  0  0  0
    2.7540   17.0937    0.0000 C   0  0  0  0  0  0  0  0  0  0  0  0
    4.2499   17.2040    0.0000 O   0  0  0  0  0  0  0  0  0  0  0  0
    1.9105   18.3341    0.0000 O   0  0  0  0  0  0  0  0  0  0  0  0
  1  2  1  0  0  0  0
  1  7  1  0  0  0  0
  1 16  1  0  0  0  0
  2  3  2  0  0  0  0
  2  8  1  0  0  0  0
  3  4  1  0  0  0  0
  3 11  1  0  0  0  0
  4  5  1  0  0  0  0
  5  6  1  0  0  0  0
  6  7  2  0  0  0  0
  6 12  1  0  0  0  0
  7 15  1  0  0  0  0
  8  9  2  0  0  0  0
  9 10  1  0  0  0  0
 10 11  2  0  0  0  0
 10 21  1  0  0  0  0
 12 13  2  0  0  0  0
 13 14  1  0  0  0  0
 14 15  2  0  0  0  0
 16 17  1  0  0  0  0
 17 18  1  0  0  0  0
 18 19  1  0  0  0  0
 18 20  1  0  0  0  0
 22 23  1  0  0  0  0
 22 27  1  0  0  0  0
 23 24  1  0  0  0  0
 24 25  2  0  0  0  0
 24 26  1  0  0  0  0
 27 28  2  0  0  0  0
 27 29  1  0  0  0  0
M  END
