122385
 OpenBabel03021519512D

 17 18  0  0  0  0  0  0  0  0999 V2000
   -3.1317   -1.0365    0.0000 S   0  0  0  0  0  0  0  0  0  0  0  0
   -3.1317   -3.4635    0.0000 N   0  0  0  0  0  0  0  0  0  0  0  0
   -5.8573   -0.7500    0.0000 C   0  0  0  0  0  0  0  0  0  0  0  0
   -4.5583   -1.5000    0.0000 C   0  0  0  0  0  0  0  0  0  0  0  0
   -7.1563   -1.5000    0.0000 C   0  0  0  0  0  0  0  0  0  0  0  0
   -4.5583   -3.0000    0.0000 C   0  0  0  0  0  0  0  0  0  0  0  0
   -7.1563   -3.0000    0.0000 C   0  0  0  0  0  0  0  0  0  0  0  0
   -5.8573   -3.7500    0.0000 C   0  0  0  0  0  0  0  0  0  0  0  0
   -2.2500   -2.2500    0.0000 C   0  0  0  0  0  0  0  0  0  0  0  0
  -11.0535   -3.7500    0.0000 C   0  0  0  0  0  0  0  0  0  0  0  0
  -11.0535   -2.2500    0.0000 O   0  0  0  0  0  0  0  0  0  0  0  0
  -12.3525   -4.5000    0.0000 C   0  0  0  0  0  0  0  0  0  0  0  0
   -9.7544   -4.5000    0.0000 N   0  0  0  0  0  0  0  0  0  0  0  0
   -8.4554   -3.7500    0.0000 S   0  0  0  0  0  0  0  0  0  0  0  0
   -9.2054   -2.4510    0.0000 O   0  0  0  0  0  0  0  0  0  0  0  0
   -7.7054   -5.0490    0.0000 O   0  0  0  0  0  0  0  0  0  0  0  0
   -0.7500   -2.2500    0.0000 C   0  0  0  0  0  0  0  0  0  0  0  0
  1  4  1  0  0  0  0
  1  9  1  0  0  0  0
  2  9  2  0  0  0  0
  2  6  1  0  0  0  0
  3  5  2  0  0  0  0
  3  4  1  0  0  0  0
  4  6  2  0  0  0  0
  5  7  1  0  0  0  0
  6  8  1  0  0  0  0
  7  8  2  0  0  0  0
  7 14  1  0  0  0  0
  9 17  1  0  0  0  0
 10 11  2  0  0  0  0
 10 12  1  0  0  0  0
 10 13  1  0  0  0  0
 13 14  1  0  0  0  0
 14 15  2  0  0  0  0
 14 16  2  0  0  0  0
M  END
