207895
 OpenBabel03021519512D

 20 22  0  0  0  0  0  0  0  0999 V2000
    3.2865    4.7747    0.0000 N   0  0  0  0  0  0  0  0  0  0  0  0
    3.0000    2.0490    0.0000 C   0  0  0  0  0  0  0  0  0  0  0  0
    3.7500    3.3481    0.0000 C   0  0  0  0  0  0  0  0  0  0  0  0
    3.7500    0.7500    0.0000 C   0  0  0  0  0  0  0  0  0  0  0  0
    4.5000    5.6563    0.0000 O   0  0  0  0  0  0  0  0  0  0  0  0
    5.2500    0.7500    0.0000 C   0  0  0  0  0  0  0  0  0  0  0  0
    5.2500    3.3481    0.0000 C   0  0  0  0  0  0  0  0  0  0  0  0
    6.0000    2.0490    0.0000 C   0  0  0  0  0  0  0  0  0  0  0  0
    5.7135    4.7747    0.0000 N   0  3  0  0  0  0  0  0  0  0  0  0
    7.5000    2.0490    0.0000 N   0  0  0  0  0  0  0  0  0  0  0  0
    7.1401    5.2382    0.0000 O   0  5  0  0  0  0  0  0  0  0  0  0
    8.2500    3.3481    0.0000 C   0  0  0  0  0  0  0  0  0  0  0  0
    8.2500    0.7500    0.0000 C   0  0  0  0  0  0  0  0  0  0  0  0
    9.7500    3.3481    0.0000 C   0  0  0  0  0  0  0  0  0  0  0  0
    9.7500    0.7500    0.0000 C   0  0  0  0  0  0  0  0  0  0  0  0
   10.5000    2.0491    0.0000 N   0  0  0  0  0  0  0  0  0  0  0  0
    1.5000    2.0490    0.0000 N   0  3  0  0  0  0  0  0  0  0  0  0
    0.7500    3.3481    0.0000 O   0  5  0  0  0  0  0  0  0  0  0  0
    0.7500    0.7500    0.0000 O   0  0  0  0  0  0  0  0  0  0  0  0
   12.0000    2.0491    0.0000 C   0  0  0  0  0  0  0  0  0  0  0  0
  1  5  1  0  0  0  0
  1  3  2  0  0  0  0
  2  3  1  0  0  0  0
  2  4  2  0  0  0  0
  2 17  1  0  0  0  0
  3  7  1  0  0  0  0
  4  6  1  0  0  0  0
  5  9  1  0  0  0  0
  6  8  2  0  0  0  0
  7  9  2  0  0  0  0
  7  8  1  0  0  0  0
  8 10  1  0  0  0  0
  9 11  1  0  0  0  0
 10 12  1  0  0  0  0
 10 13  1  0  0  0  0
 12 14  1  0  0  0  0
 13 15  1  0  0  0  0
 14 16  1  0  0  0  0
 15 16  1  0  0  0  0
 16 20  1  0  0  0  0
 17 18  1  0  0  0  0
 17 19  2  0  0  0  0
M  CHG  4   9   1  11  -1  17   1  18  -1
M  END
