300289
 OpenBabel03021519512D

 25 28  0  0  0  0  0  0  0  0999 V2000
    2.7477    9.7312    0.0000 C   0  0  0  0  0  0  0  0  0  0  0  0
    1.2477    9.7312    0.0000 C   0  0  0  0  0  0  0  0  0  0  0  0
   10.3794    9.6457    0.0000 C   0  0  0  0  0  0  0  0  0  0  0  0
    4.9977    8.4322    0.0000 C   0  0  0  0  0  0  0  0  0  0  0  0
    3.4977    8.4322    0.0000 C   0  0  0  0  0  0  0  0  0  0  0  0
    0.4977    8.4322    0.0000 C   0  0  0  0  0  0  0  0  0  0  0  0
   11.8060    9.1822    0.0000 C   0  0  0  0  0  0  0  0  0  0  0  0
    2.7477    7.1332    0.0000 C   0  0  0  0  0  0  0  0  0  0  0  0
    1.2477    7.1332    0.0000 C   0  0  0  0  0  0  0  0  0  0  0  0
   11.8060    7.6822    0.0000 C   0  0  0  0  0  0  0  0  0  0  0  0
   10.3794    7.2187    0.0000 C   0  0  0  0  0  0  0  0  0  0  0  0
    4.9977    5.8341    0.0000 C   0  0  0  0  0  0  0  0  0  0  0  0
    3.4977    5.8341    0.0000 C   0  0  0  0  0  0  0  0  0  0  0  0
    0.4977    5.8341    0.0000 C   0  0  0  0  0  0  0  0  0  0  0  0
    2.7477    4.5351    0.0000 C   0  0  0  0  0  0  0  0  0  0  0  0
    1.2477    4.5351    0.0000 C   0  0  0  0  0  0  0  0  0  0  0  0
    5.7477    7.1332    0.0000 N   0  0  0  0  0  0  0  0  0  0  0  0
    5.7477    4.5351    0.0000 O   0  0  0  0  0  0  0  0  0  0  0  0
    5.7477    9.7312    0.0000 O   0  0  0  0  0  0  0  0  0  0  0  0
    9.4977    8.4322    0.0000 N   0  0  0  0  0  0  0  0  0  0  0  0
    0.4977    3.2360    0.0000 N   0  3  0  0  0  0  0  0  0  0  0  0
   -1.0023    3.2360    0.0000 O   0  5  0  0  0  0  0  0  0  0  0  0
    1.2477    1.9370    0.0000 O   0  0  0  0  0  0  0  0  0  0  0  0
    7.2477    7.1332    0.0000 C   0  0  0  0  0  0  0  0  0  0  0  0
    7.9977    8.4322    0.0000 C   0  0  0  0  0  0  0  0  0  0  0  0
  1  2  1  0  0  0  0
  1  5  2  0  0  0  0
  2  6  2  0  0  0  0
  3  7  1  0  0  0  0
  3 20  1  0  0  0  0
  4 19  2  0  0  0  0
  4  5  1  0  0  0  0
  4 17  1  0  0  0  0
  5  8  1  0  0  0  0
  6  9  1  0  0  0  0
  7 10  1  0  0  0  0
  8  9  1  0  0  0  0
  8 13  2  0  0  0  0
  9 14  2  0  0  0  0
 10 11  1  0  0  0  0
 11 20  1  0  0  0  0
 12 17  1  0  0  0  0
 12 13  1  0  0  0  0
 12 18  2  0  0  0  0
 13 15  1  0  0  0  0
 14 16  1  0  0  0  0
 15 16  2  0  0  0  0
 16 21  1  0  0  0  0
 17 24  1  0  0  0  0
 20 25  1  0  0  0  0
 21 22  1  0  0  0  0
 21 23  2  0  0  0  0
 24 25  1  0  0  0  0
M  CHG  2  21   1  22  -1
M  END
