85433
 OpenBabel03021519512D

 22 24  0  0  0  0  0  0  0  0999 V2000
    0.6077  -10.6910    0.0000 O   0  0  0  0  0  0  0  0  0  0  0  0
    3.9558   -2.3827    0.0000 Br  0  0  0  0  0  0  0  0  0  0  0  0
    6.5539   -6.8827    0.0000 Br  0  0  0  0  0  0  0  0  0  0  0  0
    3.9558   -3.8827    0.0000 C   0  0  0  0  0  0  0  0  0  0  0  0
    2.6568   -4.6327    0.0000 C   0  0  0  0  0  0  0  0  0  0  0  0
    5.2548   -4.6327    0.0000 C   0  0  0  0  0  0  0  0  0  0  0  0
    5.2548   -6.1327    0.0000 C   0  0  0  0  0  0  0  0  0  0  0  0
    2.6568   -6.1327    0.0000 C   0  0  0  0  0  0  0  0  0  0  0  0
    3.9558   -6.8827    0.0000 C   0  0  0  0  0  0  0  0  0  0  0  0
    3.1114  -11.8057    0.0000 C   0  0  0  0  0  0  0  0  0  0  0  0
    4.5786  -11.4939    0.0000 C   0  0  0  0  0  0  0  0  0  0  0  0
    2.1077  -10.6910    0.0000 C   0  0  0  0  0  0  0  0  0  0  0  0
    2.5713   -9.2644    0.0000 C   0  0  0  0  0  0  0  0  0  0  0  0
    5.0422  -10.0673    0.0000 C   0  0  0  0  0  0  0  0  0  0  0  0
    1.3577   -8.3827    0.0000 C   0  0  0  0  0  0  0  0  0  0  0  0
    0.1442   -9.2644    0.0000 C   0  0  0  0  0  0  0  0  0  0  0  0
    4.0385   -8.9526    0.0000 C   0  0  0  0  0  0  0  0  0  0  0  0
   -1.2824   -8.8009    0.0000 C   0  0  0  0  0  0  0  0  0  0  0  0
   -1.5943   -7.3337    0.0000 C   0  0  0  0  0  0  0  0  0  0  0  0
    1.3577   -6.8827    0.0000 C   0  0  0  0  0  0  0  0  0  0  0  0
    0.0587   -6.1327    0.0000 O   0  0  0  0  0  0  0  0  0  0  0  0
    6.5539   -3.8827    0.0000 O   0  0  0  0  0  0  0  0  0  0  0  0
  1 12  1  0  0  0  0
  1 16  1  0  0  0  0
  2  4  1  0  0  0  0
  3  7  1  0  0  0  0
  4  6  2  0  0  0  0
  4  5  1  0  0  0  0
  5  8  2  0  0  0  0
  6  7  1  0  0  0  0
  6 22  1  0  0  0  0
  7  9  2  0  0  0  0
  8  9  1  0  0  0  0
  8 20  1  0  0  0  0
 10 11  2  0  0  0  0
 10 12  1  0  0  0  0
 11 14  1  0  0  0  0
 12 13  2  0  0  0  0
 13 15  1  0  0  0  0
 13 17  1  0  0  0  0
 14 17  2  0  0  0  0
 15 16  2  0  0  0  0
 15 20  1  0  0  0  0
 16 18  1  0  0  0  0
 18 19  1  0  0  0  0
 20 21  2  0  0  0  0
M  END
