113532
 OpenBabel03021519512D

 11 11  0  0  0  0  0  0  0  0999 V2000
   -2.8726   -4.0245    0.0000 C   0  0  0  0  0  0  0  0  0  0  0  0
   -5.4707   -4.0245    0.0000 C   0  0  0  0  0  0  0  0  0  0  0  0
   -6.7697   -4.7745    0.0000 C   0  0  0  0  0  0  0  0  0  0  0  0
   -4.1716   -4.7745    0.0000 C   0  0  0  0  0  0  0  0  0  0  0  0
   -4.1716   -6.2745    0.0000 C   0  0  0  0  0  0  0  0  0  0  0  0
   -6.7697   -6.2745    0.0000 C   0  0  0  0  0  0  0  0  0  0  0  0
   -5.4707   -7.0245    0.0000 C   0  0  0  0  0  0  0  0  0  0  0  0
   -2.8726   -2.5245    0.0000 N   0  0  0  0  0  0  0  0  0  0  0  0
   -1.5735   -4.7745    0.0000 N   0  0  0  0  0  0  0  0  0  0  0  0
   -0.2745   -4.0245    0.0000 C   0  0  0  0  0  0  0  0  0  0  0  0
    1.0245   -3.2745    0.0000 N   0  0  0  0  0  0  0  0  0  0  0  0
  1  4  1  0  0  0  0
  1  8  2  0  0  0  0
  1  9  1  0  0  0  0
  2  3  2  0  0  0  0
  2  4  1  0  0  0  0
  3  6  1  0  0  0  0
  4  5  2  0  0  0  0
  5  7  1  0  0  0  0
  6  7  2  0  0  0  0
  9 10  1  0  0  0  0
 10 11  3  0  0  0  0
M  END
