111194
 OpenBabel03021519512D

 23 25  0  0  0  0  0  0  0  0999 V2000
   -1.5735   10.7745    0.0000 N   0  0  0  0  0  0  0  0  0  0  0  0
    1.0246   12.2745    0.0000 N   0  0  0  0  0  0  0  0  0  0  0  0
    6.2207   12.2745    0.0000 Cl  0  0  0  0  0  0  0  0  0  0  0  0
    2.3236   14.5245    0.0000 C   0  0  0  0  0  0  0  0  0  0  0  0
    2.3236   13.0245    0.0000 C   0  0  0  0  0  0  0  0  0  0  0  0
    3.6226   15.2745    0.0000 C   0  0  0  0  0  0  0  0  0  0  0  0
    4.9217   14.5245    0.0000 C   0  0  0  0  0  0  0  0  0  0  0  0
    3.6226   12.2745    0.0000 C   0  0  0  0  0  0  0  0  0  0  0  0
    4.9217   13.0245    0.0000 C   0  0  0  0  0  0  0  0  0  0  0  0
   -0.2745   13.0245    0.0000 C   0  0  0  0  0  0  0  0  0  0  0  0
   -1.5735   12.2745    0.0000 C   0  0  0  0  0  0  0  0  0  0  0  0
    1.0246   10.7745    0.0000 C   0  0  0  0  0  0  0  0  0  0  0  0
   -0.2745   10.0245    0.0000 C   0  0  0  0  0  0  0  0  0  0  0  0
   -4.1716    7.7745    0.0000 C   0  0  0  0  0  0  0  0  0  0  0  0
   -4.1716    6.2745    0.0000 C   0  0  0  0  0  0  0  0  0  0  0  0
   -2.8726    8.5245    0.0000 C   0  0  0  0  0  0  0  0  0  0  0  0
   -1.5735    7.7745    0.0000 C   0  0  0  0  0  0  0  0  0  0  0  0
   -2.8726    5.5245    0.0000 C   0  0  0  0  0  0  0  0  0  0  0  0
   -1.5735    6.2745    0.0000 C   0  0  0  0  0  0  0  0  0  0  0  0
   -2.8726    4.0245    0.0000 O   0  0  0  0  0  0  0  0  0  0  0  0
   -4.1716    3.2745    0.0000 C   0  0  0  0  0  0  0  0  0  0  0  0
   -2.8726   10.0245    0.0000 C   0  0  0  0  0  0  0  0  0  0  0  0
   -4.1716   10.7745    0.0000 S   0  0  0  0  0  0  0  0  0  0  0  0
  1 11  1  0  0  0  0
  1 13  1  0  0  0  0
  1 22  1  0  0  0  0
  2  5  1  0  0  0  0
  2 10  1  0  0  0  0
  2 12  1  0  0  0  0
  3  9  1  0  0  0  0
  4  6  2  0  0  0  0
  4  5  1  0  0  0  0
  5  8  2  0  0  0  0
  6  7  1  0  0  0  0
  7  9  2  0  0  0  0
  8  9  1  0  0  0  0
 10 11  1  0  0  0  0
 12 13  1  0  0  0  0
 14 15  2  0  0  0  0
 14 16  1  0  0  0  0
 15 18  1  0  0  0  0
 16 17  2  0  0  0  0
 16 22  1  0  0  0  0
 17 19  1  0  0  0  0
 18 19  2  0  0  0  0
 18 20  1  0  0  0  0
 20 21  1  0  0  0  0
 22 23  2  0  0  0  0
M  END
