142269
 OpenBabel03021519512D

 19 20  0  0  0  0  0  0  0  0999 V2000
    7.5197   -7.0245    0.0000 N   0  0  0  0  0  0  0  0  0  0  0  0
    4.9217   -2.5245    0.0000 C   0  0  0  0  0  0  0  0  0  0  0  0
    4.9217   -1.0245    0.0000 C   0  0  0  0  0  0  0  0  0  0  0  0
    3.6226   -3.2745    0.0000 C   0  0  0  0  0  0  0  0  0  0  0  0
    2.3236   -2.5245    0.0000 C   0  0  0  0  0  0  0  0  0  0  0  0
    3.6226   -0.2745    0.0000 C   0  0  0  0  0  0  0  0  0  0  0  0
    2.3236   -1.0245    0.0000 C   0  0  0  0  0  0  0  0  0  0  0  0
    8.8188   -7.7745    0.0000 C   0  0  0  0  0  0  0  0  0  0  0  0
    8.8188   -9.2745    0.0000 C   0  0  0  0  0  0  0  0  0  0  0  0
    7.5197  -10.0245    0.0000 C   0  0  0  0  0  0  0  0  0  0  0  0
    6.2207   -9.2745    0.0000 C   0  0  0  0  0  0  0  0  0  0  0  0
    6.2207   -7.7745    0.0000 C   0  0  0  0  0  0  0  0  0  0  0  0
    3.6226    1.2255    0.0000 S   0  0  0  0  0  0  0  0  0  0  0  0
    4.9216    1.9755    0.0000 C   0  0  0  0  0  0  0  0  0  0  0  0
    3.6226   -4.7745    0.0000 N   0  0  0  0  0  0  0  0  0  0  0  0
    4.9217   -5.5245    0.0000 C   0  0  0  0  0  0  0  0  0  0  0  0
    6.2207   -4.7745    0.0000 O   0  0  0  0  0  0  0  0  0  0  0  0
    4.9217   -7.0245    0.0000 N   0  0  0  0  0  0  0  0  0  0  0  0
    7.5198  -11.5245    0.0000 C   0  0  0  0  0  0  0  0  0  0  0  0
  1 12  2  0  0  0  0
  1  8  1  0  0  0  0
  2  3  2  0  0  0  0
  2  4  1  0  0  0  0
  3  6  1  0  0  0  0
  4  5  2  0  0  0  0
  4 15  1  0  0  0  0
  5  7  1  0  0  0  0
  6  7  2  0  0  0  0
  6 13  1  0  0  0  0
  8  9  2  0  0  0  0
  9 10  1  0  0  0  0
 10 11  2  0  0  0  0
 10 19  1  0  0  0  0
 11 12  1  0  0  0  0
 12 18  1  0  0  0  0
 13 14  1  0  0  0  0
 15 16  1  0  0  0  0
 16 17  2  0  0  0  0
 16 18  1  0  0  0  0
M  END
