25435
 OpenBabel03021519512D

 22 24  0  0  0  0  0  0  0  0999 V2000
    4.1791    4.9244    0.0000 O   0  0  0  0  0  0  0  0  0  0  0  0
    3.4056    2.0377    0.0000 O   0  0  0  0  0  0  0  0  0  0  0  0
    1.2865    8.3716    0.0000 C   0  0  0  0  0  0  0  0  0  0  0  0
    0.7735    6.9621    0.0000 C   0  0  0  0  0  0  0  0  0  0  0  0
    2.7637    8.6321    0.0000 C   0  0  0  0  0  0  0  0  0  0  0  0
    1.7377    5.8130    0.0000 C   0  0  0  0  0  0  0  0  0  0  0  0
    3.7279    7.4830    0.0000 C   0  0  0  0  0  0  0  0  0  0  0  0
    3.2149    6.0735    0.0000 C   0  0  0  0  0  0  0  0  0  0  0  0
    5.5944    5.8130    0.0000 C   0  0  0  0  0  0  0  0  0  0  0  0
    6.5586    6.9621    0.0000 C   0  0  0  0  0  0  0  0  0  0  0  0
    6.1074    4.4035    0.0000 C   0  0  0  0  0  0  0  0  0  0  0  0
    8.0358    6.7016    0.0000 C   0  0  0  0  0  0  0  0  0  0  0  0
    7.5846    4.1430    0.0000 C   0  0  0  0  0  0  0  0  0  0  0  0
    8.5488    5.2921    0.0000 C   0  0  0  0  0  0  0  0  0  0  0  0
    1.4160    4.8139    0.0000 C   0  0  0  0  0  0  0  0  0  0  0  0
    2.1660    3.5149    0.0000 C   0  0  0  0  0  0  0  0  0  0  0  0
   -0.0840    4.8139    0.0000 C   0  0  0  0  0  0  0  0  0  0  0  0
    1.4160    2.2158    0.0000 C   0  0  0  0  0  0  0  0  0  0  0  0
   -0.8340    3.5149    0.0000 C   0  0  0  0  0  0  0  0  0  0  0  0
   -0.0840    2.2158    0.0000 C   0  0  0  0  0  0  0  0  0  0  0  0
    3.6660    3.5149    0.0000 P   0  0  3  0  0  0  0  0  0  0  0  0
    5.1433    3.2544    0.0000 O   0  0  0  0  0  0  0  0  0  0  0  0
  1  8  1  0  0  0  0
  1 21  1  0  0  0  0
  2 21  2  0  0  0  0
  3  4  2  0  0  0  0
  3  5  1  0  0  0  0
  4  6  1  0  0  0  0
  5  7  2  0  0  0  0
  6  8  2  0  0  0  0
  7  8  1  0  0  0  0
  9 10  2  0  0  0  0
  9 11  1  0  0  0  0
 10 12  1  0  0  0  0
 11 13  2  0  0  0  0
 11 22  1  0  0  0  0
 12 14  2  0  0  0  0
 13 14  1  0  0  0  0
 15 17  2  0  0  0  0
 15 16  1  0  0  0  0
 16 18  2  0  0  0  0
 16 21  1  0  0  0  0
 17 19  1  0  0  0  0
 18 20  1  0  0  0  0
 19 20  2  0  0  0  0
 21 22  1  0  0  0  0
M  END
