321792
 OpenBabel03021519512D

 16 17  0  0  0  0  0  0  0  0999 V2000
    0.2745    3.6226    0.0000 C   0  0  0  0  0  0  0  0  0  0  0  0
    0.2745    1.0245    0.0000 Cl  0  0  0  0  0  0  0  0  0  0  0  0
    1.0245    4.9216    0.0000 C   0  0  0  0  0  0  0  0  0  0  0  0
    1.0245    2.3236    0.0000 C   0  0  0  0  0  0  0  0  0  0  0  0
    2.5245    2.3236    0.0000 C   0  0  0  0  0  0  0  0  0  0  0  0
    2.5245    4.9216    0.0000 C   0  0  0  0  0  0  0  0  0  0  0  0
    3.2745    3.6226    0.0000 C   0  0  0  0  0  0  0  0  0  0  0  0
    5.5245    4.9216    0.0000 C   0  0  0  0  0  0  0  0  0  0  0  0
    4.7745    6.2207    0.0000 O   0  0  0  0  0  0  0  0  0  0  0  0
    7.7745    6.2207    0.0000 C   0  0  0  0  0  0  0  0  0  0  0  0
    9.2663    6.3775    0.0000 S   0  0  0  0  0  0  0  0  0  0  0  0
    7.1644    7.5910    0.0000 N   0  0  0  0  0  0  0  0  0  0  0  0
    9.5782    7.8447    0.0000 C   0  0  0  0  0  0  0  0  0  0  0  0
    8.2791    8.5947    0.0000 C   0  0  0  0  0  0  0  0  0  0  0  0
    4.7745    3.6226    0.0000 N   0  0  0  0  0  0  0  0  0  0  0  0
    7.0245    4.9216    0.0000 N   0  0  0  0  0  0  0  0  0  0  0  0
  1  3  2  0  0  0  0
  1  4  1  0  0  0  0
  2  4  1  0  0  0  0
  3  6  1  0  0  0  0
  4  5  2  0  0  0  0
  5  7  1  0  0  0  0
  6  7  2  0  0  0  0
  7 15  1  0  0  0  0
  8  9  2  0  0  0  0
  8 15  1  0  0  0  0
  8 16  1  0  0  0  0
 10 12  2  0  0  0  0
 10 11  1  0  0  0  0
 10 16  1  0  0  0  0
 11 13  1  0  0  0  0
 12 14  1  0  0  0  0
 13 14  2  0  0  0  0
M  END
