98938
 OpenBabel03021519512D

 21 22  0  0  0  0  0  0  0  0999 V2000
   -6.8702    4.3995    0.0000 C   0  0  0  0  0  0  0  0  0  0  0  0
   -6.8702    5.8995    0.0000 C   0  0  0  0  0  0  0  0  0  0  0  0
   -8.1692    3.6495    0.0000 C   0  0  0  0  0  0  0  0  0  0  0  0
   -9.4683    4.3995    0.0000 C   0  0  0  0  0  0  0  0  0  0  0  0
   -8.1692    6.6495    0.0000 C   0  0  0  0  0  0  0  0  0  0  0  0
   -9.4683    5.8995    0.0000 C   0  0  0  0  0  0  0  0  0  0  0  0
   -0.3750   11.1495    0.0000 C   0  0  0  0  0  0  0  0  0  0  0  0
   -1.6741   10.3995    0.0000 C   0  0  0  0  0  0  0  0  0  0  0  0
   -0.3750   12.6495    0.0000 C   0  0  0  0  0  0  0  0  0  0  0  0
   -2.9731   11.1495    0.0000 C   0  0  0  0  0  0  0  0  0  0  0  0
   -1.6741   13.3995    0.0000 C   0  0  0  0  0  0  0  0  0  0  0  0
   -2.9731   12.6495    0.0000 C   0  0  0  0  0  0  0  0  0  0  0  0
   -4.2722   10.3995    0.0000 O   0  0  0  0  0  0  0  0  0  0  0  0
   -4.2722    8.8995    0.0000 C   0  0  0  0  0  0  0  0  0  0  0  0
   -1.6741    8.8995    0.0000 C   0  0  0  0  0  0  0  0  0  0  0  0
   -2.9731    8.1495    0.0000 C   0  0  0  0  0  0  0  0  0  0  0  0
   -2.9731    6.6495    0.0000 C   0  0  0  0  0  0  0  0  0  0  0  0
   -1.6741    5.8995    0.0000 O   0  0  0  0  0  0  0  0  0  0  0  0
   -4.2721    5.8995    0.0000 C   0  0  0  0  0  0  0  0  0  0  0  0
   -5.5712    6.6495    0.0000 C   0  0  0  0  0  0  0  0  0  0  0  0
   -8.1693    8.1495    0.0000 O   0  0  0  0  0  0  0  0  0  0  0  0
  1  3  2  0  0  0  0
  1  2  1  0  0  0  0
  2  5  2  0  0  0  0
  2 20  1  0  0  0  0
  3  4  1  0  0  0  0
  4  6  2  0  0  0  0
  5  6  1  0  0  0  0
  5 21  1  0  0  0  0
  7  9  2  0  0  0  0
  7  8  1  0  0  0  0
  8 10  2  0  0  0  0
  8 15  1  0  0  0  0
  9 11  1  0  0  0  0
 10 12  1  0  0  0  0
 10 13  1  0  0  0  0
 11 12  2  0  0  0  0
 13 14  1  0  0  0  0
 15 16  2  0  0  0  0
 16 17  1  0  0  0  0
 17 18  2  0  0  0  0
 17 19  1  0  0  0  0
 19 20  2  0  0  0  0
M  END
