80731
 OpenBabel03021519512D

 35 38  0  0  0  0  0  0  0  0999 V2000
    4.1716   -3.2745    0.0000 Cl  0  0  0  0  0  0  0  0  0  0  0  0
   -4.9216  -10.0245    0.0000 O   0  0  0  0  0  0  0  0  0  0  0  0
   -2.3235  -19.0245    0.0000 Cl  0  0  0  0  0  0  0  0  0  0  0  0
    0.2745  -16.0245    0.0000 C   0  0  0  0  0  0  0  0  0  0  0  0
   -1.0245  -16.7745    0.0000 C   0  0  0  0  0  0  0  0  0  0  0  0
    1.5736  -16.7745    0.0000 C   0  0  0  0  0  0  0  0  0  0  0  0
    1.5736  -18.2745    0.0000 C   0  0  0  0  0  0  0  0  0  0  0  0
   -1.0245  -18.2745    0.0000 C   0  0  0  0  0  0  0  0  0  0  0  0
    0.2745  -19.0245    0.0000 C   0  0  0  0  0  0  0  0  0  0  0  0
   -3.6226  -13.7745    0.0000 C   0  0  0  0  0  0  0  0  0  0  0  0
   -4.9216  -14.5245    0.0000 C   0  0  0  0  0  0  0  0  0  0  0  0
   -3.6226  -12.2745    0.0000 C   0  0  0  0  0  0  0  0  0  0  0  0
   -6.2207  -13.7745    0.0000 C   0  0  0  0  0  0  0  0  0  0  0  0
   -4.9216  -11.5245    0.0000 C   0  0  0  0  0  0  0  0  0  0  0  0
   -6.2207  -12.2745    0.0000 C   0  0  0  0  0  0  0  0  0  0  0  0
   -2.3235  -10.0245    0.0000 C   0  0  0  0  0  0  0  0  0  0  0  0
   -1.0245   -9.2745    0.0000 C   0  0  0  0  0  0  0  0  0  0  0  0
   -3.6226   -9.2745    0.0000 C   0  0  0  0  0  0  0  0  0  0  0  0
   -3.6226   -7.7745    0.0000 C   0  0  0  0  0  0  0  0  0  0  0  0
   -1.0245   -7.7745    0.0000 C   0  0  0  0  0  0  0  0  0  0  0  0
   -2.3236   -7.0245    0.0000 C   0  0  0  0  0  0  0  0  0  0  0  0
    2.8726   -7.0245    0.0000 C   0  0  0  0  0  0  0  0  0  0  0  0
    4.1716   -7.7745    0.0000 C   0  0  0  0  0  0  0  0  0  0  0  0
    2.8726   -5.5245    0.0000 C   0  0  0  0  0  0  0  0  0  0  0  0
    4.1716   -4.7745    0.0000 C   0  0  0  0  0  0  0  0  0  0  0  0
    5.4707   -7.0245    0.0000 C   0  0  0  0  0  0  0  0  0  0  0  0
    5.4707   -5.5245    0.0000 C   0  0  0  0  0  0  0  0  0  0  0  0
    1.5735   -4.7745    0.0000 N   0  0  0  0  0  0  0  0  0  0  0  0
    0.2745   -5.5245    0.0000 C   0  0  0  0  0  0  0  0  0  0  0  0
   -1.0245   -4.7745    0.0000 O   0  0  0  0  0  0  0  0  0  0  0  0
    0.2745   -7.0245    0.0000 N   0  0  0  0  0  0  0  0  0  0  0  0
   -4.9216  -16.0245    0.0000 N   0  0  0  0  0  0  0  0  0  0  0  0
   -3.6226  -16.7745    0.0000 C   0  0  0  0  0  0  0  0  0  0  0  0
   -3.6226  -18.2745    0.0000 O   0  0  0  0  0  0  0  0  0  0  0  0
   -2.3235  -16.0245    0.0000 N   0  0  0  0  0  0  0  0  0  0  0  0
  1 25  1  0  0  0  0
  2 14  1  0  0  0  0
  2 18  1  0  0  0  0
  3  8  1  0  0  0  0
  4  6  2  0  0  0  0
  4  5  1  0  0  0  0
  5  8  2  0  0  0  0
  5 35  1  0  0  0  0
  6  7  1  0  0  0  0
  7  9  2  0  0  0  0
  8  9  1  0  0  0  0
 10 12  2  0  0  0  0
 10 11  1  0  0  0  0
 11 13  2  0  0  0  0
 11 32  1  0  0  0  0
 12 14  1  0  0  0  0
 13 15  1  0  0  0  0
 14 15  2  0  0  0  0
 16 17  2  0  0  0  0
 16 18  1  0  0  0  0
 17 20  1  0  0  0  0
 18 19  2  0  0  0  0
 19 21  1  0  0  0  0
 20 21  2  0  0  0  0
 20 31  1  0  0  0  0
 22 23  2  0  0  0  0
 22 24  1  0  0  0  0
 23 26  1  0  0  0  0
 24 25  2  0  0  0  0
 24 28  1  0  0  0  0
 25 27  1  0  0  0  0
 26 27  2  0  0  0  0
 28 29  1  0  0  0  0
 29 30  2  0  0  0  0
 29 31  1  0  0  0  0
 32 33  1  0  0  0  0
 33 34  2  0  0  0  0
 33 35  1  0  0  0  0
M  END
