19136
 OpenBabel03021519512D

 19 21  0  0  0  0  0  0  0  0999 V2000
  -10.6751    2.5101    0.0000 C   0  0  0  0  0  0  0  0  0  0  0  0
  -10.6751    1.0101    0.0000 N   0  0  0  0  0  0  0  0  0  0  0  0
   -9.3761    0.2601    0.0000 C   0  0  0  0  0  0  0  0  0  0  0  0
   -8.0771    1.0101    0.0000 C   0  0  0  0  0  0  0  0  0  0  0  0
   -8.0771    2.5101    0.0000 C   0  0  0  0  0  0  0  0  0  0  0  0
   -9.3761    3.2601    0.0000 N   0  0  0  0  0  0  0  0  0  0  0  0
   -6.6505    0.5466    0.0000 C   0  0  0  0  0  0  0  0  0  0  0  0
   -5.7688    1.7601    0.0000 N   0  0  0  0  0  0  0  0  0  0  0  0
   -6.6505    2.9736    0.0000 N   0  0  0  0  0  0  0  0  0  0  0  0
   -8.0771   -1.9899    0.0000 C   0  0  0  0  0  0  0  0  0  0  0  0
   -6.7780   -1.2399    0.0000 C   0  0  0  0  0  0  0  0  0  0  0  0
   -9.3761   -1.2399    0.0000 N   0  0  0  0  0  0  0  0  0  0  0  0
   -5.4790   -1.9899    0.0000 C   0  0  0  0  0  0  0  0  0  0  0  0
   -5.4790   -3.4899    0.0000 C   0  0  0  0  0  0  0  0  0  0  0  0
   -4.1800   -4.2399    0.0000 C   0  0  0  0  0  0  0  0  0  0  0  0
   -2.8809   -3.4899    0.0000 C   0  0  0  0  0  0  0  0  0  0  0  0
   -2.8809   -1.9899    0.0000 C   0  0  0  0  0  0  0  0  0  0  0  0
   -4.1800   -1.2399    0.0000 C   0  0  0  0  0  0  0  0  0  0  0  0
  -11.9742    3.2601    0.0000 Cl  0  0  0  0  0  0  0  0  0  0  0  0
  1  2  2  0  0  0  0
  1  6  1  0  0  0  0
  1 19  1  0  0  0  0
  2  3  1  0  0  0  0
  3  4  2  0  0  0  0
  3 12  1  0  0  0  0
  4  5  1  0  0  0  0
  4  7  1  0  0  0  0
  5  6  2  0  0  0  0
  5  9  1  0  0  0  0
  7  8  2  0  0  0  0
  8  9  1  0  0  0  0
 10 11  1  0  0  0  0
 10 12  1  0  0  0  0
 11 13  1  0  0  0  0
 13 14  2  0  0  0  0
 13 18  1  0  0  0  0
 14 15  1  0  0  0  0
 15 16  2  0  0  0  0
 16 17  1  0  0  0  0
 17 18  2  0  0  0  0
M  END
