204232
 OpenBabel03021519512D

 30 32  0  0  0  0  0  0  0  0999 V2000
  -11.3163   -8.8995    0.0000 C   0  0  0  0  0  0  0  0  0  0  0  0
  -11.3163  -10.3995    0.0000 C   0  0  0  0  0  0  0  0  0  0  0  0
  -10.0173  -11.1495    0.0000 C   0  0  0  0  0  0  0  0  0  0  0  0
   -8.7183  -10.3995    0.0000 C   0  0  0  0  0  0  0  0  0  0  0  0
   -8.7183   -8.8995    0.0000 C   0  0  0  0  0  0  0  0  0  0  0  0
  -10.0173   -8.1495    0.0000 C   0  0  0  0  0  0  0  0  0  0  0  0
   -6.1202   -8.8995    0.0000 C   0  0  0  0  0  0  0  0  0  0  0  0
   -6.1202  -10.3995    0.0000 O   0  0  0  0  0  0  0  0  0  0  0  0
   -7.4192   -8.1495    0.0000 N   0  0  0  0  0  0  0  0  0  0  0  0
   -4.8211   -8.1495    0.0000 C   0  0  0  0  0  0  0  0  0  0  0  0
   -3.5221   -8.8995    0.0000 C   0  0  0  0  0  0  0  0  0  0  0  0
   -2.2231   -8.1495    0.0000 C   0  0  0  0  0  0  0  0  0  0  0  0
   -2.2231   -6.6495    0.0000 C   0  0  0  0  0  0  0  0  0  0  0  0
   -3.5221   -5.8995    0.0000 C   0  0  0  0  0  0  0  0  0  0  0  0
   -4.8211   -6.6495    0.0000 C   0  0  0  0  0  0  0  0  0  0  0  0
   -3.5221   -4.3995    0.0000 C   0  0  0  0  0  0  0  0  0  0  0  0
   -4.8212   -3.6495    0.0000 O   0  0  0  0  0  0  0  0  0  0  0  0
   -2.2231   -3.6495    0.0000 N   0  0  0  0  0  0  0  0  0  0  0  0
   -0.9240   -4.3995    0.0000 C   0  0  0  0  0  0  0  0  0  0  0  0
   -0.9240   -5.8995    0.0000 C   0  0  0  0  0  0  0  0  0  0  0  0
    0.3750   -6.6495    0.0000 C   0  0  0  0  0  0  0  0  0  0  0  0
    1.6740   -5.8995    0.0000 C   0  0  0  0  0  0  0  0  0  0  0  0
    1.6740   -4.3995    0.0000 C   0  0  0  0  0  0  0  0  0  0  0  0
    0.3750   -3.6495    0.0000 C   0  0  0  0  0  0  0  0  0  0  0  0
    0.3750   -8.1495    0.0000 N   0  3  0  0  0  0  0  0  0  0  0  0
   -0.9240   -8.8995    0.0000 O   0  5  0  0  0  0  0  0  0  0  0  0
    1.6740   -8.8995    0.0000 O   0  0  0  0  0  0  0  0  0  0  0  0
  -10.0173  -12.6495    0.0000 N   0  3  0  0  0  0  0  0  0  0  0  0
  -11.3163  -13.3995    0.0000 O   0  5  0  0  0  0  0  0  0  0  0  0
   -8.7183  -13.3995    0.0000 O   0  0  0  0  0  0  0  0  0  0  0  0
  1  2  2  0  0  0  0
  1  6  1  0  0  0  0
  2  3  1  0  0  0  0
  3  4  2  0  0  0  0
  3 28  1  0  0  0  0
  4  5  1  0  0  0  0
  5  6  2  0  0  0  0
  5  9  1  0  0  0  0
  7  8  2  0  0  0  0
  7  9  1  0  0  0  0
  7 10  1  0  0  0  0
 10 11  2  0  0  0  0
 10 15  1  0  0  0  0
 11 12  1  0  0  0  0
 12 13  2  0  0  0  0
 13 14  1  0  0  0  0
 14 15  2  0  0  0  0
 14 16  1  0  0  0  0
 16 17  2  0  0  0  0
 16 18  1  0  0  0  0
 18 19  1  0  0  0  0
 19 20  2  0  0  0  0
 19 24  1  0  0  0  0
 20 21  1  0  0  0  0
 21 22  2  0  0  0  0
 21 25  1  0  0  0  0
 22 23  1  0  0  0  0
 23 24  2  0  0  0  0
 25 26  1  0  0  0  0
 25 27  2  0  0  0  0
 28 29  1  0  0  0  0
 28 30  2  0  0  0  0
M  CHG  4  25   1  26  -1  28   1  29  -1
M  END
