134199
 OpenBabel03021519512D

 21 22  0  0  0  0  0  0  0  0999 V2000
   -2.8726   -1.0245    0.0000 H   0  0  0  0  0  0  0  0  0  0  0  0
   -1.5736   -0.2745    0.0000 N   0  0  0  0  0  0  0  0  0  0  0  0
   -0.2745   -2.5245    0.0000 O   0  0  0  0  0  0  0  0  0  0  0  0
    2.3236   -1.0245    0.0000 N   0  0  0  0  0  0  0  0  0  0  0  0
    2.3236   -2.5245    0.0000 N   0  0  0  0  0  0  0  0  0  0  0  0
   -0.2745   -1.0245    0.0000 C   0  0  0  0  0  0  0  0  0  0  0  0
    1.0245   -0.2745    0.0000 C   0  0  0  0  0  0  0  0  0  0  0  0
    1.0245    1.2255    0.0000 C   0  0  0  0  0  0  0  0  0  0  0  0
   -0.2745    1.9755    0.0000 C   0  0  0  0  0  0  0  0  0  0  0  0
   -1.5736    1.2255    0.0000 C   0  0  0  0  0  0  0  0  0  0  0  0
    4.9216   -2.5245    0.0000 C   0  0  0  0  0  0  0  0  0  0  0  0
    3.6226   -3.2745    0.0000 C   0  0  0  0  0  0  0  0  0  0  0  0
    6.2207   -3.2745    0.0000 C   0  0  0  0  0  0  0  0  0  0  0  0
    6.2207   -4.7745    0.0000 C   0  0  0  0  0  0  0  0  0  0  0  0
    3.6226   -4.7745    0.0000 C   0  0  0  0  0  0  0  0  0  0  0  0
    4.9216   -5.5245    0.0000 C   0  0  0  0  0  0  0  0  0  0  0  0
   -2.8726    1.9755    0.0000 O   0  0  0  0  0  0  0  0  0  0  0  0
    7.5197   -5.5245    0.0000 S   0  0  0  0  0  0  0  0  0  0  0  0
    6.7697   -6.8235    0.0000 O   0  0  0  0  0  0  0  0  0  0  0  0
    8.2697   -4.2255    0.0000 O   0  0  0  0  0  0  0  0  0  0  0  0
    8.8188   -6.2745    0.0000 N   0  0  0  0  0  0  0  0  0  0  0  0
  1  2  1  0  0  0  0
  2 10  1  0  0  0  0
  2  6  1  0  0  0  0
  3  6  2  0  0  0  0
  4  7  1  0  0  0  0
  4  5  2  0  0  0  0
  5 12  1  0  0  0  0
  6  7  1  0  0  0  0
  7  8  2  0  0  0  0
  8  9  1  0  0  0  0
  9 10  2  0  0  0  0
 10 17  1  0  0  0  0
 11 13  2  0  0  0  0
 11 12  1  0  0  0  0
 12 15  2  0  0  0  0
 13 14  1  0  0  0  0
 14 16  2  0  0  0  0
 14 18  1  0  0  0  0
 15 16  1  0  0  0  0
 18 19  2  0  0  0  0
 18 20  2  0  0  0  0
 18 21  1  0  0  0  0
M  END
