60785
 OpenBabel03021519512D

 28 33  0  0  1  0  0  0  0  0999 V2000
   -2.2835    5.9190    0.0000 C   0  0  0  0  0  0  0  0  0  0  0  0
   -2.2835    4.4190    0.0000 C   0  0  0  0  0  0  0  0  0  0  0  0
   -0.9845    6.6690    0.0000 C   0  0  0  0  0  0  0  0  0  0  0  0
   -0.9845    3.6690    0.0000 C   0  0  0  0  0  0  0  0  0  0  0  0
    0.3145    5.9190    0.0000 C   0  0  0  0  0  0  0  0  0  0  0  0
    0.3146    4.4190    0.0000 C   0  0  0  0  0  0  0  0  0  0  0  0
    1.7411    3.9554    0.0000 N   0  0  0  0  0  0  0  0  0  0  0  0
    2.2047    2.5289    0.0000 H   0  0  0  0  0  0  0  0  0  0  0  0
    1.7411    6.3825    0.0000 C   0  0  0  0  0  0  0  0  0  0  0  0
    2.6228    5.1690    0.0000 C   0  0  0  0  0  0  0  0  0  0  0  0
    2.3512    7.7528    0.0000 C   0  0  0  0  0  0  0  0  0  0  0  0
    4.1146    5.3258    0.0000 C   0  0  0  0  0  0  0  0  0  0  0  0
    3.8430    7.9096    0.0000 C   0  0  3  0  0  0  0  0  0  0  0  0
    4.7247    6.6961    0.0000 C   0  0  3  0  0  0  0  0  0  0  0  0
    4.4531    9.2799    0.0000 C   0  0  3  0  0  0  0  0  0  0  0  0
    3.5714   10.4935    0.0000 C   0  0  0  0  0  0  0  0  0  0  0  0
    6.2165    6.8529    0.0000 C   0  0  0  0  0  0  0  0  0  0  0  0
    6.8266    8.2232    0.0000 C   0  0  0  0  0  0  0  0  0  0  0  0
    5.9449    9.4367    0.0000 C   0  0  3  0  0  0  0  0  0  0  0  0
    4.1815   11.8638    0.0000 C   0  0  0  0  0  0  0  0  0  0  0  0
    5.6733   12.0206    0.0000 C   0  0  3  0  0  0  0  0  0  0  0  0
    6.5550   10.8071    0.0000 C   0  0  3  0  0  0  0  0  0  0  0  0
    6.5550   13.2341    0.0000 C   0  0  3  0  0  0  0  0  0  0  0  0
    7.9816   11.2706    0.0000 C   0  0  0  0  0  0  0  0  0  0  0  0
    7.9816   12.7706    0.0000 C   0  0  0  0  0  0  0  0  0  0  0  0
    2.9613    9.1231    0.0000 C   0  0  0  0  0  0  0  0  0  0  0  0
    4.9233   13.3196    0.0000 C   0  0  0  0  0  0  0  0  0  0  0  0
    6.0915   14.6607    0.0000 O   0  0  0  0  0  0  0  0  0  0  0  0
  1  3  2  0  0  0  0
  1  2  1  0  0  0  0
  2  4  2  0  0  0  0
  3  5  1  0  0  0  0
  4  6  1  0  0  0  0
  5  9  1  0  0  0  0
  5  6  2  0  0  0  0
  6  7  1  0  0  0  0
  7 10  1  0  0  0  0
  7  8  1  0  0  0  0
  9 11  1  0  0  0  0
  9 10  2  0  0  0  0
 10 12  1  0  0  0  0
 11 13  1  0  0  0  0
 12 14  1  0  0  0  0
 13 15  1  0  0  0  0
 13 14  1  0  0  0  0
 13 26  1  0  0  0  0
 14 17  1  0  0  0  0
 15 16  1  0  0  0  0
 15 19  1  0  0  0  0
 16 20  1  0  0  0  0
 17 18  1  0  0  0  0
 18 19  1  0  0  0  0
 19 22  1  0  0  0  0
 20 21  1  0  0  0  0
 21 23  1  0  0  0  0
 21 22  1  0  0  0  0
 21 27  1  0  0  0  0
 22 24  1  0  0  0  0
 23 25  1  0  0  0  0
 23 28  1  0  0  0  0
 24 25  1  0  0  0  0
M  END
