123458
 OpenBabel03021519512D

 16 18  0  0  0  0  0  0  0  0999 V2000
    5.2040    2.2124    0.0000 N   0  0  0  0  0  0  0  0  0  0  0  0
    5.5378    0.7500    0.0000 H   0  0  0  0  0  0  0  0  0  0  0  0
    5.2040    5.5829    0.0000 C   0  0  0  0  0  0  0  0  0  0  0  0
    6.3768    4.6476    0.0000 C   0  0  0  0  0  0  0  0  0  0  0  0
    3.7416    5.2491    0.0000 C   0  0  0  0  0  0  0  0  0  0  0  0
    3.0908    3.8976    0.0000 C   0  0  0  0  0  0  0  0  0  0  0  0
    7.6758    5.3976    0.0000 C   0  0  0  0  0  0  0  0  0  0  0  0
    8.9748    4.6476    0.0000 C   0  0  0  0  0  0  0  0  0  0  0  0
    1.5950    4.0097    0.0000 C   0  0  0  0  0  0  0  0  0  0  0  0
    0.7500    2.7704    0.0000 C   0  0  0  0  0  0  0  0  0  0  0  0
    8.9748    3.1476    0.0000 C   0  0  0  0  0  0  0  0  0  0  0  0
    6.3768    3.1476    0.0000 C   0  0  0  0  0  0  0  0  0  0  0  0
    3.7416    2.5462    0.0000 C   0  0  0  0  0  0  0  0  0  0  0  0
    1.4008    1.4189    0.0000 C   0  0  0  0  0  0  0  0  0  0  0  0
    7.6758    2.3976    0.0000 C   0  0  0  0  0  0  0  0  0  0  0  0
    2.8966    1.3068    0.0000 C   0  0  0  0  0  0  0  0  0  0  0  0
  1 12  1  0  0  0  0
  1 13  1  0  0  0  0
  1  2  1  0  0  0  0
  3  5  2  0  0  0  0
  3  4  1  0  0  0  0
  4 12  2  0  0  0  0
  4  7  1  0  0  0  0
  5  6  1  0  0  0  0
  6 13  2  0  0  0  0
  6  9  1  0  0  0  0
  7  8  2  0  0  0  0
  8 11  1  0  0  0  0
  9 10  2  0  0  0  0
 10 14  1  0  0  0  0
 11 15  2  0  0  0  0
 12 15  1  0  0  0  0
 13 16  1  0  0  0  0
 14 16  2  0  0  0  0
M  END
