366086
 OpenBabel03021519512D

 16 18  0  0  1  0  0  0  0  0999 V2000
   -2.8191    1.8746    0.0000 C   0  0  0  0  0  0  0  0  0  0  0  0
   -3.7534    0.7011    0.0000 N   0  0  0  0  0  0  0  0  0  0  0  0
   -1.4143    1.3487    0.0000 S   0  0  0  0  0  0  0  0  0  0  0  0
   -2.9260   -0.5501    0.0000 N   0  0  0  0  0  0  0  0  0  0  0  0
   -1.4804   -0.1498    0.0000 C   0  0  0  0  0  0  0  0  0  0  0  0
   -1.6241   -3.4100    0.0000 O   0  0  0  0  0  0  0  0  0  0  0  0
   -0.3068   -1.0841    0.0000 N   0  0  0  0  0  0  0  0  0  0  0  0
   -0.3729   -2.5826    0.0000 C   0  0  0  0  0  0  0  0  0  0  0  0
    1.1388   -0.6838    0.0000 C   0  0  3  0  0  0  0  0  0  0  0  0
    1.0319   -3.1085    0.0000 C   0  0  0  0  0  0  0  0  0  0  0  0
    0.8373    1.9721    0.0000 C   0  0  0  0  0  0  0  0  0  0  0  0
    1.9662   -1.9350    0.0000 S   0  0  0  0  0  0  0  0  0  0  0  0
    1.6647    0.7210    0.0000 C   0  0  0  0  0  0  0  0  0  0  0  0
    1.7715    3.1456    0.0000 C   0  0  0  0  0  0  0  0  0  0  0  0
    3.1103    1.1212    0.0000 S   0  0  0  0  0  0  0  0  0  0  0  0
    3.1763    2.6198    0.0000 C   0  0  0  0  0  0  0  0  0  0  0  0
  1  3  1  0  0  0  0
  1  2  2  0  0  0  0
  2  4  1  0  0  0  0
  3  5  1  0  0  0  0
  4  5  2  0  0  0  0
  5  7  1  0  0  0  0
  6  8  2  0  0  0  0
  7  9  1  0  0  0  0
  7  8  1  0  0  0  0
  8 10  1  0  0  0  0
  9 13  1  0  0  0  0
  9 12  1  0  0  0  0
 10 12  1  0  0  0  0
 11 14  1  0  0  0  0
 11 13  2  0  0  0  0
 13 15  1  0  0  0  0
 14 16  2  0  0  0  0
 15 16  1  0  0  0  0
M  END
