201634
 OpenBabel03021519512D

 19 20  0  0  0  0  0  0  0  0999 V2000
   -4.6471   10.5000    0.0000 C   0  0  0  0  0  0  0  0  0  0  0  0
   -4.6471   12.0000    0.0000 C   0  0  0  0  0  0  0  0  0  0  0  0
   -3.3481    9.7500    0.0000 C   0  0  0  0  0  0  0  0  0  0  0  0
   -3.3481   12.7500    0.0000 C   0  0  0  0  0  0  0  0  0  0  0  0
   -2.0490   10.5000    0.0000 C   0  0  0  0  0  0  0  0  0  0  0  0
   -2.0490   12.0000    0.0000 C   0  0  0  0  0  0  0  0  0  0  0  0
   -4.6471    6.0000    0.0000 C   0  0  0  0  0  0  0  0  0  0  0  0
   -3.3481    5.2500    0.0000 C   0  0  0  0  0  0  0  0  0  0  0  0
   -5.9461    5.2500    0.0000 C   0  0  0  0  0  0  0  0  0  0  0  0
   -3.3481    3.7500    0.0000 C   0  0  0  0  0  0  0  0  0  0  0  0
   -5.9461    3.7500    0.0000 C   0  0  0  0  0  0  0  0  0  0  0  0
   -4.6471    3.0000    0.0000 C   0  0  0  0  0  0  0  0  0  0  0  0
   -4.6471    1.5000    0.0000 O   0  0  0  0  0  0  0  0  0  0  0  0
   -5.9461    0.7500    0.0000 C   0  0  0  0  0  0  0  0  0  0  0  0
   -2.0490    6.0000    0.0000 N   0  0  0  0  0  0  0  0  0  0  0  0
   -2.0490    7.5000    0.0000 C   0  0  0  0  0  0  0  0  0  0  0  0
   -0.7500    8.2500    0.0000 S   0  0  0  0  0  0  0  0  0  0  0  0
   -3.3481    8.2500    0.0000 N   0  0  0  0  0  0  0  0  0  0  0  0
   -3.3481   14.2500    0.0000 O   0  0  0  0  0  0  0  0  0  0  0  0
  1  2  2  0  0  0  0
  1  3  1  0  0  0  0
  2  4  1  0  0  0  0
  3  5  2  0  0  0  0
  3 18  1  0  0  0  0
  4  6  2  0  0  0  0
  4 19  1  0  0  0  0
  5  6  1  0  0  0  0
  7  9  2  0  0  0  0
  7  8  1  0  0  0  0
  8 10  2  0  0  0  0
  8 15  1  0  0  0  0
  9 11  1  0  0  0  0
 10 12  1  0  0  0  0
 11 12  2  0  0  0  0
 12 13  1  0  0  0  0
 13 14  1  0  0  0  0
 15 16  1  0  0  0  0
 16 17  2  0  0  0  0
 16 18  1  0  0  0  0
M  END
