13653
 OpenBabel03021519512D

 16 18  0  0  0  0  0  0  0  0999 V2000
   -7.1443   -6.9729    0.0000 O   0  0  0  0  0  0  0  0  0  0  0  0
   -5.4621   -4.8955    0.0000 O   0  0  0  0  0  0  0  0  0  0  0  0
   -0.0234  -12.3316    0.0000 O   0  0  0  0  0  0  0  0  0  0  0  0
   -2.4371  -12.5853    0.0000 O   0  0  0  0  0  0  0  0  0  0  0  0
   -0.0234   -9.5909    0.0000 C   0  0  0  0  0  0  0  0  0  0  0  0
   -0.6335  -10.9613    0.0000 C   0  0  0  0  0  0  0  0  0  0  0  0
   -0.9051   -8.3774    0.0000 C   0  0  0  0  0  0  0  0  0  0  0  0
   -2.1253  -11.1180    0.0000 C   0  0  0  0  0  0  0  0  0  0  0  0
   -2.3969   -8.5342    0.0000 C   0  0  0  0  0  0  0  0  0  0  0  0
   -3.0070   -9.9045    0.0000 C   0  0  0  0  0  0  0  0  0  0  0  0
   -1.1381  -13.3353    0.0000 C   0  0  0  0  0  0  0  0  0  0  0  0
   -5.7740   -6.3628    0.0000 C   0  0  0  0  0  0  0  0  0  0  0  0
   -4.7703   -7.4775    0.0000 C   0  0  0  0  0  0  0  0  0  0  0  0
   -5.5203   -8.7765    0.0000 C   0  0  0  0  0  0  0  0  0  0  0  0
   -6.9875   -8.4646    0.0000 C   0  0  0  0  0  0  0  0  0  0  0  0
   -3.2785   -7.3207    0.0000 C   0  0  0  0  0  0  0  0  0  0  0  0
  1 12  1  0  0  0  0
  1 15  1  0  0  0  0
  2 12  2  0  0  0  0
  3  6  1  0  0  0  0
  3 11  1  0  0  0  0
  4  8  1  0  0  0  0
  4 11  1  0  0  0  0
  5  7  2  0  0  0  0
  5  6  1  0  0  0  0
  6  8  2  0  0  0  0
  7  9  1  0  0  0  0
  8 10  1  0  0  0  0
  9 10  2  0  0  0  0
  9 16  1  0  0  0  0
 12 13  1  0  0  0  0
 13 14  1  0  0  0  0
 13 16  2  0  0  0  0
 14 15  1  0  0  0  0
M  END
