70534
 OpenBabel03021519512D

 18 20  0  0  0  0  0  0  0  0999 V2000
    4.3022    5.8650    0.0000 O   0  5  0  0  0  0  0  0  0  0  0  0
    5.2374    4.6923    0.0000 N   0  3  0  0  0  0  0  0  0  0  0  0
    6.6998    5.0261    0.0000 N   0  0  0  0  0  0  0  0  0  0  0  0
    7.8726    4.0908    0.0000 C   0  0  0  0  0  0  0  0  0  0  0  0
    9.1716    4.8408    0.0000 C   0  0  0  0  0  0  0  0  0  0  0  0
   10.4706    4.0908    0.0000 C   0  0  0  0  0  0  0  0  0  0  0  0
   10.4706    2.5908    0.0000 C   0  0  0  0  0  0  0  0  0  0  0  0
    7.8726    2.5908    0.0000 C   0  0  0  0  0  0  0  0  0  0  0  0
    9.1716    1.8408    0.0000 C   0  0  0  0  0  0  0  0  0  0  0  0
    6.6998    1.6556    0.0000 C   0  0  0  0  0  0  0  0  0  0  0  0
    5.2374    1.9894    0.0000 C   0  0  0  0  0  0  0  0  0  0  0  0
    4.5866    3.3408    0.0000 C   0  0  0  0  0  0  0  0  0  0  0  0
    3.0908    3.4529    0.0000 C   0  0  0  0  0  0  0  0  0  0  0  0
    2.2458    2.2135    0.0000 C   0  0  0  0  0  0  0  0  0  0  0  0
    2.8966    0.8621    0.0000 C   0  0  0  0  0  0  0  0  0  0  0  0
    4.3924    0.7500    0.0000 C   0  0  0  0  0  0  0  0  0  0  0  0
    0.7500    2.3256    0.0000 N   0  0  0  0  0  0  0  0  0  0  0  0
   11.7697    4.8408    0.0000 N   0  0  0  0  0  0  0  0  0  0  0  0
  1  2  1  0  0  0  0
  2  3  2  0  0  0  0
  2 12  1  0  0  0  0
  3  4  1  0  0  0  0
  4  8  2  0  0  0  0
  4  5  1  0  0  0  0
  5  6  2  0  0  0  0
  6  7  1  0  0  0  0
  6 18  1  0  0  0  0
  7  9  2  0  0  0  0
  8  9  1  0  0  0  0
  8 10  1  0  0  0  0
 10 11  1  0  0  0  0
 11 12  2  0  0  0  0
 11 16  1  0  0  0  0
 12 13  1  0  0  0  0
 13 14  2  0  0  0  0
 14 15  1  0  0  0  0
 14 17  1  0  0  0  0
 15 16  2  0  0  0  0
M  CHG  2   1  -1   2   1
M  END
