305743
 OpenBabel03021519512D

 18 20  0  0  0  0  0  0  0  0999 V2000
   -8.6907    5.3872    0.0000 C   0  0  0  0  0  0  0  0  0  0  0  0
   -8.0806    4.0168    0.0000 C   0  0  0  0  0  0  0  0  0  0  0  0
   -8.9623    2.8033    0.0000 C   0  0  0  0  0  0  0  0  0  0  0  0
  -11.0642    4.3304    0.0000 C   0  0  0  0  0  0  0  0  0  0  0  0
   -8.3522    1.4330    0.0000 C   0  0  0  0  0  0  0  0  0  0  0  0
  -10.4541    2.9601    0.0000 C   0  0  0  0  0  0  0  0  0  0  0  0
   -4.1301   -0.3707    0.0000 C   0  0  0  0  0  0  0  0  0  0  0  0
   -6.7282   -0.3707    0.0000 C   0  0  0  0  0  0  0  0  0  0  0  0
   -2.8311   -1.1207    0.0000 C   0  0  0  0  0  0  0  0  0  0  0  0
   -5.4292   -1.1207    0.0000 C   0  0  0  0  0  0  0  0  0  0  0  0
   -2.8311   -2.6207    0.0000 C   0  0  0  0  0  0  0  0  0  0  0  0
   -5.4292   -2.6207    0.0000 C   0  0  0  0  0  0  0  0  0  0  0  0
   -4.1301   -3.3707    0.0000 C   0  0  0  0  0  0  0  0  0  0  0  0
  -10.1825    5.5439    0.0000 N   0  0  0  0  0  0  0  0  0  0  0  0
   -9.1022    0.1339    0.0000 N   0  0  0  0  0  0  0  0  0  0  0  0
   -8.0985   -0.9808    0.0000 O   0  0  0  0  0  0  0  0  0  0  0  0
   -6.8850    1.1211    0.0000 N   0  0  0  0  0  0  0  0  0  0  0  0
   -6.7282   -3.3707    0.0000 Cl  0  0  0  0  0  0  0  0  0  0  0  0
  1  2  2  0  0  0  0
  1 14  1  0  0  0  0
  2  3  1  0  0  0  0
  3  6  2  0  0  0  0
  3  5  1  0  0  0  0
  4 14  2  0  0  0  0
  4  6  1  0  0  0  0
  5 17  1  0  0  0  0
  5 15  2  0  0  0  0
  7 10  2  0  0  0  0
  7  9  1  0  0  0  0
  8 17  2  0  0  0  0
  8 10  1  0  0  0  0
  8 16  1  0  0  0  0
  9 11  2  0  0  0  0
 10 12  1  0  0  0  0
 11 13  1  0  0  0  0
 12 13  2  0  0  0  0
 12 18  1  0  0  0  0
 15 16  1  0  0  0  0
M  END
