62665
 OpenBabel03021519512D

 14 15  0  0  0  0  0  0  0  0999 V2000
    0.7500    1.8901    0.0000 Cl  0  0  0  0  0  0  0  0  0  0  0  0
    2.0490    4.1401    0.0000 N   0  0  0  0  0  0  0  0  0  0  0  0
    3.3481    1.8901    0.0000 N   0  0  0  0  0  0  0  0  0  0  0  0
    3.3481    6.3901    0.0000 Cl  0  0  0  0  0  0  0  0  0  0  0  0
    6.0737    4.6036    0.0000 N   0  0  0  0  0  0  0  0  0  0  0  0
    6.5372    6.0302    0.0000 H   0  0  0  0  0  0  0  0  0  0  0  0
    6.0737    2.1766    0.0000 N   0  0  0  0  0  0  0  0  0  0  0  0
    6.5372    0.7500    0.0000 H   0  0  0  0  0  0  0  0  0  0  0  0
    8.4554    3.3901    0.0000 O   0  0  0  0  0  0  0  0  0  0  0  0
    3.3481    4.8901    0.0000 C   0  0  0  0  0  0  0  0  0  0  0  0
    4.6471    4.1401    0.0000 C   0  0  0  0  0  0  0  0  0  0  0  0
    4.6471    2.6401    0.0000 C   0  0  0  0  0  0  0  0  0  0  0  0
    6.9554    3.3901    0.0000 C   0  0  0  0  0  0  0  0  0  0  0  0
    2.0490    2.6401    0.0000 C   0  0  0  0  0  0  0  0  0  0  0  0
  1 14  1  0  0  0  0
  2 10  2  0  0  0  0
  2 14  1  0  0  0  0
  3 14  2  0  0  0  0
  3 12  1  0  0  0  0
  4 10  1  0  0  0  0
  5 11  1  0  0  0  0
  5 13  1  0  0  0  0
  5  6  1  0  0  0  0
  7 12  1  0  0  0  0
  7 13  1  0  0  0  0
  7  8  1  0  0  0  0
  9 13  2  0  0  0  0
 10 11  1  0  0  0  0
 11 12  2  0  0  0  0
M  END
