87822
 OpenBabel03021519512D

 16 16  0  0  0  0  0  0  0  0999 V2000
   -8.5442   -2.5981    0.0000 N   0  0  0  0  0  0  0  0  0  0  0  0
   -4.6471   -3.3481    0.0000 P   0  0  0  0  0  0  0  0  0  0  0  0
   -5.3971   -4.6471    0.0000 O   0  0  0  0  0  0  0  0  0  0  0  0
   -7.2452   -3.3481    0.0000 C   0  0  0  0  0  0  0  0  0  0  0  0
   -7.2452   -4.8481    0.0000 C   0  0  0  0  0  0  0  0  0  0  0  0
   -8.5442   -5.5981    0.0000 C   0  0  0  0  0  0  0  0  0  0  0  0
   -9.8433   -4.8481    0.0000 C   0  0  0  0  0  0  0  0  0  0  0  0
   -9.8433   -3.3481    0.0000 C   0  0  0  0  0  0  0  0  0  0  0  0
  -11.1423   -5.5981    0.0000 C   0  0  0  0  0  0  0  0  0  0  0  0
   -5.9462   -2.5981    0.0000 N   0  0  0  0  0  0  0  0  0  0  0  0
   -3.8971   -2.0490    0.0000 O   0  0  0  0  0  0  0  0  0  0  0  0
   -4.6471   -0.7500    0.0000 C   0  0  0  0  0  0  0  0  0  0  0  0
   -6.1471   -0.7500    0.0000 C   0  0  0  0  0  0  0  0  0  0  0  0
   -3.3481   -4.0981    0.0000 O   0  0  0  0  0  0  0  0  0  0  0  0
   -2.0490   -3.3481    0.0000 C   0  0  0  0  0  0  0  0  0  0  0  0
   -0.7500   -4.0981    0.0000 C   0  0  0  0  0  0  0  0  0  0  0  0
  1  4  2  0  0  0  0
  1  8  1  0  0  0  0
  2  3  2  0  0  0  0
  2 10  1  0  0  0  0
  2 11  1  0  0  0  0
  2 14  1  0  0  0  0
  4  5  1  0  0  0  0
  4 10  1  0  0  0  0
  5  6  2  0  0  0  0
  6  7  1  0  0  0  0
  7  8  2  0  0  0  0
  7  9  1  0  0  0  0
 11 12  1  0  0  0  0
 12 13  1  0  0  0  0
 14 15  1  0  0  0  0
 15 16  1  0  0  0  0
M  END
