163144
 OpenBabel03021519512D

 17 18  0  0  0  0  0  0  0  0999 V2000
   -6.7472    3.0295    0.0000 H   0  0  0  0  0  0  0  0  0  0  0  0
   -7.2107    1.6029    0.0000 N   0  0  0  0  0  0  0  0  0  0  0  0
   -9.9364    1.8894    0.0000 C   0  0  0  0  0  0  0  0  0  0  0  0
  -11.2354    1.1394    0.0000 C   0  0  0  0  0  0  0  0  0  0  0  0
   -8.6373    1.1394    0.0000 C   0  0  0  0  0  0  0  0  0  0  0  0
   -8.6373   -0.3606    0.0000 C   0  0  0  0  0  0  0  0  0  0  0  0
  -11.2354   -0.3606    0.0000 C   0  0  0  0  0  0  0  0  0  0  0  0
   -9.9364   -1.1106    0.0000 C   0  0  0  0  0  0  0  0  0  0  0  0
   -7.2107   -0.8242    0.0000 C   0  0  0  0  0  0  0  0  0  0  0  0
   -6.3291    0.3894    0.0000 C   0  0  0  0  0  0  0  0  0  0  0  0
   -6.7472   -2.2508    0.0000 C   0  0  0  0  0  0  0  0  0  0  0  0
   -5.2800   -2.5626    0.0000 C   0  0  0  0  0  0  0  0  0  0  0  0
   -4.2763   -1.4479    0.0000 C   0  0  0  0  0  0  0  0  0  0  0  0
   -3.2726   -0.3332    0.0000 N   0  0  0  0  0  0  0  0  0  0  0  0
   -4.8165   -3.9892    0.0000 C   0  0  0  0  0  0  0  0  0  0  0  0
   -3.3492   -4.3011    0.0000 O   0  0  0  0  0  0  0  0  0  0  0  0
   -5.8201   -5.1039    0.0000 N   0  0  0  0  0  0  0  0  0  0  0  0
  1  2  1  0  0  0  0
  2  5  1  0  0  0  0
  2 10  1  0  0  0  0
  3  4  2  0  0  0  0
  3  5  1  0  0  0  0
  4  7  1  0  0  0  0
  5  6  2  0  0  0  0
  6  8  1  0  0  0  0
  6  9  1  0  0  0  0
  7  8  2  0  0  0  0
  9 10  2  0  0  0  0
  9 11  1  0  0  0  0
 11 12  2  0  0  0  0
 12 13  1  0  0  0  0
 12 15  1  0  0  0  0
 13 14  3  0  0  0  0
 15 16  2  0  0  0  0
 15 17  1  0  0  0  0
M  END
