197046
 OpenBabel03021519512D

 18 19  0  0  0  0  0  0  0  0999 V2000
   -4.1716    3.2745    0.0000 O   0  0  0  0  0  0  0  0  0  0  0  0
   -1.5736    3.2745    0.0000 N   0  0  0  0  0  0  0  0  0  0  0  0
   -1.5736    1.7745    0.0000 H   0  0  0  0  0  0  0  0  0  0  0  0
   -0.2745    5.5245    0.0000 N   0  0  0  0  0  0  0  0  0  0  0  0
    1.0245    3.2745    0.0000 O   0  0  0  0  0  0  0  0  0  0  0  0
    3.5371   10.9062    0.0000 N   0  0  0  0  0  0  0  0  0  0  0  0
    1.1100   10.9062    0.0000 S   0  0  0  0  0  0  0  0  0  0  0  0
   -1.5736    6.2745    0.0000 C   0  0  0  0  0  0  0  0  0  0  0  0
   -2.8726    5.5245    0.0000 C   0  0  0  0  0  0  0  0  0  0  0  0
   -2.8726    4.0245    0.0000 C   0  0  0  0  0  0  0  0  0  0  0  0
    1.5736   12.3328    0.0000 C   0  0  0  0  0  0  0  0  0  0  0  0
    3.0736   12.3328    0.0000 C   0  0  0  0  0  0  0  0  0  0  0  0
    2.3236   10.0245    0.0000 C   0  0  0  0  0  0  0  0  0  0  0  0
   -0.2745    4.0245    0.0000 C   0  0  0  0  0  0  0  0  0  0  0  0
    1.0245    6.2745    0.0000 C   0  0  0  0  0  0  0  0  0  0  0  0
    1.0245    7.7745    0.0000 C   0  0  0  0  0  0  0  0  0  0  0  0
   -0.2745    8.5245    0.0000 O   0  0  0  0  0  0  0  0  0  0  0  0
    2.3236    8.5245    0.0000 N   0  0  0  0  0  0  0  0  0  0  0  0
  1 10  2  0  0  0  0
  2 10  1  0  0  0  0
  2 14  1  0  0  0  0
  2  3  1  0  0  0  0
  4  8  1  0  0  0  0
  4 14  1  0  0  0  0
  4 15  1  0  0  0  0
  5 14  2  0  0  0  0
  6 13  2  0  0  0  0
  6 12  1  0  0  0  0
  7 11  1  0  0  0  0
  7 13  1  0  0  0  0
  8  9  2  0  0  0  0
  9 10  1  0  0  0  0
 11 12  2  0  0  0  0
 13 18  1  0  0  0  0
 15 16  1  0  0  0  0
 16 17  2  0  0  0  0
 16 18  1  0  0  0  0
M  END
