282137
 OpenBabel03021519512D

 24 25  0  0  0  0  0  0  0  0999 V2000
   -0.3212    5.0107    0.0000 C   0  0  0  0  0  0  0  0  0  0  0  0
    0.4288    3.7117    0.0000 C   0  0  0  0  0  0  0  0  0  0  0  0
    0.4288    6.3098    0.0000 C   0  0  0  0  0  0  0  0  0  0  0  0
   -0.3212    7.6088    0.0000 O   0  0  0  0  0  0  0  0  0  0  0  0
    1.9288    3.7117    0.0000 C   0  0  0  0  0  0  0  0  0  0  0  0
    1.9288    6.3098    0.0000 C   0  0  0  0  0  0  0  0  0  0  0  0
    2.6788    5.0107    0.0000 C   0  0  0  0  0  0  0  0  0  0  0  0
    0.4288    8.9078    0.0000 O   0  0  0  0  0  0  0  0  0  0  0  0
    1.9288    8.9078    0.0000 C   0  0  0  0  0  0  0  0  0  0  0  0
    6.4288    6.3098    0.0000 C   0  0  0  0  0  0  0  0  0  0  0  0
    7.1788    7.6088    0.0000 N   0  0  0  0  0  0  0  0  0  0  0  0
    8.6788    7.6088    0.0000 H   0  0  0  0  0  0  0  0  0  0  0  0
   -0.9807    3.1986    0.0000 C   0  0  0  0  0  0  0  0  0  0  0  0
    0.6893    2.2345    0.0000 C   0  0  0  0  0  0  0  0  0  0  0  0
    2.6788    7.6088    0.0000 C   0  0  0  0  0  0  0  0  0  0  0  0
    4.1788    5.0107    0.0000 N   0  0  0  0  0  0  0  0  0  0  0  0
    4.9288    6.3098    0.0000 N   0  0  0  0  0  0  0  0  0  0  0  0
    2.6788   10.2069    0.0000 C   0  0  0  0  0  0  0  0  0  0  0  0
    4.1788   10.2069    0.0000 C   0  0  0  0  0  0  0  0  0  0  0  0
    4.9288   11.5059    0.0000 C   0  0  0  0  0  0  0  0  0  0  0  0
    4.1788   12.8049    0.0000 C   0  0  0  0  0  0  0  0  0  0  0  0
    2.6788   12.8049    0.0000 C   0  0  0  0  0  0  0  0  0  0  0  0
    1.9288   11.5059    0.0000 C   0  0  0  0  0  0  0  0  0  0  0  0
    7.1788    5.0107    0.0000 N   0  0  0  0  0  0  0  0  0  0  0  0
  1  3  1  0  0  0  0
  1  2  1  0  0  0  0
  2  5  1  0  0  0  0
  2 13  1  0  0  0  0
  2 14  1  0  0  0  0
  3  4  2  0  0  0  0
  3  6  1  0  0  0  0
  5  7  1  0  0  0  0
  6  7  2  0  0  0  0
  6 15  1  0  0  0  0
  7 16  1  0  0  0  0
  8  9  2  0  0  0  0
  9 15  1  0  0  0  0
  9 18  1  0  0  0  0
 10 11  2  0  0  0  0
 10 17  1  0  0  0  0
 10 24  1  0  0  0  0
 11 12  1  0  0  0  0
 16 17  1  0  0  0  0
 18 19  2  0  0  0  0
 18 23  1  0  0  0  0
 19 20  1  0  0  0  0
 20 21  2  0  0  0  0
 21 22  1  0  0  0  0
 22 23  2  0  0  0  0
M  END
