89602
 OpenBabel03021519512D

 26 28  0  0  1  0  0  0  0  0999 V2000
    2.3236   -1.0245    0.0000 O   0  0  0  0  0  0  0  0  0  0  0  0
    4.9217   -5.5245    0.0000 N   0  0  0  0  0  0  0  0  0  0  0  0
    7.5197   -7.0245    0.0000 N   0  0  0  0  0  0  0  0  0  0  0  0
   12.7159  -10.0245    0.0000 Cl  0  0  0  0  0  0  0  0  0  0  0  0
   10.1178   -7.0245    0.0000 C   0  0  0  0  0  0  0  0  0  0  0  0
   11.4169   -7.7745    0.0000 C   0  0  0  0  0  0  0  0  0  0  0  0
    8.8188   -7.7745    0.0000 C   0  0  0  0  0  0  0  0  0  0  0  0
   11.4169   -9.2745    0.0000 C   0  0  0  0  0  0  0  0  0  0  0  0
    8.8188   -9.2745    0.0000 C   0  0  0  0  0  0  0  0  0  0  0  0
   10.1178  -10.0245    0.0000 C   0  0  0  0  0  0  0  0  0  0  0  0
    7.5197   -5.5245    0.0000 C   0  0  0  0  0  0  0  0  0  0  0  0
    6.2207   -4.7745    0.0000 C   0  0  0  0  0  0  0  0  0  0  0  0
    6.2207   -7.7745    0.0000 C   0  0  0  0  0  0  0  0  0  0  0  0
    4.9217   -7.0245    0.0000 C   0  0  0  0  0  0  0  0  0  0  0  0
    4.9216   -1.0245    0.0000 C   0  0  0  0  0  0  0  0  0  0  0  0
    6.2207   -0.2745    0.0000 C   0  0  0  0  0  0  0  0  0  0  0  0
    3.6226   -0.2745    0.0000 C   0  0  0  0  0  0  0  0  0  0  0  0
    3.6226    1.2255    0.0000 C   0  0  0  0  0  0  0  0  0  0  0  0
    6.2207    1.2255    0.0000 C   0  0  0  0  0  0  0  0  0  0  0  0
    4.9216    1.9755    0.0000 C   0  0  0  0  0  0  0  0  0  0  0  0
    7.5197    1.9755    0.0000 O   0  0  0  0  0  0  0  0  0  0  0  0
    8.8187    1.2255    0.0000 C   0  0  0  0  0  0  0  0  0  0  0  0
    2.3236   -2.5245    0.0000 C   0  0  0  0  0  0  0  0  0  0  0  0
    3.6226   -3.2745    0.0000 C   0  0  3  0  0  0  0  0  0  0  0  0
    4.9216   -2.5245    0.0000 O   0  0  0  0  0  0  0  0  0  0  0  0
    3.6226   -4.7745    0.0000 C   0  0  0  0  0  0  0  0  0  0  0  0
  1 17  1  0  0  0  0
  1 23  1  0  0  0  0
  2 12  1  0  0  0  0
  2 14  1  0  0  0  0
  2 26  1  0  0  0  0
  3  7  1  0  0  0  0
  3 11  1  0  0  0  0
  3 13  1  0  0  0  0
  4  8  1  0  0  0  0
  5  6  2  0  0  0  0
  5  7  1  0  0  0  0
  6  8  1  0  0  0  0
  7  9  2  0  0  0  0
  8 10  2  0  0  0  0
  9 10  1  0  0  0  0
 11 12  1  0  0  0  0
 13 14  1  0  0  0  0
 15 16  2  0  0  0  0
 15 17  1  0  0  0  0
 16 19  1  0  0  0  0
 17 18  2  0  0  0  0
 18 20  1  0  0  0  0
 19 20  2  0  0  0  0
 19 21  1  0  0  0  0
 21 22  1  0  0  0  0
 23 24  1  0  0  0  0
 24 25  1  0  0  0  0
 24 26  1  0  0  0  0
M  END
