250429
 OpenBabel03021519512D

 26 30  0  0  1  0  0  0  0  0999 V2000
   -1.9580   -0.3133    0.0000 C   0  0  0  0  0  0  0  0  0  0  0  0
   -1.9580   -1.2533    0.0000 C   0  0  0  0  0  0  0  0  0  0  0  0
   -1.1439   -1.7233    0.0000 C   0  0  3  0  0  0  0  0  0  0  0  0
   -0.3279   -1.2533    0.0000 C   0  0  3  0  0  0  0  0  0  0  0  0
   -0.3279   -0.3133    0.0000 C   0  0  3  0  0  0  0  0  0  0  0  0
   -1.1439    0.1566    0.0000 C   0  0  0  0  0  0  0  0  0  0  0  0
    0.4861   -1.7233    0.0000 C   0  0  3  0  0  0  0  0  0  0  0  0
    1.3000   -1.2533    0.0000 C   0  0  0  0  0  0  0  0  0  0  0  0
    1.3000   -0.3133    0.0000 C   0  0  3  0  0  0  0  0  0  0  0  0
    0.4861    0.1566    0.0000 C   0  0  3  0  0  0  0  0  0  0  0  0
    1.2461    0.7096    0.0000 O   0  0  0  0  0  0  0  0  0  0  0  0
    0.0161    1.6035    0.0000 C   0  0  0  0  0  0  0  0  0  0  0  0
   -0.2739    0.7096    0.0000 C   0  0  0  0  0  0  0  0  0  0  0  0
    0.9561    1.6035    0.0000 C   0  0  3  0  0  0  0  0  0  0  0  0
    1.8961    1.6035    0.0000 C   0  0  0  0  0  0  0  0  0  0  0  0
    2.1870    2.4976    0.0000 C   0  0  0  0  0  0  0  0  0  0  0  0
    1.4261    3.0495    0.0000 O   0  0  0  0  0  0  0  0  0  0  0  0
    0.6661    2.4976    0.0000 C   0  0  0  0  0  0  0  0  0  0  0  0
   -0.5500    0.5596    0.0000 C   0  0  0  0  0  0  0  0  0  0  0  0
   -1.1109   -0.8324    0.0000 O   0  0  0  0  0  0  0  0  0  0  0  0
   -2.0908   -2.1194    0.0000 C   0  0  0  0  0  0  0  0  0  0  0  0
   -2.6958   -2.4683    0.0000 O   0  0  0  0  0  0  0  0  0  0  0  0
   -0.9569   -2.2363    0.0000 C   0  0  0  0  0  0  0  0  0  0  0  0
    0.4861   -2.2644    0.0000 O   0  0  0  0  0  0  0  0  0  0  0  0
    1.9961   -0.0604    0.0000 C   0  0  0  0  0  0  0  0  0  0  0  0
    0.0891    2.9805    0.0000 O   0  0  0  0  0  0  0  0  0  0  0  0
  1  2  1  0  0  0  0
  1  6  1  0  0  0  0
  2  3  1  0  0  0  0
  3  4  1  0  0  0  0
  3 21  1  0  0  0  0
  3 23  1  0  0  0  0
  4  5  1  0  0  0  0
  4  7  1  0  0  0  0
  5  6  1  0  0  0  0
  5 10  1  0  0  0  0
  5 19  1  0  0  0  0
  7  8  1  0  0  0  0
  7 24  1  0  0  0  0
  8  9  1  0  0  0  0
  9 10  1  0  0  0  0
  9 25  1  0  0  0  0
 10 11  1  0  0  0  0
 10 13  1  0  0  0  0
 11 14  1  0  0  0  0
 12 13  1  0  0  0  0
 12 14  1  0  0  0  0
 14 15  1  0  0  0  0
 14 18  1  0  0  0  0
 15 16  1  0  0  0  0
 16 17  1  0  0  0  0
 17 18  1  0  0  0  0
 18 26  2  0  0  0  0
 19 20  1  0  0  0  0
 20 21  1  0  0  0  0
 21 22  2  0  0  0  0
M  END
