45117
 OpenBabel03021519512D

 13 15  0  0  1  0  0  0  0  0999 V2000
   -6.5019   -2.2006    0.0000 O   0  0  0  0  0  0  0  0  0  0  0  0
   -3.7606   -2.2006    0.0000 N   0  0  0  0  0  0  0  0  0  0  0  0
   -7.3679   -0.7007    0.0000 C   0  0  3  0  0  0  0  0  0  0  0  0
   -6.0689   -1.4507    0.0000 C   0  0  3  0  0  0  0  0  0  0  0  0
   -4.6423   -0.9871    0.0000 C   0  0  0  0  0  0  0  0  0  0  0  0
   -8.6670   -1.4507    0.0000 C   0  0  0  0  0  0  0  0  0  0  0  0
   -6.0689   -2.9507    0.0000 C   0  0  3  0  0  0  0  0  0  0  0  0
   -8.6670   -2.9507    0.0000 C   0  0  0  0  0  0  0  0  0  0  0  0
   -7.3679   -3.7007    0.0000 C   0  0  3  0  0  0  0  0  0  0  0  0
   -4.6423   -3.4142    0.0000 C   0  0  0  0  0  0  0  0  0  0  0  0
   -7.3679    0.7993    0.0000 C   0  0  0  0  0  0  0  0  0  0  0  0
   -2.2606   -2.2006    0.0000 C   0  0  0  0  0  0  0  0  0  0  0  0
   -1.5106   -3.4997    0.0000 C   0  0  0  0  0  0  0  0  0  0  0  0
  1  3  1  0  0  0  0
  1  9  1  0  0  0  0
  2  5  1  0  0  0  0
  2 10  1  0  0  0  0
  2 12  1  0  0  0  0
  3  4  1  0  0  0  0
  3  6  1  0  0  0  0
  3 11  1  0  0  0  0
  4  5  1  0  0  0  0
  4  7  1  0  0  0  0
  6  8  1  0  0  0  0
  7  9  1  0  0  0  0
  7 10  1  0  0  0  0
  8  9  1  0  0  0  0
 12 13  1  0  0  0  0
M  END
