159566
 OpenBabel03021519512D

 21 22  0  0  0  0  0  0  0  0999 V2000
   -8.8188    4.2255    0.0000 O   0  0  0  0  0  0  0  0  0  0  0  0
   -8.8188   -1.7745    0.0000 O   0  0  0  0  0  0  0  0  0  0  0  0
   -4.9216   -4.0245    0.0000 Br  0  0  0  0  0  0  0  0  0  0  0  0
   -4.9216    0.4755    0.0000 C   0  0  0  0  0  0  0  0  0  0  0  0
   -3.6226   -0.2745    0.0000 C   0  0  0  0  0  0  0  0  0  0  0  0
   -6.2207   -0.2745    0.0000 C   0  0  0  0  0  0  0  0  0  0  0  0
   -3.6226   -1.7745    0.0000 C   0  0  0  0  0  0  0  0  0  0  0  0
   -6.2207   -1.7745    0.0000 C   0  0  0  0  0  0  0  0  0  0  0  0
   -7.5197    0.4755    0.0000 C   0  0  0  0  0  0  0  0  0  0  0  0
   -7.5197    1.9755    0.0000 C   0  0  0  0  0  0  0  0  0  0  0  0
   -8.8188    2.7255    0.0000 C   0  0  0  0  0  0  0  0  0  0  0  0
   -8.8188   -0.2745    0.0000 C   0  0  0  0  0  0  0  0  0  0  0  0
  -10.1178    1.9755    0.0000 C   0  0  0  0  0  0  0  0  0  0  0  0
   -4.9216   -2.5245    0.0000 C   0  0  0  0  0  0  0  0  0  0  0  0
  -10.1178    0.4755    0.0000 C   0  0  0  0  0  0  0  0  0  0  0  0
  -11.4168    2.7255    0.0000 C   0  0  0  0  0  0  0  0  0  0  0  0
   -6.2207    2.7255    0.0000 O   0  0  0  0  0  0  0  0  0  0  0  0
  -11.4168   -0.2745    0.0000 O   0  0  0  0  0  0  0  0  0  0  0  0
   -7.5197   -2.5245    0.0000 C   0  0  0  0  0  0  0  0  0  0  0  0
   -4.9216    1.9755    0.0000 C   0  0  0  0  0  0  0  0  0  0  0  0
   -2.3236   -2.5245    0.0000 C   0  0  0  0  0  0  0  0  0  0  0  0
  1 11  2  0  0  0  0
  2 12  2  0  0  0  0
  3 14  1  0  0  0  0
  4  6  2  0  0  0  0
  4  5  1  0  0  0  0
  4 20  1  0  0  0  0
  5  7  2  0  0  0  0
  6  8  1  0  0  0  0
  6  9  1  0  0  0  0
  7 14  1  0  0  0  0
  7 21  1  0  0  0  0
  8 14  2  0  0  0  0
  8 19  1  0  0  0  0
  9 10  2  0  0  0  0
  9 12  1  0  0  0  0
 10 11  1  0  0  0  0
 10 17  1  0  0  0  0
 11 13  1  0  0  0  0
 12 15  1  0  0  0  0
 13 15  2  0  0  0  0
 13 16  1  0  0  0  0
 15 18  1  0  0  0  0
M  END
