116644
 OpenBabel03021519512D

 22 25  0  0  0  0  0  0  0  0999 V2000
    3.2626   -6.1317    0.0000 N   0  0  0  0  0  0  0  0  0  0  0  0
    4.6891   -5.6682    0.0000 H   0  0  0  0  0  0  0  0  0  0  0  0
    0.7500   -3.0000    0.0000 N   0  0  0  0  0  0  0  0  0  0  0  0
    4.6471   -0.7500    0.0000 C   0  0  0  0  0  0  0  0  0  0  0  0
    5.9462   -1.5000    0.0000 C   0  0  0  0  0  0  0  0  0  0  0  0
    3.3481   -1.5000    0.0000 C   0  0  0  0  0  0  0  0  0  0  0  0
    2.0490   -0.7500    0.0000 C   0  0  0  0  0  0  0  0  0  0  0  0
    0.7500   -1.5000    0.0000 C   0  0  0  0  0  0  0  0  0  0  0  0
    5.9462   -3.0000    0.0000 C   0  0  0  0  0  0  0  0  0  0  0  0
    3.3481   -3.0000    0.0000 C   0  0  0  0  0  0  0  0  0  0  0  0
    4.6471   -3.7500    0.0000 C   0  0  0  0  0  0  0  0  0  0  0  0
    2.0490   -3.7500    0.0000 C   0  0  0  0  0  0  0  0  0  0  0  0
    2.0490   -5.2500    0.0000 C   0  0  0  0  0  0  0  0  0  0  0  0
    0.8355   -6.1317    0.0000 C   0  0  0  0  0  0  0  0  0  0  0  0
    1.2990   -7.5583    0.0000 C   0  0  0  0  0  0  0  0  0  0  0  0
    2.7990   -7.5583    0.0000 C   0  0  0  0  0  0  0  0  0  0  0  0
    3.6807   -8.7718    0.0000 C   0  0  0  0  0  0  0  0  0  0  0  0
    3.0706  -10.1421    0.0000 C   0  0  0  0  0  0  0  0  0  0  0  0
    5.1725   -8.6150    0.0000 C   0  0  0  0  0  0  0  0  0  0  0  0
    6.0542   -9.8285    0.0000 C   0  0  0  0  0  0  0  0  0  0  0  0
    3.9523  -11.3556    0.0000 C   0  0  0  0  0  0  0  0  0  0  0  0
    5.4441  -11.1989    0.0000 C   0  0  0  0  0  0  0  0  0  0  0  0
  1 13  1  0  0  0  0
  1 16  1  0  0  0  0
  1  2  1  0  0  0  0
  3 12  2  0  0  0  0
  3  8  1  0  0  0  0
  4  5  2  0  0  0  0
  4  6  1  0  0  0  0
  5  9  1  0  0  0  0
  6 10  2  0  0  0  0
  6  7  1  0  0  0  0
  7  8  2  0  0  0  0
  9 11  2  0  0  0  0
 10 11  1  0  0  0  0
 10 12  1  0  0  0  0
 12 13  1  0  0  0  0
 13 14  2  0  0  0  0
 14 15  1  0  0  0  0
 15 16  2  0  0  0  0
 16 17  1  0  0  0  0
 17 19  2  0  0  0  0
 17 18  1  0  0  0  0
 18 21  2  0  0  0  0
 19 20  1  0  0  0  0
 20 22  2  0  0  0  0
 21 22  1  0  0  0  0
M  END
