341196
 OpenBabel03021519512D

 30 33  0  0  0  0  0  0  0  0999 V2000
    0.9509    9.2942    0.0000 C   0  0  0  0  0  0  0  0  0  0  0  0
    2.2500   10.0442    0.0000 C   0  0  0  0  0  0  0  0  0  0  0  0
    2.2500    8.5442    0.0000 C   0  0  0  0  0  0  0  0  0  0  0  0
    2.2500    5.9462    0.0000 C   0  0  0  0  0  0  0  0  0  0  0  0
    0.7500    5.9461    0.0000 O   0  0  0  0  0  0  0  0  0  0  0  0
    4.5000    4.6471    0.0000 C   0  0  0  0  0  0  0  0  0  0  0  0
    4.5000    2.0490    0.0000 O   0  0  0  0  0  0  0  0  0  0  0  0
    5.2500    5.9462    0.0000 C   0  0  0  0  0  0  0  0  0  0  0  0
    5.2500    3.3481    0.0000 C   0  0  0  0  0  0  0  0  0  0  0  0
    6.7500    5.9462    0.0000 C   0  0  0  0  0  0  0  0  0  0  0  0
    6.7500    3.3481    0.0000 C   0  0  0  0  0  0  0  0  0  0  0  0
    7.5000    4.6471    0.0000 C   0  0  0  0  0  0  0  0  0  0  0  0
    9.0000    4.6471    0.0000 C   0  0  0  0  0  0  0  0  0  0  0  0
    9.7500    5.9462    0.0000 C   0  0  0  0  0  0  0  0  0  0  0  0
    9.7500    3.3481    0.0000 C   0  0  0  0  0  0  0  0  0  0  0  0
   11.2500    3.3481    0.0000 C   0  0  0  0  0  0  0  0  0  0  0  0
   11.2500    5.9462    0.0000 C   0  0  0  0  0  0  0  0  0  0  0  0
   12.0000    4.6471    0.0000 C   0  0  0  0  0  0  0  0  0  0  0  0
   12.0000    2.0490    0.0000 O   0  0  0  0  0  0  0  0  0  0  0  0
   13.5000    7.2452    0.0000 O   0  0  0  0  0  0  0  0  0  0  0  0
   14.2500    5.9462    0.0000 C   0  0  0  0  0  0  0  0  0  0  0  0
   16.5000    7.2452    0.0000 C   0  0  0  0  0  0  0  0  0  0  0  0
   17.7990    7.9952    0.0000 C   0  0  0  0  0  0  0  0  0  0  0  0
   16.5000    8.7452    0.0000 C   0  0  0  0  0  0  0  0  0  0  0  0
    3.0000    7.2452    0.0000 N   0  0  0  0  0  0  0  0  0  0  0  0
    3.0000    4.6471    0.0000 N   0  0  0  0  0  0  0  0  0  0  0  0
    5.2500    0.7500    0.0000 C   0  0  0  0  0  0  0  0  0  0  0  0
   13.5000    2.0490    0.0000 C   0  0  0  0  0  0  0  0  0  0  0  0
   13.5000    4.6471    0.0000 N   0  0  0  0  0  0  0  0  0  0  0  0
   15.7500    5.9462    0.0000 N   0  0  0  0  0  0  0  0  0  0  0  0
  1  3  1  0  0  0  0
  1  2  1  0  0  0  0
  2  3  1  0  0  0  0
  3 25  1  0  0  0  0
  4  5  2  0  0  0  0
  4 25  1  0  0  0  0
  4 26  1  0  0  0  0
  6  8  1  0  0  0  0
  6  9  2  0  0  0  0
  6 26  1  0  0  0  0
  7  9  1  0  0  0  0
  7 27  1  0  0  0  0
  8 10  2  0  0  0  0
  9 11  1  0  0  0  0
 10 12  1  0  0  0  0
 11 12  2  0  0  0  0
 12 13  1  0  0  0  0
 13 14  1  0  0  0  0
 13 15  2  0  0  0  0
 14 17  2  0  0  0  0
 15 16  1  0  0  0  0
 16 18  2  0  0  0  0
 16 19  1  0  0  0  0
 17 18  1  0  0  0  0
 18 29  1  0  0  0  0
 19 28  1  0  0  0  0
 20 21  2  0  0  0  0
 21 29  1  0  0  0  0
 21 30  1  0  0  0  0
 22 24  1  0  0  0  0
 22 23  1  0  0  0  0
 22 30  1  0  0  0  0
 23 24  1  0  0  0  0
M  END
