347463
 OpenBabel03021519512D

 25 27  0  0  0  0  0  0  0  0999 V2000
   -5.3303    3.8049    0.0000 O   0  0  0  0  0  0  0  0  0  0  0  0
   -4.0654    4.6112    0.0000 C   0  0  0  0  0  0  0  0  0  0  0  0
   -4.1312    6.1097    0.0000 O   0  0  0  0  0  0  0  0  0  0  0  0
   -2.7347    3.9189    0.0000 C   0  0  0  0  0  0  0  0  0  0  0  0
   -2.5126    2.4354    0.0000 N   0  0  0  0  0  0  0  0  0  0  0  0
   -1.0558   -0.4847    0.0000 O   0  0  0  0  0  0  0  0  0  0  0  0
   -0.0042   -1.5543    0.0000 C   0  0  0  0  0  0  0  0  0  0  0  0
   -0.3635    0.8460    0.0000 C   0  0  0  0  0  0  0  0  0  0  0  0
   -1.0332    2.1882    0.0000 C   0  0  0  0  0  0  0  0  0  0  0  0
    1.1160    0.5987    0.0000 C   0  0  0  0  0  0  0  0  0  0  0  0
    0.9063   -3.9877    0.0000 O   0  0  0  0  0  0  0  0  0  0  0  0
   -0.3409    3.5189    0.0000 S   0  0  0  0  0  0  0  0  0  0  0  0
    1.3380   -0.8847    0.0000 C   0  0  0  0  0  0  0  0  0  0  0  0
   -1.3925    4.5885    0.0000 C   0  0  0  0  0  0  0  0  0  0  0  0
    2.1985   -3.2260    0.0000 C   0  0  0  0  0  0  0  0  0  0  0  0
    2.1851   -1.7261    0.0000 O   0  0  0  0  0  0  0  0  0  0  0  0
   -6.6610    4.4972    0.0000 C   0  0  0  0  0  0  0  0  0  0  0  0
   -6.7268    5.9958    0.0000 C   0  0  0  0  0  0  0  0  0  0  0  0
   -0.2514   -3.0338    0.0000 C   0  0  0  0  0  0  0  0  0  0  0  0
    3.5042   -3.9644    0.0000 C   0  0  0  0  0  0  0  0  0  0  0  0
    3.5177   -5.4643    0.0000 C   0  0  0  0  0  0  0  0  0  0  0  0
    4.8234   -6.2026    0.0000 C   0  0  0  0  0  0  0  0  0  0  0  0
    6.1157   -5.4410    0.0000 C   0  0  0  0  0  0  0  0  0  0  0  0
    6.1022   -3.9410    0.0000 C   0  0  0  0  0  0  0  0  0  0  0  0
    4.7965   -3.2027    0.0000 C   0  0  0  0  0  0  0  0  0  0  0  0
  1  2  1  0  0  0  0
  1 17  1  0  0  0  0
  2  3  2  0  0  0  0
  2  4  1  0  0  0  0
  4 14  2  0  0  0  0
  4  5  1  0  0  0  0
  5  9  2  0  0  0  0
  6  8  1  0  0  0  0
  6  7  1  0  0  0  0
  7 13  2  0  0  0  0
  7 19  1  0  0  0  0
  8  9  1  0  0  0  0
  8 10  2  0  0  0  0
  9 12  1  0  0  0  0
 10 13  1  0  0  0  0
 11 15  1  0  0  0  0
 11 19  1  0  0  0  0
 12 14  1  0  0  0  0
 15 16  2  0  0  0  0
 15 20  1  0  0  0  0
 17 18  1  0  0  0  0
 20 21  2  0  0  0  0
 20 25  1  0  0  0  0
 21 22  1  0  0  0  0
 22 23  2  0  0  0  0
 23 24  1  0  0  0  0
 24 25  2  0  0  0  0
M  END
