109176
 OpenBabel03021519512D

 12 12  0  0  0  0  0  0  0  0999 V2000
    0.5881    4.5442    0.0000 N   0  0  0  0  0  0  0  0  0  0  0  0
    1.0516    3.1177    0.0000 N   0  0  0  0  0  0  0  0  0  0  0  0
    3.4333    1.9041    0.0000 O   0  0  0  0  0  0  0  0  0  0  0  0
    1.8016    5.4259    0.0000 C   0  0  0  0  0  0  0  0  0  0  0  0
    3.0151    4.5442    0.0000 C   0  0  0  0  0  0  0  0  0  0  0  0
    2.5516    3.1177    0.0000 C   0  0  0  0  0  0  0  0  0  0  0  0
    0.1699    1.9041    0.0000 C   0  0  0  0  0  0  0  0  0  0  0  0
    4.4417    5.0078    0.0000 C   0  0  0  0  0  0  0  0  0  0  0  0
    5.5564    4.0041    0.0000 N   0  0  0  0  0  0  0  0  0  0  0  0
    6.9830    4.4676    0.0000 C   0  0  0  0  0  0  0  0  0  0  0  0
    8.0977    3.4639    0.0000 O   0  0  0  0  0  0  0  0  0  0  0  0
    7.2949    5.9348    0.0000 N   0  0  0  0  0  0  0  0  0  0  0  0
  1  4  2  0  0  0  0
  1  2  1  0  0  0  0
  2  6  1  0  0  0  0
  2  7  1  0  0  0  0
  3  6  2  0  0  0  0
  4  5  1  0  0  0  0
  5  6  1  0  0  0  0
  5  8  2  0  0  0  0
  8  9  1  0  0  0  0
  9 10  1  0  0  0  0
 10 11  2  0  0  0  0
 10 12  1  0  0  0  0
M  END
