12488
 OpenBabel03021519512D

 19 21  0  0  0  0  0  0  0  0999 V2000
   -3.4811    5.2265    0.0000 Cl  0  0  0  0  0  0  0  0  0  0  0  0
    1.2486    3.0748    0.0000 N   0  0  0  0  0  0  0  0  0  0  0  0
   -1.1162    4.1506    0.0000 C   0  0  0  0  0  0  0  0  0  0  0  0
   -2.6092    4.0059    0.0000 C   0  0  0  0  0  0  0  0  0  0  0  0
   -0.2444    2.9300    0.0000 C   0  0  0  0  0  0  0  0  0  0  0  0
   -0.8655    1.5647    0.0000 C   0  0  0  0  0  0  0  0  0  0  0  0
   -3.2304    2.6406    0.0000 C   0  0  0  0  0  0  0  0  0  0  0  0
    0.0063    0.3441    0.0000 C   0  0  0  0  0  0  0  0  0  0  0  0
    2.1205    1.8541    0.0000 C   0  0  0  0  0  0  0  0  0  0  0  0
    1.4993    0.4888    0.0000 C   0  0  0  0  0  0  0  0  0  0  0  0
   -2.3585    1.4200    0.0000 C   0  0  0  0  0  0  0  0  0  0  0  0
    0.2570   -2.2419    0.0000 C   0  0  0  0  0  0  0  0  0  0  0  0
    1.7500   -2.0972    0.0000 C   0  0  0  0  0  0  0  0  0  0  0  0
   -0.3642   -3.6072    0.0000 C   0  0  0  0  0  0  0  0  0  0  0  0
    2.6218   -3.3178    0.0000 C   0  0  0  0  0  0  0  0  0  0  0  0
    0.5077   -4.8278    0.0000 C   0  0  0  0  0  0  0  0  0  0  0  0
    2.0007   -4.6831    0.0000 C   0  0  0  0  0  0  0  0  0  0  0  0
   -0.6149   -1.0213    0.0000 N   0  0  0  0  0  0  0  0  0  0  0  0
    2.8725   -5.9037    0.0000 O   0  0  0  0  0  0  0  0  0  0  0  0
  1  4  1  0  0  0  0
  2  9  2  0  0  0  0
  2  5  1  0  0  0  0
  3  4  2  0  0  0  0
  3  5  1  0  0  0  0
  4  7  1  0  0  0  0
  5  6  2  0  0  0  0
  6  8  1  0  0  0  0
  6 11  1  0  0  0  0
  7 11  2  0  0  0  0
  8 10  2  0  0  0  0
  8 18  1  0  0  0  0
  9 10  1  0  0  0  0
 12 13  2  0  0  0  0
 12 14  1  0  0  0  0
 12 18  1  0  0  0  0
 13 15  1  0  0  0  0
 14 16  2  0  0  0  0
 15 17  2  0  0  0  0
 16 17  1  0  0  0  0
 17 19  1  0  0  0  0
M  END
