328403
 OpenBabel03021519512D

 32 34  0  0  1  0  0  0  0  0999 V2000
   10.7533    2.2376    0.0000 C   0  0  1  0  0  0  0  0  0  0  0  0
   11.9260    3.1729    0.0000 H   0  0  0  0  0  0  0  0  0  0  0  0
   12.6267   -2.1999    0.0000 O   0  0  0  0  0  0  0  0  0  0  0  0
    6.1683    3.7376    0.0000 C   0  0  0  0  0  0  0  0  0  0  0  0
    4.8692    2.9876    0.0000 C   0  0  0  0  0  0  0  0  0  0  0  0
    7.4673    2.9876    0.0000 C   0  0  0  0  0  0  0  0  0  0  0  0
    8.6400    3.9228    0.0000 C   0  0  0  0  0  0  0  0  0  0  0  0
   10.1024    3.5891    0.0000 C   0  0  0  0  0  0  0  0  0  0  0  0
    4.8692    1.4876    0.0000 C   0  0  0  0  0  0  0  0  0  0  0  0
    7.4673    1.4876    0.0000 C   0  0  0  0  0  0  0  0  0  0  0  0
   10.1025    0.8861    0.0000 C   0  0  0  0  0  0  0  0  0  0  0  0
    6.1683    0.7376    0.0000 C   0  0  0  0  0  0  0  0  0  0  0  0
    8.6401    0.5524    0.0000 C   0  0  0  0  0  0  0  0  0  0  0  0
   11.2752   -0.0491    0.0000 C   0  0  0  0  0  0  0  0  0  0  0  0
    7.9892   -0.7991    0.0000 C   0  0  0  0  0  0  0  0  0  0  0  0
   11.2752   -1.5491    0.0000 C   0  0  0  0  0  0  0  0  0  0  0  0
    8.6401   -2.1506    0.0000 C   0  0  0  0  0  0  0  0  0  0  0  0
   10.1025   -2.4843    0.0000 C   0  0  0  0  0  0  0  0  0  0  0  0
    3.5702    3.7376    0.0000 O   0  0  0  0  0  0  0  0  0  0  0  0
    2.2711    2.9876    0.0000 C   0  0  0  0  0  0  0  0  0  0  0  0
    3.5702    0.7376    0.0000 O   0  0  0  0  0  0  0  0  0  0  0  0
    2.2712    1.4876    0.0000 C   0  0  0  0  0  0  0  0  0  0  0  0
    6.1683   -0.7624    0.0000 O   0  0  0  0  0  0  0  0  0  0  0  0
    4.8692   -1.5124    0.0000 C   0  0  0  0  0  0  0  0  0  0  0  0
    6.1683    5.2376    0.0000 C   0  0  0  0  0  0  0  0  0  0  0  0
    4.8692    5.9876    0.0000 O   0  0  0  0  0  0  0  0  0  0  0  0
   10.4363   -3.9467    0.0000 O   0  0  0  0  0  0  0  0  0  0  0  0
   11.8696   -4.3888    0.0000 C   0  0  0  0  0  0  0  0  0  0  0  0
   11.9260    1.3024    0.0000 N   0  0  0  0  0  0  0  0  0  0  0  0
   13.3223    1.8504    0.0000 C   0  0  0  0  0  0  0  0  0  0  0  0
   13.5459    3.3337    0.0000 O   0  0  0  0  0  0  0  0  0  0  0  0
   14.4951    0.9152    0.0000 C   0  0  0  0  0  0  0  0  0  0  0  0
  1  8  1  0  0  0  0
  1  2  1  1  0  0  0
  1 11  1  0  0  0  0
  1 29  1  0  0  0  0
  3 16  2  0  0  0  0
  4  5  2  0  0  0  0
  4  6  1  0  0  0  0
  4 25  1  0  0  0  0
  5  9  1  0  0  0  0
  5 19  1  0  0  0  0
  6 10  2  0  0  0  0
  6  7  1  0  0  0  0
  7  8  1  0  0  0  0
  9 12  2  0  0  0  0
  9 21  1  0  0  0  0
 10 12  1  0  0  0  0
 10 13  1  0  0  0  0
 11 14  2  0  0  0  0
 11 13  1  0  0  0  0
 12 23  1  0  0  0  0
 13 15  2  0  0  0  0
 14 16  1  0  0  0  0
 15 17  1  0  0  0  0
 16 18  1  0  0  0  0
 17 18  2  0  0  0  0
 18 27  1  0  0  0  0
 19 20  1  0  0  0  0
 21 22  1  0  0  0  0
 23 24  1  0  0  0  0
 25 26  2  0  0  0  0
 27 28  1  0  0  0  0
 29 30  1  0  0  0  0
 30 31  2  0  0  0  0
 30 32  1  0  0  0  0
M  END
