7962
 OpenBabel03021519512D

 21 22  0  0  0  0  0  0  0  0999 V2000
    5.5712   -5.1495    0.0000 O   0  0  0  0  0  0  0  0  0  0  0  0
    8.1692   -5.1495    0.0000 C   0  0  0  0  0  0  0  0  0  0  0  0
    9.4683   -5.8995    0.0000 C   0  0  0  0  0  0  0  0  0  0  0  0
    6.8702   -5.8995    0.0000 C   0  0  0  0  0  0  0  0  0  0  0  0
    9.4683   -7.3995    0.0000 C   0  0  0  0  0  0  0  0  0  0  0  0
    6.8702   -7.3995    0.0000 C   0  0  0  0  0  0  0  0  0  0  0  0
    8.1692   -8.1495    0.0000 C   0  0  0  0  0  0  0  0  0  0  0  0
    6.8702   -2.8995    0.0000 C   0  0  0  0  0  0  0  0  0  0  0  0
    6.8702   -1.3995    0.0000 C   0  0  0  0  0  0  0  0  0  0  0  0
    5.5712   -3.6495    0.0000 C   0  0  0  0  0  0  0  0  0  0  0  0
    4.2721   -2.8995    0.0000 C   0  0  0  0  0  0  0  0  0  0  0  0
    5.5712   -0.6495    0.0000 C   0  0  0  0  0  0  0  0  0  0  0  0
    4.2721   -1.3995    0.0000 C   0  0  0  0  0  0  0  0  0  0  0  0
    2.9731   -0.6495    0.0000 C   0  0  0  0  0  0  0  0  0  0  0  0
    2.9731    0.8505    0.0000 O   0  0  0  0  0  0  0  0  0  0  0  0
    1.6740   -1.3995    0.0000 O   0  0  0  0  0  0  0  0  0  0  0  0
   10.7673   -8.1495    0.0000 C   0  0  0  0  0  0  0  0  0  0  0  0
   10.0173   -9.4485    0.0000 C   0  0  0  0  0  0  0  0  0  0  0  0
    8.5173   -9.4485    0.0000 C   0  0  0  0  0  0  0  0  0  0  0  0
   11.5173   -6.8505    0.0000 C   0  0  0  0  0  0  0  0  0  0  0  0
   12.0664   -8.8995    0.0000 C   0  0  0  0  0  0  0  0  0  0  0  0
  1  4  1  0  0  0  0
  1 10  1  0  0  0  0
  2  3  2  0  0  0  0
  2  4  1  0  0  0  0
  3  5  1  0  0  0  0
  4  6  2  0  0  0  0
  5  7  2  0  0  0  0
  5 17  1  0  0  0  0
  6  7  1  0  0  0  0
  8  9  2  0  0  0  0
  8 10  1  0  0  0  0
  9 12  1  0  0  0  0
 10 11  2  0  0  0  0
 11 13  1  0  0  0  0
 12 13  2  0  0  0  0
 13 14  1  0  0  0  0
 14 15  2  0  0  0  0
 14 16  1  0  0  0  0
 17 18  1  0  0  0  0
 17 20  1  0  0  0  0
 17 21  1  0  0  0  0
 18 19  1  0  0  0  0
M  END
