319034
 OpenBabel03021519512D

 17 17  0  0  0  0  0  0  0  0999 V2000
    2.0490    4.6471    0.0000 C   0  0  0  0  0  0  0  0  0  0  0  0
    4.2990    3.3481    0.0000 C   0  0  0  0  0  0  0  0  0  0  0  0
    5.7990    3.3481    0.0000 N   0  0  0  0  0  0  0  0  0  0  0  0
    6.5490    2.0490    0.0000 C   0  0  0  0  0  0  0  0  0  0  0  0
    6.5490    4.6471    0.0000 C   0  0  0  0  0  0  0  0  0  0  0  0
    8.7990    5.9462    0.0000 H   0  0  0  0  0  0  0  0  0  0  0  0
    8.0490    2.0490    0.0000 N   0  0  0  0  0  0  0  0  0  0  0  0
    8.0490    4.6471    0.0000 N   0  0  0  0  0  0  0  0  0  0  0  0
    8.7990    0.7500    0.0000 H   0  0  0  0  0  0  0  0  0  0  0  0
    8.7990    3.3481    0.0000 C   0  0  0  0  0  0  0  0  0  0  0  0
   10.2990    3.3481    0.0000 S   0  0  0  0  0  0  0  0  0  0  0  0
    1.2990    5.9461    0.0000 C   0  0  0  0  0  0  0  0  0  0  0  0
    3.3481    5.3971    0.0000 C   0  0  0  0  0  0  0  0  0  0  0  0
    0.7500    3.8971    0.0000 C   0  0  0  0  0  0  0  0  0  0  0  0
    2.7990    3.3481    0.0000 C   0  0  0  0  0  0  0  0  0  0  0  0
    4.2990    1.8481    0.0000 C   0  0  0  0  0  0  0  0  0  0  0  0
    4.2990    4.8481    0.0000 C   0  0  0  0  0  0  0  0  0  0  0  0
  1 12  1  0  0  0  0
  1 13  1  0  0  0  0
  1 14  1  0  0  0  0
  1 15  1  0  0  0  0
  2  3  1  0  0  0  0
  2 15  1  0  0  0  0
  2 16  1  0  0  0  0
  2 17  1  0  0  0  0
  3  5  1  0  0  0  0
  3  4  1  0  0  0  0
  4  7  1  0  0  0  0
  5  8  1  0  0  0  0
  6  8  1  0  0  0  0
  7 10  1  0  0  0  0
  7  9  1  0  0  0  0
  8 10  1  0  0  0  0
 10 11  2  0  0  0  0
M  END
