27626
 OpenBabel03021519512D

 14 15  0  0  0  0  0  0  0  0999 V2000
   -4.4591   -4.9405    0.0000 N   0  0  0  0  0  0  0  0  0  0  0  0
   -3.1600   -2.6905    0.0000 N   0  0  0  0  0  0  0  0  0  0  0  0
    0.0291   -1.5504    0.0000 H   0  0  0  0  0  0  0  0  0  0  0  0
   -0.4344   -2.9770    0.0000 N   0  0  0  0  0  0  0  0  0  0  0  0
    0.4473   -4.1905    0.0000 N   0  0  0  0  0  0  0  0  0  0  0  0
   -1.8610   -3.4405    0.0000 C   0  0  0  0  0  0  0  0  0  0  0  0
   -1.8610   -4.9405    0.0000 C   0  0  0  0  0  0  0  0  0  0  0  0
   -0.4344   -5.4040    0.0000 C   0  0  0  0  0  0  0  0  0  0  0  0
   -3.1600   -5.6905    0.0000 C   0  0  0  0  0  0  0  0  0  0  0  0
   -4.4591   -3.4405    0.0000 C   0  0  0  0  0  0  0  0  0  0  0  0
   -3.1600   -7.1905    0.0000 S   0  0  0  0  0  0  0  0  0  0  0  0
   -4.4591   -7.9405    0.0000 C   0  0  0  0  0  0  0  0  0  0  0  0
   -5.7581   -7.1905    0.0000 C   0  0  0  0  0  0  0  0  0  0  0  0
   -7.0571   -7.9405    0.0000 C   0  0  0  0  0  0  0  0  0  0  0  0
  1  9  2  0  0  0  0
  1 10  1  0  0  0  0
  2 10  2  0  0  0  0
  2  6  1  0  0  0  0
  3  4  1  0  0  0  0
  4  5  1  0  0  0  0
  4  6  1  0  0  0  0
  5  8  2  0  0  0  0
  6  7  2  0  0  0  0
  7  8  1  0  0  0  0
  7  9  1  0  0  0  0
  9 11  1  0  0  0  0
 11 12  1  0  0  0  0
 12 13  1  0  0  0  0
 13 14  1  0  0  0  0
M  END
