343344
 OpenBabel03021519512D

 14 15  0  0  0  0  0  0  0  0999 V2000
    0.2745    3.6226    0.0000 C   0  0  0  0  0  0  0  0  0  0  0  0
    1.0245    4.9216    0.0000 C   0  0  0  0  0  0  0  0  0  0  0  0
    1.0245    2.3236    0.0000 C   0  0  0  0  0  0  0  0  0  0  0  0
    2.5245    2.3236    0.0000 N   0  0  0  0  0  0  0  0  0  0  0  0
    2.5245    4.9216    0.0000 C   0  0  0  0  0  0  0  0  0  0  0  0
    3.2745    3.6226    0.0000 C   0  0  0  0  0  0  0  0  0  0  0  0
    3.2745    6.2207    0.0000 C   0  0  0  0  0  0  0  0  0  0  0  0
    2.5245    7.5197    0.0000 O   0  0  0  0  0  0  0  0  0  0  0  0
    5.6562    7.4342    0.0000 C   0  0  0  0  0  0  0  0  0  0  0  0
    4.7745    6.2207    0.0000 C   0  0  0  0  0  0  0  0  0  0  0  0
    5.6562    5.0071    0.0000 S   0  0  0  0  0  0  0  0  0  0  0  0
    7.0828    6.9707    0.0000 C   0  0  0  0  0  0  0  0  0  0  0  0
    7.0828    5.4707    0.0000 C   0  0  0  0  0  0  0  0  0  0  0  0
    0.2745    1.0245    0.0000 N   0  0  0  0  0  0  0  0  0  0  0  0
  1  2  2  0  0  0  0
  1  3  1  0  0  0  0
  2  5  1  0  0  0  0
  3  4  2  0  0  0  0
  3 14  1  0  0  0  0
  4  6  1  0  0  0  0
  5  7  1  0  0  0  0
  5  6  2  0  0  0  0
  7  8  2  0  0  0  0
  7 10  1  0  0  0  0
  9 12  1  0  0  0  0
  9 10  2  0  0  0  0
 10 11  1  0  0  0  0
 11 13  1  0  0  0  0
 12 13  2  0  0  0  0
M  END
