32873
 OpenBabel03021519512D

 17 17  0  0  0  0  0  0  0  0999 V2000
  -10.8375   -3.8493    0.0000 O   0  0  0  0  0  0  0  0  0  0  0  0
   -5.9462   -0.7500    0.0000 C   0  0  0  0  0  0  0  0  0  0  0  0
   -7.2452   -1.5000    0.0000 C   0  0  0  0  0  0  0  0  0  0  0  0
   -4.6471   -1.5000    0.0000 C   0  0  0  0  0  0  0  0  0  0  0  0
   -4.6471   -3.0000    0.0000 C   0  0  0  0  0  0  0  0  0  0  0  0
   -7.2452   -3.0000    0.0000 C   0  0  0  0  0  0  0  0  0  0  0  0
   -5.9461   -3.7500    0.0000 C   0  0  0  0  0  0  0  0  0  0  0  0
   -9.3886   -4.2375    0.0000 As  0  0  0  0  0  0  0  0  0  0  0  0
   -8.6386   -2.9385    0.0000 O   0  0  0  0  0  0  0  0  0  0  0  0
   -9.0004   -5.6864    0.0000 O   0  0  0  0  0  0  0  0  0  0  0  0
   -8.5442   -0.7500    0.0000 O   0  0  0  0  0  0  0  0  0  0  0  0
   -3.3481   -0.7500    0.0000 N   0  0  0  0  0  0  0  0  0  0  0  0
   -2.0490   -1.5000    0.0000 C   0  0  0  0  0  0  0  0  0  0  0  0
   -0.7500   -0.7500    0.0000 O   0  0  0  0  0  0  0  0  0  0  0  0
   -2.0490   -3.0000    0.0000 O   0  0  0  0  0  0  0  0  0  0  0  0
   -3.3481   -3.7500    0.0000 C   0  0  0  0  0  0  0  0  0  0  0  0
   -3.3481   -5.2500    0.0000 C   0  0  0  0  0  0  0  0  0  0  0  0
  1  8  2  0  0  0  0
  2  4  2  0  0  0  0
  2  3  1  0  0  0  0
  3  6  2  0  0  0  0
  3 11  1  0  0  0  0
  4  5  1  0  0  0  0
  4 12  1  0  0  0  0
  5  7  2  0  0  0  0
  6  7  1  0  0  0  0
  6  8  1  0  0  0  0
  8  9  1  0  0  0  0
  8 10  1  0  0  0  0
 12 13  1  0  0  0  0
 13 14  2  0  0  0  0
 13 15  1  0  0  0  0
 15 16  1  0  0  0  0
 16 17  1  0  0  0  0
M  END
