116702
 OpenBabel03021519512D

 28 32  0  0  0  0  0  0  0  0999 V2000
    3.5416   -6.1317    0.0000 O   0  0  0  0  0  0  0  0  0  0  0  0
    5.9687   -6.1317    0.0000 N   0  0  0  0  0  0  0  0  0  0  0  0
    3.4561   -3.0000    0.0000 N   0  0  0  0  0  0  0  0  0  0  0  0
    7.3532   -0.7500    0.0000 C   0  0  0  0  0  0  0  0  0  0  0  0
    6.0542   -1.5000    0.0000 C   0  0  0  0  0  0  0  0  0  0  0  0
    8.6523   -1.5000    0.0000 C   0  0  0  0  0  0  0  0  0  0  0  0
    4.7551   -0.7500    0.0000 C   0  0  0  0  0  0  0  0  0  0  0  0
    3.4561   -1.5000    0.0000 C   0  0  0  0  0  0  0  0  0  0  0  0
    8.6523   -3.0000    0.0000 C   0  0  0  0  0  0  0  0  0  0  0  0
    6.0542   -3.0000    0.0000 C   0  0  0  0  0  0  0  0  0  0  0  0
    7.3532   -3.7500    0.0000 C   0  0  0  0  0  0  0  0  0  0  0  0
    4.7551   -3.7500    0.0000 C   0  0  0  0  0  0  0  0  0  0  0  0
    4.7551   -5.2500    0.0000 C   0  0  0  0  0  0  0  0  0  0  0  0
    1.6317   -8.6150    0.0000 C   0  0  0  0  0  0  0  0  0  0  0  0
    3.1235   -8.7718    0.0000 C   0  0  0  0  0  0  0  0  0  0  0  0
    0.7500   -9.8285    0.0000 C   0  0  0  0  0  0  0  0  0  0  0  0
    4.0051   -7.5583    0.0000 C   0  0  0  0  0  0  0  0  0  0  0  0
    5.5051   -7.5583    0.0000 C   0  0  0  0  0  0  0  0  0  0  0  0
    3.7336  -10.1421    0.0000 C   0  0  0  0  0  0  0  0  0  0  0  0
    1.3601  -11.1988    0.0000 C   0  0  0  0  0  0  0  0  0  0  0  0
    6.3868   -8.7718    0.0000 C   0  0  0  0  0  0  0  0  0  0  0  0
    2.8519  -11.3556    0.0000 C   0  0  0  0  0  0  0  0  0  0  0  0
    7.8786   -8.6150    0.0000 C   0  0  0  0  0  0  0  0  0  0  0  0
    5.7767  -10.1421    0.0000 C   0  0  0  0  0  0  0  0  0  0  0  0
    8.7603   -9.8285    0.0000 C   0  0  0  0  0  0  0  0  0  0  0  0
    6.6584  -11.3556    0.0000 C   0  0  0  0  0  0  0  0  0  0  0  0
    8.1502  -11.1988    0.0000 C   0  0  0  0  0  0  0  0  0  0  0  0
    9.0319  -12.4124    0.0000 C   0  0  0  0  0  0  0  0  0  0  0  0
  1 13  1  0  0  0  0
  1 17  1  0  0  0  0
  2 13  2  0  0  0  0
  2 18  1  0  0  0  0
  3 12  2  0  0  0  0
  3  8  1  0  0  0  0
  4  6  2  0  0  0  0
  4  5  1  0  0  0  0
  5 10  2  0  0  0  0
  5  7  1  0  0  0  0
  6  9  1  0  0  0  0
  7  8  2  0  0  0  0
  9 11  2  0  0  0  0
 10 11  1  0  0  0  0
 10 12  1  0  0  0  0
 12 13  1  0  0  0  0
 14 16  2  0  0  0  0
 14 15  1  0  0  0  0
 15 19  2  0  0  0  0
 15 17  1  0  0  0  0
 16 20  1  0  0  0  0
 17 18  2  0  0  0  0
 18 21  1  0  0  0  0
 19 22  1  0  0  0  0
 20 22  2  0  0  0  0
 21 23  2  0  0  0  0
 21 24  1  0  0  0  0
 23 25  1  0  0  0  0
 24 26  2  0  0  0  0
 25 27  2  0  0  0  0
 26 27  1  0  0  0  0
 27 28  1  0  0  0  0
M  END
