94600
 OpenBabel03021519512D

 26 30  0  0  1  0  0  0  0  0999 V2000
    5.6580   -1.1023    0.0000 N   0  0  0  0  0  0  0  0  0  0  0  0
    9.2653    0.3977    0.0000 N   0  0  0  0  0  0  0  0  0  0  0  0
   11.6388    1.4545    0.0000 O   0  0  0  0  0  0  0  0  0  0  0  0
   13.4691   -2.6565    0.0000 O   0  0  0  0  0  0  0  0  0  0  0  0
   13.1975   -5.2403    0.0000 O   0  0  0  0  0  0  0  0  0  0  0  0
   10.7571    0.2409    0.0000 C   0  0  0  0  0  0  0  0  0  0  0  0
   11.3672   -1.1294    0.0000 C   0  0  0  0  0  0  0  0  0  0  0  0
   12.8590   -1.2862    0.0000 C   0  0  0  0  0  0  0  0  0  0  0  0
   10.4855   -2.3429    0.0000 C   0  0  0  0  0  0  0  0  0  0  0  0
    8.9938   -2.1861    0.0000 C   0  0  0  0  0  0  0  0  0  0  0  0
   11.0957   -3.7132    0.0000 C   0  0  1  0  0  0  0  0  0  0  0  0
   12.5874   -3.8700    0.0000 C   0  0  0  0  0  0  0  0  0  0  0  0
    8.3837   -0.8158    0.0000 C   0  0  0  0  0  0  0  0  0  0  0  0
    6.9571   -0.3523    0.0000 C   0  0  0  0  0  0  0  0  0  0  0  0
    8.3836    1.6112    0.0000 C   0  0  0  0  0  0  0  0  0  0  0  0
    6.9571    1.1477    0.0000 C   0  0  0  0  0  0  0  0  0  0  0  0
    5.6580    1.8977    0.0000 C   0  0  0  0  0  0  0  0  0  0  0  0
    4.3590    1.1477    0.0000 C   0  0  0  0  0  0  0  0  0  0  0  0
    3.0599    1.8977    0.0000 C   0  0  0  0  0  0  0  0  0  0  0  0
    1.7609    1.1477    0.0000 C   0  0  0  0  0  0  0  0  0  0  0  0
    4.3590   -0.3523    0.0000 C   0  0  0  0  0  0  0  0  0  0  0  0
    1.7609   -0.3523    0.0000 C   0  0  0  0  0  0  0  0  0  0  0  0
    3.0599   -1.1023    0.0000 C   0  0  0  0  0  0  0  0  0  0  0  0
    9.6402   -4.0761    0.0000 O   0  0  0  0  0  0  0  0  0  0  0  0
   11.2003   -5.2096    0.0000 C   0  0  0  0  0  0  0  0  0  0  0  0
   12.5485   -5.8671    0.0000 C   0  0  0  0  0  0  0  0  0  0  0  0
  1 21  2  0  0  0  0
  1 14  1  0  0  0  0
  2  6  1  0  0  0  0
  2 13  1  0  0  0  0
  2 15  1  0  0  0  0
  3  6  2  0  0  0  0
  4  8  1  0  0  0  0
  4 12  1  0  0  0  0
  5 12  2  0  0  0  0
  6  7  1  0  0  0  0
  7  9  2  0  0  0  0
  7  8  1  0  0  0  0
  9 10  1  0  0  0  0
  9 11  1  0  0  0  0
 10 13  2  0  0  0  0
 11 12  1  0  0  0  0
 11 24  1  1  0  0  0
 11 25  1  0  0  0  0
 13 14  1  0  0  0  0
 14 16  2  0  0  0  0
 15 16  1  0  0  0  0
 16 17  1  0  0  0  0
 17 18  2  0  0  0  0
 18 19  1  0  0  0  0
 18 21  1  0  0  0  0
 19 20  2  0  0  0  0
 20 22  1  0  0  0  0
 21 23  1  0  0  0  0
 22 23  2  0  0  0  0
 25 26  1  0  0  0  0
M  END
