151901
 OpenBabel03021519512D

 14 14  0  0  0  0  0  0  0  0999 V2000
   -3.3481   -3.7500    0.0000 O   0  0  0  0  0  0  0  0  0  0  0  0
   -0.7500   -2.2500    0.0000 C   0  0  0  0  0  0  0  0  0  0  0  0
   -7.2452   -1.5000    0.0000 C   0  0  0  0  0  0  0  0  0  0  0  0
   -5.9462   -2.2500    0.0000 C   0  0  0  0  0  0  0  0  0  0  0  0
   -8.5442   -2.2500    0.0000 C   0  0  0  0  0  0  0  0  0  0  0  0
   -5.9462   -3.7500    0.0000 C   0  0  0  0  0  0  0  0  0  0  0  0
   -8.5442   -3.7500    0.0000 C   0  0  0  0  0  0  0  0  0  0  0  0
   -7.2452   -4.5000    0.0000 C   0  0  0  0  0  0  0  0  0  0  0  0
   -4.6471   -1.5000    0.0000 N   0  0  0  0  0  0  0  0  0  0  0  0
   -3.3481   -2.2500    0.0000 C   0  0  0  0  0  0  0  0  0  0  0  0
   -2.0490   -1.5000    0.0000 O   0  0  0  0  0  0  0  0  0  0  0  0
   -2.0490   -4.5000    0.0000 C   0  0  0  0  0  0  0  0  0  0  0  0
   -0.7500   -3.7500    0.0000 C   0  0  0  0  0  0  0  0  0  0  0  0
   -0.7500   -0.7500    0.0000 C   0  0  0  0  0  0  0  0  0  0  0  0
  1 10  1  0  0  0  0
  1 12  1  0  0  0  0
  2 13  1  0  0  0  0
  2 14  3  0  0  0  0
  3  5  2  0  0  0  0
  3  4  1  0  0  0  0
  4  6  2  0  0  0  0
  4  9  1  0  0  0  0
  5  7  1  0  0  0  0
  6  8  1  0  0  0  0
  7  8  2  0  0  0  0
  9 10  1  0  0  0  0
 10 11  2  0  0  0  0
 12 13  1  0  0  0  0
M  END
