72292
 OpenBabel03021519512D

 16 18  0  0  0  0  0  0  0  0999 V2000
   -4.4822   -1.7342    0.0000 H   0  0  0  0  0  0  0  0  0  0  0  0
   -4.0144   -3.1594    0.0000 N   0  0  0  0  0  0  0  0  0  0  0  0
    0.0117   -3.6107    0.0000 N   0  0  0  0  0  0  0  0  0  0  0  0
   -1.2896   -2.8646    0.0000 C   0  0  0  0  0  0  0  0  0  0  0  0
   -2.5864   -3.6186    0.0000 C   0  0  0  0  0  0  0  0  0  0  0  0
   -2.5819   -5.1186    0.0000 C   0  0  0  0  0  0  0  0  0  0  0  0
   -1.2805   -5.8646    0.0000 C   0  0  0  0  0  0  0  0  0  0  0  0
    0.0162   -5.1107    0.0000 C   0  0  0  0  0  0  0  0  0  0  0  0
   -4.0070   -5.5864    0.0000 C   0  0  0  0  0  0  0  0  0  0  0  0
   -6.3837   -4.5369    0.0000 C   0  0  0  0  0  0  0  0  0  0  0  0
   -6.9896   -5.9090    0.0000 C   0  0  0  0  0  0  0  0  0  0  0  0
   -4.8924   -4.3756    0.0000 C   0  0  0  0  0  0  0  0  0  0  0  0
   -6.1043   -7.1199    0.0000 C   0  0  0  0  0  0  0  0  0  0  0  0
   -4.6130   -6.9586    0.0000 C   0  0  0  0  0  0  0  0  0  0  0  0
   -8.4809   -6.0704    0.0000 O   0  0  0  0  0  0  0  0  0  0  0  0
   -1.2942   -1.3646    0.0000 C   0  0  0  0  0  0  0  0  0  0  0  0
  1  2  1  0  0  0  0
  2  5  1  0  0  0  0
  2 12  1  0  0  0  0
  3  4  2  0  0  0  0
  3  8  1  0  0  0  0
  4  5  1  0  0  0  0
  4 16  1  0  0  0  0
  5  6  2  0  0  0  0
  6  7  1  0  0  0  0
  6  9  1  0  0  0  0
  7  8  2  0  0  0  0
  9 12  2  0  0  0  0
  9 14  1  0  0  0  0
 10 11  2  0  0  0  0
 10 12  1  0  0  0  0
 11 13  1  0  0  0  0
 11 15  1  0  0  0  0
 13 14  2  0  0  0  0
M  END
