329065
 OpenBabel03021519512D

 26 28  0  0  1  0  0  0  0  0999 V2000
   -4.0604  -14.3273    0.0000 C   0  0  0  0  0  0  0  0  0  0  0  0
   -4.0604  -15.8273    0.0000 C   0  0  0  0  0  0  0  0  0  0  0  0
   -2.7613  -13.5773    0.0000 C   0  0  0  0  0  0  0  0  0  0  0  0
   -2.7613  -16.5773    0.0000 C   0  0  0  0  0  0  0  0  0  0  0  0
   -1.4623  -14.3273    0.0000 C   0  0  0  0  0  0  0  0  0  0  0  0
   -1.4623  -15.8273    0.0000 C   0  0  0  0  0  0  0  0  0  0  0  0
   -0.0357  -13.8638    0.0000 C   0  0  3  0  0  0  0  0  0  0  0  0
   -0.0357  -16.2908    0.0000 C   0  0  0  0  0  0  0  0  0  0  0  0
    0.4278  -12.4372    0.0000 S   0  0  0  0  0  0  0  0  0  0  0  0
    0.8460  -15.0773    0.0000 C   0  0  0  0  0  0  0  0  0  0  0  0
    2.3586  -10.6988    0.0000 C   0  0  0  0  0  0  0  0  0  0  0  0
    1.3549   -9.5840    0.0000 O   0  0  0  0  0  0  0  0  0  0  0  0
    1.8184   -8.1575    0.0000 O   0  0  0  0  0  0  0  0  0  0  0  0
    3.2856   -7.8456    0.0000 C   0  0  0  0  0  0  0  0  0  0  0  0
    2.7454   -5.3043    0.0000 C   0  0  0  0  0  0  0  0  0  0  0  0
    3.2090   -3.8777    0.0000 C   0  0  0  0  0  0  0  0  0  0  0  0
    1.2782   -5.6161    0.0000 C   0  0  0  0  0  0  0  0  0  0  0  0
    0.2745   -4.5014    0.0000 C   0  0  0  0  0  0  0  0  0  0  0  0
    2.2053   -2.7630    0.0000 C   0  0  0  0  0  0  0  0  0  0  0  0
    0.7380   -3.0748    0.0000 C   0  0  0  0  0  0  0  0  0  0  0  0
    1.8950  -12.1253    0.0000 C   0  0  0  0  0  0  0  0  0  0  0  0
    3.8258  -10.3869    0.0000 N   0  0  0  0  0  0  0  0  0  0  0  0
    4.2893   -8.9603    0.0000 N   0  0  0  0  0  0  0  0  0  0  0  0
    3.7491   -6.4190    0.0000 N   0  0  0  0  0  0  0  0  0  0  0  0
    4.6762   -3.5658    0.0000 C   0  0  0  0  0  0  0  0  0  0  0  0
   -0.2657   -1.9601    0.0000 C   0  0  0  0  0  0  0  0  0  0  0  0
  1  3  2  0  0  0  0
  1  2  1  0  0  0  0
  2  4  2  0  0  0  0
  3  5  1  0  0  0  0
  4  6  1  0  0  0  0
  5  7  1  0  0  0  0
  5  6  2  0  0  0  0
  6  8  1  0  0  0  0
  7  9  1  0  0  0  0
  7 10  1  0  0  0  0
  8 10  1  0  0  0  0
  9 21  1  0  0  0  0
 11 12  2  0  0  0  0
 11 21  1  0  0  0  0
 11 22  1  0  0  0  0
 13 14  2  0  0  0  0
 14 23  1  0  0  0  0
 14 24  1  0  0  0  0
 15 17  2  0  0  0  0
 15 16  1  0  0  0  0
 15 24  1  0  0  0  0
 16 19  2  0  0  0  0
 16 25  1  0  0  0  0
 17 18  1  0  0  0  0
 18 20  2  0  0  0  0
 19 20  1  0  0  0  0
 20 26  1  0  0  0  0
 22 23  1  0  0  0  0
M  END
