665497
 OpenBabel03021519512D

 27 31  0  0  1  0  0  0  0  0999 V2000
    3.6378   -1.5529    0.0000 C   0  0  0  0  0  0  0  0  0  0  0  0
    3.6378   -0.0529    0.0000 C   0  0  0  0  0  0  0  0  0  0  0  0
    4.9369    0.6971    0.0000 C   0  0  0  0  0  0  0  0  0  0  0  0
    6.2359   -0.0529    0.0000 C   0  0  0  0  0  0  0  0  0  0  0  0
    7.5350    0.6971    0.0000 O   0  0  0  0  0  0  0  0  0  0  0  0
    8.8340   -0.0529    0.0000 C   0  0  0  0  0  0  0  0  0  0  0  0
    8.8340   -1.5529    0.0000 C   0  0  0  0  0  0  0  0  0  0  0  0
    7.5350   -2.3029    0.0000 C   0  0  3  0  0  0  0  0  0  0  0  0
    6.2359   -1.5529    0.0000 C   0  0  0  0  0  0  0  0  0  0  0  0
    4.9369   -2.3029    0.0000 C   0  0  0  0  0  0  0  0  0  0  0  0
    2.2112    0.4106    0.0000 O   0  0  0  0  0  0  0  0  0  0  0  0
    1.3296   -0.8029    0.0000 C   0  0  0  0  0  0  0  0  0  0  0  0
    2.2113   -2.0164    0.0000 O   0  0  0  0  0  0  0  0  0  0  0  0
   10.2606    0.4107    0.0000 C   0  0  0  0  0  0  0  0  0  0  0  0
   11.1423   -0.8028    0.0000 O   0  0  0  0  0  0  0  0  0  0  0  0
   10.2606   -2.0164    0.0000 C   0  0  0  0  0  0  0  0  0  0  0  0
   10.7241   -3.4430    0.0000 O   0  0  0  0  0  0  0  0  0  0  0  0
    7.5350   -3.8029    0.0000 C   0  0  0  0  0  0  0  0  0  0  0  0
    6.2359   -4.5529    0.0000 C   0  0  0  0  0  0  0  0  0  0  0  0
    6.2359   -6.0529    0.0000 C   0  0  0  0  0  0  0  0  0  0  0  0
    7.5350   -6.8029    0.0000 C   0  0  0  0  0  0  0  0  0  0  0  0
    8.8340   -6.0529    0.0000 C   0  0  0  0  0  0  0  0  0  0  0  0
    8.8340   -4.5529    0.0000 C   0  0  0  0  0  0  0  0  0  0  0  0
    7.5350   -8.3029    0.0000 O   0  0  0  0  0  0  0  0  0  0  0  0
    8.8340   -9.0529    0.0000 C   0  0  0  0  0  0  0  0  0  0  0  0
   10.1331   -6.8029    0.0000 O   0  0  0  0  0  0  0  0  0  0  0  0
   11.4321   -6.0529    0.0000 C   0  0  0  0  0  0  0  0  0  0  0  0
  1  2  1  0  0  0  0
  1 10  2  0  0  0  0
  1 13  1  0  0  0  0
  2  3  2  0  0  0  0
  2 11  1  0  0  0  0
  3  4  1  0  0  0  0
  4  5  1  0  0  0  0
  4  9  2  0  0  0  0
  5  6  1  0  0  0  0
  6  7  2  0  0  0  0
  6 14  1  0  0  0  0
  7  8  1  0  0  0  0
  7 16  1  0  0  0  0
  8  9  1  0  0  0  0
  8 18  1  0  0  0  0
  9 10  1  0  0  0  0
 11 12  1  0  0  0  0
 12 13  1  0  0  0  0
 14 15  1  0  0  0  0
 15 16  1  0  0  0  0
 16 17  2  0  0  0  0
 18 19  2  0  0  0  0
 18 23  1  0  0  0  0
 19 20  1  0  0  0  0
 20 21  2  0  0  0  0
 21 22  1  0  0  0  0
 21 24  1  0  0  0  0
 22 23  2  0  0  0  0
 22 26  1  0  0  0  0
 24 25  1  0  0  0  0
 26 27  1  0  0  0  0
M  END
