7745
 OpenBabel03021519512D

 19 19  0  0  0  0  0  0  0  0999 V2000
    2.0490   -5.2500    0.0000 O   0  0  0  0  0  0  0  0  0  0  0  0
    5.9461   -7.5000    0.0000 O   0  0  0  0  0  0  0  0  0  0  0  0
    3.3481   -4.5000    0.0000 C   0  0  0  0  0  0  0  0  0  0  0  0
    4.6471   -5.2500    0.0000 C   0  0  0  0  0  0  0  0  0  0  0  0
    4.6471   -6.7500    0.0000 C   0  0  0  0  0  0  0  0  0  0  0  0
    3.3481   -7.5000    0.0000 C   0  0  0  0  0  0  0  0  0  0  0  0
    2.0490   -6.7500    0.0000 C   0  0  0  0  0  0  0  0  0  0  0  0
    0.7500   -7.5000    0.0000 C   0  0  0  0  0  0  0  0  0  0  0  0
    3.3481   -3.0000    0.0000 C   0  0  0  0  0  0  0  0  0  0  0  0
    3.3481   -9.0000    0.0000 C   0  0  0  0  0  0  0  0  0  0  0  0
    2.0490   -9.7500    0.0000 O   0  0  0  0  0  0  0  0  0  0  0  0
    4.6471   -9.7500    0.0000 O   0  0  0  0  0  0  0  0  0  0  0  0
    5.9462   -9.0000    0.0000 C   0  0  0  0  0  0  0  0  0  0  0  0
    7.2452   -9.7500    0.0000 C   0  0  0  0  0  0  0  0  0  0  0  0
    5.9461   -4.5000    0.0000 C   0  0  0  0  0  0  0  0  0  0  0  0
    7.2452   -5.2500    0.0000 O   0  0  0  0  0  0  0  0  0  0  0  0
    5.9461   -3.0000    0.0000 O   0  0  0  0  0  0  0  0  0  0  0  0
    4.6471   -2.2500    0.0000 C   0  0  0  0  0  0  0  0  0  0  0  0
    4.6471   -0.7500    0.0000 C   0  0  0  0  0  0  0  0  0  0  0  0
  1  3  1  0  0  0  0
  1  7  1  0  0  0  0
  2  5  2  0  0  0  0
  3  4  2  0  0  0  0
  3  9  1  0  0  0  0
  4  5  1  0  0  0  0
  4 15  1  0  0  0  0
  5  6  1  0  0  0  0
  6  7  2  0  0  0  0
  6 10  1  0  0  0  0
  7  8  1  0  0  0  0
 10 11  2  0  0  0  0
 10 12  1  0  0  0  0
 12 13  1  0  0  0  0
 13 14  1  0  0  0  0
 15 16  2  0  0  0  0
 15 17  1  0  0  0  0
 17 18  1  0  0  0  0
 18 19  1  0  0  0  0
M  END
