372287
 OpenBabel03021519512D

 26 29  0  0  1  0  0  0  0  0999 V2000
    1.5000    5.0490    0.0000 C   0  0  0  0  0  0  0  0  0  0  0  0
    0.7500    3.7500    0.0000 C   0  0  0  0  0  0  0  0  0  0  0  0
    3.0000    5.0490    0.0000 C   0  0  0  0  0  0  0  0  0  0  0  0
    1.5000    2.4510    0.0000 C   0  0  0  0  0  0  0  0  0  0  0  0
    3.7500    3.7500    0.0000 C   0  0  0  0  0  0  0  0  0  0  0  0
    3.0000    2.4510    0.0000 C   0  0  0  0  0  0  0  0  0  0  0  0
    5.2500    3.7500    0.0000 C   0  0  3  0  0  0  0  0  0  0  0  0
    6.1317    2.5365    0.0000 O   0  0  0  0  0  0  0  0  0  0  0  0
    6.1317    4.9635    0.0000 C   0  0  0  0  0  0  0  0  0  0  0  0
    7.5583    3.0000    0.0000 C   0  0  0  0  0  0  0  0  0  0  0  0
    7.5583    4.5000    0.0000 C   0  0  0  0  0  0  0  0  0  0  0  0
    8.8573    6.7500    0.0000 H   0  0  0  0  0  0  0  0  0  0  0  0
    8.8573    2.2500    0.0000 N   0  0  0  0  0  0  0  0  0  0  0  0
    8.8573    5.2500    0.0000 N   0  0  0  0  0  0  0  0  0  0  0  0
   10.1563    3.0000    0.0000 C   0  0  0  0  0  0  0  0  0  0  0  0
   10.1563    4.5000    0.0000 C   0  0  0  0  0  0  0  0  0  0  0  0
   11.4554    2.2500    0.0000 C   0  0  0  0  0  0  0  0  0  0  0  0
   11.4554    5.2500    0.0000 C   0  0  0  0  0  0  0  0  0  0  0  0
   12.7544    4.5000    0.0000 C   0  0  0  0  0  0  0  0  0  0  0  0
   12.7544    3.0000    0.0000 C   0  0  0  0  0  0  0  0  0  0  0  0
    3.7500    1.1519    0.0000 O   0  0  0  0  0  0  0  0  0  0  0  0
    5.2500    1.1519    0.0000 C   0  0  0  0  0  0  0  0  0  0  0  0
    5.6681    6.3901    0.0000 O   0  0  0  0  0  0  0  0  0  0  0  0
   14.0535    2.2500    0.0000 N   0  3  0  0  0  0  0  0  0  0  0  0
   15.3525    3.0000    0.0000 O   0  5  0  0  0  0  0  0  0  0  0  0
   14.0535    0.7500    0.0000 O   0  0  0  0  0  0  0  0  0  0  0  0
  1  3  1  0  0  0  0
  1  2  2  0  0  0  0
  2  4  1  0  0  0  0
  3  5  2  0  0  0  0
  4  6  2  0  0  0  0
  5  7  1  0  0  0  0
  5  6  1  0  0  0  0
  6 21  1  0  0  0  0
  7  9  1  0  0  0  0
  7  8  1  0  0  0  0
  8 10  1  0  0  0  0
  9 11  2  0  0  0  0
  9 23  1  0  0  0  0
 10 11  1  0  0  0  0
 10 13  2  0  0  0  0
 11 14  1  0  0  0  0
 12 14  1  0  0  0  0
 13 15  1  0  0  0  0
 14 16  1  0  0  0  0
 15 16  2  0  0  0  0
 15 17  1  0  0  0  0
 16 18  1  0  0  0  0
 17 20  2  0  0  0  0
 18 19  2  0  0  0  0
 19 20  1  0  0  0  0
 20 24  1  0  0  0  0
 21 22  1  0  0  0  0
 24 25  1  0  0  0  0
 24 26  2  0  0  0  0
M  CHG  2  24   1  25  -1
M  END
