38845
 OpenBabel03021519512D

 18 20  0  0  0  0  0  0  0  0999 V2000
   -1.1566    2.8679    0.0000 N   0  0  0  0  0  0  0  0  0  0  0  0
    1.2169    1.8112    0.0000 N   0  0  0  0  0  0  0  0  0  0  0  0
    1.3635    7.0351    0.0000 H   0  0  0  0  0  0  0  0  0  0  0  0
    1.8270    5.6085    0.0000 N   0  0  0  0  0  0  0  0  0  0  0  0
    3.2536    3.6450    0.0000 N   0  0  0  0  0  0  0  0  0  0  0  0
    5.3670    9.8919    0.0000 C   0  0  0  0  0  0  0  0  0  0  0  0
    5.5238    8.4001    0.0000 C   0  0  0  0  0  0  0  0  0  0  0  0
    6.5806   10.7736    0.0000 C   0  0  0  0  0  0  0  0  0  0  0  0
    7.9509   10.1635    0.0000 C   0  0  0  0  0  0  0  0  0  0  0  0
    6.8942    7.7900    0.0000 C   0  0  0  0  0  0  0  0  0  0  0  0
    8.1077    8.6717    0.0000 C   0  0  0  0  0  0  0  0  0  0  0  0
   -0.5465    4.2382    0.0000 C   0  0  0  0  0  0  0  0  0  0  0  0
    0.9453    4.3950    0.0000 C   0  0  0  0  0  0  0  0  0  0  0  0
    1.8270    3.1815    0.0000 C   0  0  0  0  0  0  0  0  0  0  0  0
    3.2536    5.1450    0.0000 C   0  0  0  0  0  0  0  0  0  0  0  0
   -0.2749    1.6544    0.0000 C   0  0  0  0  0  0  0  0  0  0  0  0
    4.4671    6.0267    0.0000 S   0  0  0  0  0  0  0  0  0  0  0  0
    4.3103    7.5185    0.0000 C   0  0  0  0  0  0  0  0  0  0  0  0
  1 12  2  0  0  0  0
  1 16  1  0  0  0  0
  2 16  2  0  0  0  0
  2 14  1  0  0  0  0
  3  4  1  0  0  0  0
  4 13  1  0  0  0  0
  4 15  1  0  0  0  0
  5 15  2  0  0  0  0
  5 14  1  0  0  0  0
  6  8  2  0  0  0  0
  6  7  1  0  0  0  0
  7 10  2  0  0  0  0
  7 18  1  0  0  0  0
  8  9  1  0  0  0  0
  9 11  2  0  0  0  0
 10 11  1  0  0  0  0
 12 13  1  0  0  0  0
 13 14  2  0  0  0  0
 15 17  1  0  0  0  0
 17 18  1  0  0  0  0
M  END
