60548
 OpenBabel03021519512D

 11 11  0  0  0  0  0  0  0  0999 V2000
    2.5520   -0.0533    0.0000 C   0  0  0  0  0  0  0  0  0  0  0  0
    0.1989    0.5413    0.0000 C   0  0  0  0  0  0  0  0  0  0  0  0
    0.2988   -0.9554    0.0000 C   0  0  0  0  0  0  0  0  0  0  0  0
   -2.3973    0.6402    0.0000 C   0  0  0  0  0  0  0  0  0  0  0  0
   -2.4544   -0.8587    0.0000 O   0  0  0  0  0  0  0  0  0  0  0  0
    1.5914    1.0988    0.0000 S   0  0  0  0  0  0  0  0  0  0  0  0
    1.7530   -1.3229    0.0000 N   0  0  0  0  0  0  0  0  0  0  0  0
   -3.6669    1.4391    0.0000 O   0  0  0  0  0  0  0  0  0  0  0  0
   -1.0707    1.3402    0.0000 C   0  0  0  0  0  0  0  0  0  0  0  0
   -0.8534   -1.9159    0.0000 O   0  0  0  0  0  0  0  0  0  0  0  0
    4.0486    0.0466    0.0000 O   0  0  0  0  0  0  0  0  0  0  0  0
  1  6  1  0  0  0  0
  1  7  2  0  0  0  0
  1 11  1  0  0  0  0
  2  6  1  0  0  0  0
  2  3  2  0  0  0  0
  2  9  1  0  0  0  0
  3  7  1  0  0  0  0
  3 10  1  0  0  0  0
  4  5  2  0  0  0  0
  4  8  1  0  0  0  0
  4  9  1  0  0  0  0
M  END
