354261
 OpenBabel03021519512D

 30 33  0  0  1  0  0  0  0  0999 V2000
   -7.1627   -1.9087    0.0000 N   0  0  0  0  0  0  0  0  0  0  0  0
   -7.1627   -3.4087    0.0000 N   0  0  0  0  0  0  0  0  0  0  0  0
   -5.7361   -1.4452    0.0000 N   0  0  0  0  0  0  0  0  0  0  0  0
   -4.1045   -1.3597    0.0000 H   0  0  0  0  0  0  0  0  0  0  0  0
   -6.7398   -4.9870    0.0000 H   0  0  0  0  0  0  0  0  0  0  0  0
   -2.1329   -1.9567    0.0000 H   0  0  0  0  0  0  0  0  0  0  0  0
   -5.8760   -6.5416    0.0000 H   0  0  0  0  0  0  0  0  0  0  0  0
   -4.8545   -2.6587    0.0000 C   0  0  2  0  0  0  0  0  0  0  0  0
   -3.3627   -2.8155    0.0000 C   0  0  2  0  0  0  0  0  0  0  0  0
   -2.7526   -4.1858    0.0000 C   0  0  0  0  0  0  0  0  0  0  0  0
   -5.7361   -3.8723    0.0000 C   0  0  2  0  0  0  0  0  0  0  0  0
   -3.6342   -5.3994    0.0000 C   0  0  0  0  0  0  0  0  0  0  0  0
   -4.3968   -1.8118    0.0000 C   0  0  0  0  0  0  0  0  0  0  0  0
   -5.6959   -2.5618    0.0000 C   0  0  0  0  0  0  0  0  0  0  0  0
   -6.0077   -4.0290    0.0000 C   0  0  0  0  0  0  0  0  0  0  0  0
   -5.1260   -5.2426    0.0000 C   0  0  1  0  0  0  0  0  0  0  0  0
   -8.3763   -4.2904    0.0000 C   0  0  0  0  0  0  0  0  0  0  0  0
   -8.2195   -5.7822    0.0000 C   0  0  0  0  0  0  0  0  0  0  0  0
   -9.4330   -6.6639    0.0000 C   0  0  0  0  0  0  0  0  0  0  0  0
  -10.8033   -6.0538    0.0000 C   0  0  0  0  0  0  0  0  0  0  0  0
  -10.9601   -4.5620    0.0000 C   0  0  0  0  0  0  0  0  0  0  0  0
   -9.7466   -3.6803    0.0000 C   0  0  0  0  0  0  0  0  0  0  0  0
   -3.0241   -6.7697    0.0000 C   0  0  0  0  0  0  0  0  0  0  0  0
   -1.5324   -6.9265    0.0000 O   0  0  0  0  0  0  0  0  0  0  0  0
   -1.2608   -4.3426    0.0000 C   0  0  0  0  0  0  0  0  0  0  0  0
   -0.6507   -5.7129    0.0000 O   0  0  0  0  0  0  0  0  0  0  0  0
   -0.3791   -3.1291    0.0000 O   0  0  0  0  0  0  0  0  0  0  0  0
   -0.9892   -1.7588    0.0000 C   0  0  0  0  0  0  0  0  0  0  0  0
   -3.9058   -7.9832    0.0000 O   0  0  0  0  0  0  0  0  0  0  0  0
   -3.2957   -9.3535    0.0000 C   0  0  0  0  0  0  0  0  0  0  0  0
  1  3  2  0  0  0  0
  1  2  1  0  0  0  0
  2 11  1  0  0  0  0
  2 17  1  0  0  0  0
  3  8  1  0  0  0  0
  8  4  1  1  0  0  0
  8  9  1  0  0  0  0
  8 11  1  0  0  0  0
  9  6  1  6  0  0  0
  9 10  1  0  0  0  0
  9 13  1  0  0  0  0
 10 12  2  0  0  0  0
 10 25  1  0  0  0  0
 11  5  1  1  0  0  0
 11 16  1  0  0  0  0
 12 16  1  0  0  0  0
 12 23  1  0  0  0  0
 13 14  1  0  0  0  0
 14 15  1  0  0  0  0
 16  7  1  6  0  0  0
 16 15  1  0  0  0  0
 17 18  2  0  0  0  0
 17 22  1  0  0  0  0
 18 19  1  0  0  0  0
 19 20  2  0  0  0  0
 20 21  1  0  0  0  0
 21 22  2  0  0  0  0
 23 24  2  0  0  0  0
 23 29  1  0  0  0  0
 25 26  2  0  0  0  0
 25 27  1  0  0  0  0
 27 28  1  0  0  0  0
 29 30  1  0  0  0  0
M  END
