62609
 OpenBabel03021519512D

 16 18  0  0  0  0  0  0  0  0999 V2000
   -5.2838    2.1846    0.0000 H   0  0  0  0  0  0  0  0  0  0  0  0
   -6.3985    1.1809    0.0000 N   0  0  0  0  0  0  0  0  0  0  0  0
   -7.6120   -0.9210    0.0000 N   0  0  0  0  0  0  0  0  0  0  0  0
   -2.3446   -2.5609    0.0000 N   0  0  0  0  0  0  0  0  0  0  0  0
   -3.6436   -0.3109    0.0000 C   0  0  0  0  0  0  0  0  0  0  0  0
   -4.9427   -1.0609    0.0000 C   0  0  0  0  0  0  0  0  0  0  0  0
   -2.3446   -1.0609    0.0000 C   0  0  0  0  0  0  0  0  0  0  0  0
   -4.9427   -2.5609    0.0000 C   0  0  0  0  0  0  0  0  0  0  0  0
   -6.2417   -0.3109    0.0000 C   0  0  0  0  0  0  0  0  0  0  0  0
   -3.6436   -3.3109    0.0000 C   0  0  0  0  0  0  0  0  0  0  0  0
   -8.6157    2.7918    0.0000 C   0  0  0  0  0  0  0  0  0  0  0  0
  -10.1157    2.7918    0.0000 C   0  0  0  0  0  0  0  0  0  0  0  0
   -7.8657    1.4927    0.0000 C   0  0  0  0  0  0  0  0  0  0  0  0
   -8.6157    0.1937    0.0000 C   0  0  0  0  0  0  0  0  0  0  0  0
  -10.8657    1.4928    0.0000 C   0  0  0  0  0  0  0  0  0  0  0  0
  -10.1157    0.1937    0.0000 C   0  0  0  0  0  0  0  0  0  0  0  0
  1  2  1  0  0  0  0
  2  9  1  0  0  0  0
  2 13  1  0  0  0  0
  3  9  2  0  0  0  0
  3 14  1  0  0  0  0
  4  7  2  0  0  0  0
  4 10  1  0  0  0  0
  5  6  2  0  0  0  0
  5  7  1  0  0  0  0
  6  8  1  0  0  0  0
  6  9  1  0  0  0  0
  8 10  2  0  0  0  0
 11 12  2  0  0  0  0
 11 13  1  0  0  0  0
 12 15  1  0  0  0  0
 13 14  2  0  0  0  0
 14 16  1  0  0  0  0
 15 16  2  0  0  0  0
M  END
