342460
 OpenBabel03021519512D

 13 13  0  0  0  0  0  0  0  0999 V2000
    0.7500   -3.0000    0.0000 C   0  0  0  0  0  0  0  0  0  0  0  0
    0.7500   -4.5000    0.0000 C   0  0  0  0  0  0  0  0  0  0  0  0
    2.0490   -5.2500    0.0000 C   0  0  0  0  0  0  0  0  0  0  0  0
    2.0490   -2.2500    0.0000 N   0  0  0  0  0  0  0  0  0  0  0  0
    3.3481   -4.5000    0.0000 N   0  0  0  0  0  0  0  0  0  0  0  0
    3.3481   -3.0000    0.0000 C   0  0  0  0  0  0  0  0  0  0  0  0
    4.6471   -2.2500    0.0000 O   0  0  0  0  0  0  0  0  0  0  0  0
    2.0491   -6.7500    0.0000 C   0  0  0  0  0  0  0  0  0  0  0  0
    2.0490   -0.7500    0.0000 C   0  0  0  0  0  0  0  0  0  0  0  0
    3.3481   -7.5000    0.0000 N   0  3  0  0  0  0  0  0  0  0  0  0
    4.6471   -6.7500    0.0000 O   0  5  0  0  0  0  0  0  0  0  0  0
    3.3481   -9.0000    0.0000 O   0  0  0  0  0  0  0  0  0  0  0  0
    4.6471   -5.2500    0.0000 C   0  0  0  0  0  0  0  0  0  0  0  0
  1  4  1  0  0  0  0
  1  2  2  0  0  0  0
  2  3  1  0  0  0  0
  3  5  1  0  0  0  0
  3  8  2  0  0  0  0
  4  6  1  0  0  0  0
  4  9  1  0  0  0  0
  5  6  1  0  0  0  0
  5 13  1  0  0  0  0
  6  7  2  0  0  0  0
  8 10  1  0  0  0  0
 10 11  1  0  0  0  0
 10 12  2  0  0  0  0
M  CHG  2  10   1  11  -1
M  END
