1614
 OpenBabel03021519512D

 37 40  0  0  1  0  0  0  0  0999 V2000
   -3.8733    9.1133    0.0000 O   0  0  0  0  0  0  0  0  0  0  0  0
   -0.3466    4.2592    0.0000 H   0  0  0  0  0  0  0  0  0  0  0  0
   -0.6182    6.8431    0.0000 H   0  0  0  0  0  0  0  0  0  0  0  0
   -0.8897    9.4269    0.0000 H   0  0  0  0  0  0  0  0  0  0  0  0
    2.3654    7.1566    0.0000 O   0  0  0  0  0  0  0  0  0  0  0  0
   -1.2939   13.6017    0.0000 C   0  0  2  0  0  0  0  0  0  0  0  0
   -2.7711   13.8621    0.0000 H   0  0  0  0  0  0  0  0  0  0  0  0
    1.2122   13.3811    0.0000 H   0  0  0  0  0  0  0  0  0  0  0  0
    0.6021   12.0108    0.0000 C   0  0  1  0  0  0  0  0  0  0  0  0
    2.0286   11.5472    0.0000 C   0  0  0  0  0  0  0  0  0  0  0  0
   -0.2796   10.7972    0.0000 C   0  0  1  0  0  0  0  0  0  0  0  0
   -1.7714   10.6404    0.0000 C   0  0  0  0  0  0  0  0  0  0  0  0
   -2.3815    9.2701    0.0000 C   0  0  0  0  0  0  0  0  0  0  0  0
    2.0286   10.0472    0.0000 C   0  0  0  0  0  0  0  0  0  0  0  0
    0.6021    9.5837    0.0000 C   0  0  1  0  0  0  0  0  0  0  0  0
   -1.4999    8.0566    0.0000 C   0  0  1  0  0  0  0  0  0  0  0  0
   -0.0081    8.2134    0.0000 C   0  0  1  0  0  0  0  0  0  0  0  0
   -2.1100    6.6863    0.0000 C   0  0  1  0  0  0  0  0  0  0  0  0
   -3.6017    6.5295    0.0000 C   0  0  0  0  0  0  0  0  0  0  0  0
   -4.2119    5.1592    0.0000 C   0  0  0  0  0  0  0  0  0  0  0  0
    0.8736    6.9998    0.0000 C   0  0  0  0  0  0  0  0  0  0  0  0
   -1.2283    5.4727    0.0000 C   0  0  1  0  0  0  0  0  0  0  0  0
   -3.3302    3.9456    0.0000 C   0  0  1  0  0  0  0  0  0  0  0  0
    0.2635    5.6295    0.0000 C   0  0  0  0  0  0  0  0  0  0  0  0
   -1.8384    4.1024    0.0000 C   0  0  0  0  0  0  0  0  0  0  0  0
   -3.9403    2.5753    0.0000 O   0  0  0  0  0  0  0  0  0  0  0  0
   -1.9430    2.6061    0.0000 C   0  0  0  0  0  0  0  0  0  0  0  0
   -0.3830    3.7395    0.0000 C   0  0  0  0  0  0  0  0  0  0  0  0
   -2.9916    7.8998    0.0000 C   0  0  0  0  0  0  0  0  0  0  0  0
   -2.2581   12.4526    0.0000 C   0  0  0  0  0  0  0  0  0  0  0  0
   -1.0296   12.0963    0.0000 C   0  0  0  0  0  0  0  0  0  0  0  0
    1.6057    8.4690    0.0000 C   0  0  0  0  0  0  0  0  0  0  0  0
   -1.0334   15.0789    0.0000 C   0  0  0  0  0  0  0  0  0  0  0  0
    0.3761   15.5919    0.0000 C   0  0  0  0  0  0  0  0  0  0  0  0
    0.6366   17.0691    0.0000 C   0  0  0  0  0  0  0  0  0  0  0  0
    2.0461   17.5821    0.0000 O   0  0  0  0  0  0  0  0  0  0  0  0
   -0.5125   18.0333    0.0000 O   0  0  0  0  0  0  0  0  0  0  0  0
  1 13  2  0  0  0  0
  5 21  2  0  0  0  0
  6  7  1  1  0  0  0
  6  9  1  0  0  0  0
  6 30  1  0  0  0  0
  6 33  1  0  0  0  0
  9  8  1  6  0  0  0
  9 10  1  0  0  0  0
  9 11  1  0  0  0  0
 10 14  1  0  0  0  0
 11 12  1  0  0  0  0
 11 15  1  0  0  0  0
 11 31  1  1  0  0  0
 12 13  1  0  0  0  0
 13 16  1  0  0  0  0
 14 15  1  0  0  0  0
 15 17  1  0  0  0  0
 15 32  1  6  0  0  0
 16  3  1  6  0  0  0
 16 18  1  0  0  0  0
 16 17  1  0  0  0  0
 17  4  1  1  0  0  0
 17 21  1  0  0  0  0
 18 19  1  0  0  0  0
 18 22  1  0  0  0  0
 18 29  1  1  0  0  0
 19 20  1  0  0  0  0
 20 23  1  0  0  0  0
 21 24  1  0  0  0  0
 22  2  1  6  0  0  0
 22 24  1  0  0  0  0
 22 25  1  0  0  0  0
 23 25  1  0  0  0  0
 23 26  1  1  0  0  0
 25 27  1  0  0  0  0
 25 28  1  0  0  0  0
 33 34  1  0  0  0  0
 34 35  1  0  0  0  0
 35 36  2  0  0  0  0
 35 37  1  0  0  0  0
M  END
