275428
 OpenBabel03021519512D

 25 27  0  0  0  0  0  0  0  0999 V2000
   -8.9574   -3.0000    0.0000 C   0  0  0  0  0  0  0  0  0  0  0  0
   -8.9574   -4.5000    0.0000 C   0  0  0  0  0  0  0  0  0  0  0  0
   -7.6583   -5.2500    0.0000 C   0  0  0  0  0  0  0  0  0  0  0  0
   -6.3593   -4.5000    0.0000 C   0  0  0  0  0  0  0  0  0  0  0  0
   -6.3593   -3.0000    0.0000 C   0  0  0  0  0  0  0  0  0  0  0  0
   -7.6583   -2.2500    0.0000 C   0  0  0  0  0  0  0  0  0  0  0  0
  -10.2564   -2.2500    0.0000 N   0  0  0  0  0  0  0  0  0  0  0  0
  -11.5554   -3.0000    0.0000 C   0  0  0  0  0  0  0  0  0  0  0  0
  -11.5554   -4.5000    0.0000 C   0  0  0  0  0  0  0  0  0  0  0  0
  -10.2564   -5.2500    0.0000 C   0  0  0  0  0  0  0  0  0  0  0  0
   -5.0602   -5.2500    0.0000 C   0  0  0  0  0  0  0  0  0  0  0  0
   -3.7612   -4.5000    0.0000 C   0  0  0  0  0  0  0  0  0  0  0  0
   -3.7612   -3.0000    0.0000 C   0  0  0  0  0  0  0  0  0  0  0  0
   -5.0602   -2.2500    0.0000 N   0  0  0  0  0  0  0  0  0  0  0  0
   -7.2701   -0.8011    0.0000 O   0  0  0  0  0  0  0  0  0  0  0  0
   -5.7701   -0.8011    0.0000 C   0  0  0  0  0  0  0  0  0  0  0  0
  -10.2564   -6.7500    0.0000 C   0  0  0  0  0  0  0  0  0  0  0  0
   -8.9574   -7.5000    0.0000 N   0  0  0  0  0  0  0  0  0  0  0  0
   -2.4622   -2.2500    0.0000 O   0  0  0  0  0  0  0  0  0  0  0  0
  -12.8545   -2.2500    0.0000 O   0  0  0  0  0  0  0  0  0  0  0  0
   -8.9574   -9.0000    0.0000 C   0  0  0  0  0  0  0  0  0  0  0  0
   -7.6583   -6.7500    0.0000 C   0  0  0  0  0  0  0  0  0  0  0  0
   -5.0602   -6.7500    0.0000 C   0  0  0  0  0  0  0  0  0  0  0  0
  -10.2564   -0.7500    0.0000 C   0  0  0  0  0  0  0  0  0  0  0  0
   -0.9622   -0.7500    0.0000 Cl  0  0  0  0  0  0  0  0  0  0  0  0
  1  2  2  0  0  0  0
  1  6  1  0  0  0  0
  1  7  1  0  0  0  0
  2  3  1  0  0  0  0
  2 10  1  0  0  0  0
  3  4  2  0  0  0  0
  4  5  1  0  0  0  0
  4 11  1  0  0  0  0
  5  6  2  0  0  0  0
  5 14  1  0  0  0  0
  6 15  1  0  0  0  0
  7  8  1  0  0  0  0
  7 24  1  0  0  0  0
  8  9  1  0  0  0  0
  8 20  2  0  0  0  0
  9 10  2  0  0  0  0
 10 17  1  0  0  0  0
 11 12  2  0  0  0  0
 11 23  1  0  0  0  0
 12 13  1  0  0  0  0
 13 14  1  0  0  0  0
 13 19  2  0  0  0  0
 14 16  1  0  0  0  0
 15 16  1  0  0  0  0
 17 18  1  0  0  0  0
 18 21  1  0  0  0  0
 18 22  1  0  0  0  0
M  END
