11926
 OpenBabel03021519512D

 25 28  0  0  0  0  0  0  0  0999 V2000
    4.4495   10.5638    0.0000 O   0  0  0  0  0  0  0  0  0  0  0  0
    6.7578   11.3138    0.0000 O   0  0  0  0  0  0  0  0  0  0  0  0
    5.3312   11.7773    0.0000 C   0  0  0  0  0  0  0  0  0  0  0  0
    6.7578    9.8138    0.0000 C   0  0  0  0  0  0  0  0  0  0  0  0
    5.3312    9.3503    0.0000 C   0  0  0  0  0  0  0  0  0  0  0  0
    7.8725    8.8101    0.0000 C   0  0  0  0  0  0  0  0  0  0  0  0
    7.5606    7.3429    0.0000 C   0  0  0  0  0  0  0  0  0  0  0  0
    5.0193    7.8830    0.0000 C   0  0  0  0  0  0  0  0  0  0  0  0
    6.1341    6.8793    0.0000 C   0  0  0  0  0  0  0  0  0  0  0  0
    3.5928    7.4195    0.0000 C   0  0  0  0  0  0  0  0  0  0  0  0
    2.4780    8.4232    0.0000 C   0  0  0  0  0  0  0  0  0  0  0  0
    1.0514    7.9597    0.0000 C   0  0  0  0  0  0  0  0  0  0  0  0
    5.8222    5.4121    0.0000 C   0  0  0  0  0  0  0  0  0  0  0  0
    3.2809    5.9523    0.0000 C   0  0  0  0  0  0  0  0  0  0  0  0
    0.7396    6.4925    0.0000 C   0  0  0  0  0  0  0  0  0  0  0  0
    4.3956    4.9486    0.0000 C   0  0  0  0  0  0  0  0  0  0  0  0
    1.8543    5.4888    0.0000 C   0  0  0  0  0  0  0  0  0  0  0  0
    1.5424    4.0216    0.0000 O   0  0  0  0  0  0  0  0  0  0  0  0
    0.1158    3.5580    0.0000 C   0  0  0  0  0  0  0  0  0  0  0  0
    6.7457    4.2301    0.0000 N   0  3  0  0  0  0  0  0  0  0  0  0
    8.2311    4.4389    0.0000 O   0  5  0  0  0  0  0  0  0  0  0  0
    6.1838    2.8393    0.0000 O   0  0  0  0  0  0  0  0  0  0  0  0
    8.8327    6.5480    0.0000 C   0  0  0  0  0  0  0  0  0  0  0  0
    8.7804    5.0489    0.0000 O   0  0  0  0  0  0  0  0  0  0  0  0
   10.1571    7.2522    0.0000 O   0  0  0  0  0  0  0  0  0  0  0  0
  1  3  1  0  0  0  0
  1  5  1  0  0  0  0
  2  3  1  0  0  0  0
  2  4  1  0  0  0  0
  4  5  2  0  0  0  0
  4  6  1  0  0  0  0
  5  8  1  0  0  0  0
  6  7  2  0  0  0  0
  7  9  1  0  0  0  0
  7 23  1  0  0  0  0
  8  9  2  0  0  0  0
  8 10  1  0  0  0  0
  9 13  1  0  0  0  0
 10 14  2  0  0  0  0
 10 11  1  0  0  0  0
 11 12  2  0  0  0  0
 12 15  1  0  0  0  0
 13 16  2  0  0  0  0
 13 20  1  0  0  0  0
 14 17  1  0  0  0  0
 14 16  1  0  0  0  0
 15 17  2  0  0  0  0
 17 18  1  0  0  0  0
 18 19  1  0  0  0  0
 20 21  1  0  0  0  0
 20 22  2  0  0  0  0
 23 24  2  0  0  0  0
 23 25  1  0  0  0  0
M  CHG  2  20   1  21  -1
M  END
