103520
 OpenBabel03021519512D

 25 27  0  0  0  0  0  0  0  0999 V2000
   -3.6226   -7.7745    0.0000 N   0  0  0  0  0  0  0  0  0  0  0  0
   -2.3236  -10.0245    0.0000 N   0  0  0  0  0  0  0  0  0  0  0  0
    1.5735   -7.7745    0.0000 N   0  0  0  0  0  0  0  0  0  0  0  0
    0.2745  -16.0245    0.0000 Br  0  0  0  0  0  0  0  0  0  0  0  0
    6.7697   -4.7745    0.0000 Br  0  0  0  0  0  0  0  0  0  0  0  0
   -2.3236   -7.0245    0.0000 C   0  0  0  0  0  0  0  0  0  0  0  0
   -1.0245   -7.7745    0.0000 C   0  0  0  0  0  0  0  0  0  0  0  0
   -1.0245   -9.2745    0.0000 C   0  0  0  0  0  0  0  0  0  0  0  0
    2.8726   -5.5245    0.0000 C   0  0  0  0  0  0  0  0  0  0  0  0
    2.8726   -7.0245    0.0000 C   0  0  0  0  0  0  0  0  0  0  0  0
    4.1716   -4.7745    0.0000 C   0  0  0  0  0  0  0  0  0  0  0  0
    5.4707   -5.5245    0.0000 C   0  0  0  0  0  0  0  0  0  0  0  0
    4.1716   -7.7745    0.0000 C   0  0  0  0  0  0  0  0  0  0  0  0
    1.5736  -12.2745    0.0000 C   0  0  0  0  0  0  0  0  0  0  0  0
    0.2745  -11.5245    0.0000 C   0  0  0  0  0  0  0  0  0  0  0  0
    1.5736  -13.7745    0.0000 C   0  0  0  0  0  0  0  0  0  0  0  0
    0.2745  -14.5245    0.0000 C   0  0  0  0  0  0  0  0  0  0  0  0
    5.4707   -7.0245    0.0000 C   0  0  0  0  0  0  0  0  0  0  0  0
   -1.0245  -12.2745    0.0000 C   0  0  0  0  0  0  0  0  0  0  0  0
   -1.0245  -13.7745    0.0000 C   0  0  0  0  0  0  0  0  0  0  0  0
   -3.6226   -9.2745    0.0000 C   0  0  0  0  0  0  0  0  0  0  0  0
   -4.9216  -10.0245    0.0000 N   0  0  0  0  0  0  0  0  0  0  0  0
   -2.3236   -5.5245    0.0000 N   0  0  0  0  0  0  0  0  0  0  0  0
    0.2745  -10.0245    0.0000 N   0  0  0  0  0  0  0  0  0  0  0  0
    0.2745   -7.0245    0.0000 C   0  0  0  0  0  0  0  0  0  0  0  0
  1  6  2  0  0  0  0
  1 21  1  0  0  0  0
  2 21  2  0  0  0  0
  2  8  1  0  0  0  0
  3 10  1  0  0  0  0
  3 25  2  0  0  0  0
  4 17  1  0  0  0  0
  5 12  1  0  0  0  0
  6  7  1  0  0  0  0
  6 23  1  0  0  0  0
  7  8  2  0  0  0  0
  7 25  1  0  0  0  0
  8 24  1  0  0  0  0
  9 11  2  0  0  0  0
  9 10  1  0  0  0  0
 10 13  2  0  0  0  0
 11 12  1  0  0  0  0
 12 18  2  0  0  0  0
 13 18  1  0  0  0  0
 14 15  1  0  0  0  0
 14 16  2  0  0  0  0
 15 19  2  0  0  0  0
 15 24  1  0  0  0  0
 16 17  1  0  0  0  0
 17 20  2  0  0  0  0
 19 20  1  0  0  0  0
 21 22  1  0  0  0  0
M  END
