271923
 OpenBabel03021519512D

 24 24  0  0  1  0  0  0  0  0999 V2000
    5.9462    4.5000    0.0000 C   0  0  0  0  0  0  0  0  0  0  0  0
    5.9462    3.0000    0.0000 C   0  0  3  0  0  0  0  0  0  0  0  0
    8.5442    3.0000    0.0000 C   0  0  0  0  0  0  0  0  0  0  0  0
    8.5442    4.5000    0.0000 C   0  0  0  0  0  0  0  0  0  0  0  0
    7.2452    5.2500    0.0000 C   0  0  0  0  0  0  0  0  0  0  0  0
    9.8433    2.2500    0.0000 C   0  0  0  0  0  0  0  0  0  0  0  0
   11.1423    3.0000    0.0000 C   0  0  0  0  0  0  0  0  0  0  0  0
   11.1423    4.5000    0.0000 C   0  0  0  0  0  0  0  0  0  0  0  0
    9.8433    5.2500    0.0000 C   0  0  0  0  0  0  0  0  0  0  0  0
    4.6471    2.2500    0.0000 C   0  0  0  0  0  0  0  0  0  0  0  0
    2.0490    2.2500    0.0000 C   0  0  0  0  0  0  0  0  0  0  0  0
    3.3481    3.0000    0.0000 N   0  0  0  0  0  0  0  0  0  0  0  0
    7.2452    2.2500    0.0000 N   0  0  0  0  0  0  0  0  0  0  0  0
   12.4413    2.2500    0.0000 N   0  3  0  0  0  0  0  0  0  0  0  0
   13.7404    3.0000    0.0000 O   0  5  0  0  0  0  0  0  0  0  0  0
   12.4414    0.7500    0.0000 O   0  0  0  0  0  0  0  0  0  0  0  0
   12.4413    5.2500    0.0000 C   0  0  0  0  0  0  0  0  0  0  0  0
    0.7500    3.0000    0.0000 C   0  0  0  0  0  0  0  0  0  0  0  0
    2.0490    0.7500    0.0000 C   0  0  0  0  0  0  0  0  0  0  0  0
    8.5442    8.7991    0.0000 C   0  0  0  0  0  0  0  0  0  0  0  0
    7.2452    8.0491    0.0000 S   0  0  0  0  0  0  0  0  0  0  0  0
    7.9952    6.7500    0.0000 O   0  0  0  0  0  0  0  0  0  0  0  0
    5.9462    7.2991    0.0000 O   0  0  0  0  0  0  0  0  0  0  0  0
    6.4952    9.3481    0.0000 O   0  0  0  0  0  0  0  0  0  0  0  0
  1  2  1  0  0  0  0
  1  5  1  0  0  0  0
  2 10  1  0  0  0  0
  2 13  1  0  0  0  0
  3  4  2  0  0  0  0
  3  6  1  0  0  0  0
  3 13  1  0  0  0  0
  4  5  1  0  0  0  0
  4  9  1  0  0  0  0
  6  7  2  0  0  0  0
  7  8  1  0  0  0  0
  7 14  1  0  0  0  0
  8  9  2  0  0  0  0
  8 17  1  0  0  0  0
 10 12  1  0  0  0  0
 11 12  1  0  0  0  0
 11 18  1  0  0  0  0
 11 19  1  0  0  0  0
 14 15  1  0  0  0  0
 14 16  2  0  0  0  0
 20 21  1  0  0  0  0
 21 22  2  0  0  0  0
 21 23  2  0  0  0  0
 21 24  1  0  0  0  0
M  CHG  2  14   1  15  -1
M  END
