59782
 OpenBabel03021519512D

 19 21  0  0  0  0  0  0  0  0999 V2000
   -4.6020   -4.6820    0.0000 N   0  0  0  0  0  0  0  0  0  0  0  0
   -2.6385   -3.2554    0.0000 N   0  0  0  0  0  0  0  0  0  0  0  0
   -3.3885  -10.0637    0.0000 N   0  0  0  0  0  0  0  0  0  0  0  0
    2.1048   -6.0726    0.0000 N   0  0  0  0  0  0  0  0  0  0  0  0
    0.3663   -4.1418    0.0000 C   0  0  0  0  0  0  0  0  0  0  0  0
   -0.7484   -5.1455    0.0000 C   0  0  0  0  0  0  0  0  0  0  0  0
    1.7929   -4.6054    0.0000 C   0  0  0  0  0  0  0  0  0  0  0  0
   -0.4365   -6.6128    0.0000 C   0  0  0  0  0  0  0  0  0  0  0  0
   -2.1750   -4.6820    0.0000 C   0  0  0  0  0  0  0  0  0  0  0  0
   -3.3885   -5.5637    0.0000 C   0  0  0  0  0  0  0  0  0  0  0  0
   -3.3885   -7.0637    0.0000 C   0  0  0  0  0  0  0  0  0  0  0  0
    0.9900   -7.0763    0.0000 C   0  0  0  0  0  0  0  0  0  0  0  0
   -4.6876   -7.8137    0.0000 C   0  0  0  0  0  0  0  0  0  0  0  0
   -2.0895   -7.8137    0.0000 C   0  0  0  0  0  0  0  0  0  0  0  0
   -2.0895   -9.3137    0.0000 C   0  0  0  0  0  0  0  0  0  0  0  0
   -4.6876   -9.3137    0.0000 C   0  0  0  0  0  0  0  0  0  0  0  0
   -4.1385   -3.2554    0.0000 C   0  0  0  0  0  0  0  0  0  0  0  0
   -6.0286   -5.1455    0.0000 C   0  0  0  0  0  0  0  0  0  0  0  0
   -1.7568   -2.0419    0.0000 C   0  0  0  0  0  0  0  0  0  0  0  0
  1 10  1  0  0  0  0
  1 17  1  0  0  0  0
  1 18  1  0  0  0  0
  2  9  1  0  0  0  0
  2 17  1  0  0  0  0
  2 19  1  0  0  0  0
  3 15  2  0  0  0  0
  3 16  1  0  0  0  0
  4  7  2  0  0  0  0
  4 12  1  0  0  0  0
  5  6  2  0  0  0  0
  5  7  1  0  0  0  0
  6  8  1  0  0  0  0
  6  9  1  0  0  0  0
  8 12  2  0  0  0  0
  9 10  2  0  0  0  0
 10 11  1  0  0  0  0
 11 14  2  0  0  0  0
 11 13  1  0  0  0  0
 13 16  2  0  0  0  0
 14 15  1  0  0  0  0
M  END
