50858
 OpenBabel03021519512D

 14 15  0  0  0  0  0  0  0  0999 V2000
    3.1604    3.9740    0.0000 H   0  0  0  0  0  0  0  0  0  0  0  0
    3.7705    2.6037    0.0000 N   0  0  0  0  0  0  0  0  0  0  0  0
    3.0205    1.3046    0.0000 O   0  0  0  0  0  0  0  0  0  0  0  0
    6.3525    3.2955    0.0000 O   0  0  0  0  0  0  0  0  0  0  0  0
    5.2377    2.2918    0.0000 C   0  0  0  0  0  0  0  0  0  0  0  0
    5.3945    0.8000    0.0000 C   0  0  0  0  0  0  0  0  0  0  0  0
    4.0242    0.1899    0.0000 C   0  0  0  0  0  0  0  0  0  0  0  0
    6.6936    0.0500    0.0000 C   0  0  0  0  0  0  0  0  0  0  0  0
    7.9926    0.8000    0.0000 C   0  0  0  0  0  0  0  0  0  0  0  0
    9.2917    0.0500    0.0000 C   0  0  0  0  0  0  0  0  0  0  0  0
    9.2917   -1.4500    0.0000 C   0  0  0  0  0  0  0  0  0  0  0  0
    6.6936   -1.4500    0.0000 C   0  0  0  0  0  0  0  0  0  0  0  0
    7.9926   -2.2000    0.0000 C   0  0  0  0  0  0  0  0  0  0  0  0
    3.7124   -1.2773    0.0000 N   0  0  0  0  0  0  0  0  0  0  0  0
  1  2  1  0  0  0  0
  2  3  1  0  0  0  0
  2  5  1  0  0  0  0
  3  7  1  0  0  0  0
  4  5  2  0  0  0  0
  5  6  1  0  0  0  0
  6  7  2  0  0  0  0
  6  8  1  0  0  0  0
  7 14  1  0  0  0  0
  8  9  1  0  0  0  0
  8 12  1  0  0  0  0
  9 10  1  0  0  0  0
 10 11  1  0  0  0  0
 11 13  1  0  0  0  0
 12 13  1  0  0  0  0
M  END
