57670
 OpenBabel03021519512D

 18 18  0  0  0  0  0  0  0  0999 V2000
   -8.5442   -8.2500    0.0000 C   0  0  0  0  0  0  0  0  0  0  0  0
   -9.8432   -9.0000    0.0000 C   0  0  0  0  0  0  0  0  0  0  0  0
   -8.5442   -6.7500    0.0000 C   0  0  0  0  0  0  0  0  0  0  0  0
  -11.1423   -8.2500    0.0000 C   0  0  0  0  0  0  0  0  0  0  0  0
   -9.8433   -6.0000    0.0000 C   0  0  0  0  0  0  0  0  0  0  0  0
  -11.1423   -6.7500    0.0000 C   0  0  0  0  0  0  0  0  0  0  0  0
  -11.1423   -3.7500    0.0000 C   0  0  0  0  0  0  0  0  0  0  0  0
  -11.1423   -2.2500    0.0000 C   0  0  0  0  0  0  0  0  0  0  0  0
  -11.1423   -0.7500    0.0000 N   0  0  0  0  0  0  0  0  0  0  0  0
  -12.4413   -4.5000    0.0000 C   0  0  0  0  0  0  0  0  0  0  0  0
  -13.7404   -5.2500    0.0000 N   0  0  0  0  0  0  0  0  0  0  0  0
   -9.8433   -4.5000    0.0000 C   0  0  0  0  0  0  0  0  0  0  0  0
   -9.8432  -10.5000    0.0000 C   0  0  0  0  0  0  0  0  0  0  0  0
  -11.1423  -11.2500    0.0000 C   0  0  0  0  0  0  0  0  0  0  0  0
  -11.1423  -12.7500    0.0000 C   0  0  0  0  0  0  0  0  0  0  0  0
  -11.1423  -14.2500    0.0000 N   0  0  0  0  0  0  0  0  0  0  0  0
  -12.4413  -10.5000    0.0000 C   0  0  0  0  0  0  0  0  0  0  0  0
  -13.7404   -9.7500    0.0000 N   0  0  0  0  0  0  0  0  0  0  0  0
  1  2  2  0  0  0  0
  1  3  1  0  0  0  0
  2  4  1  0  0  0  0
  2 13  1  0  0  0  0
  3  5  2  0  0  0  0
  4  6  2  0  0  0  0
  5  6  1  0  0  0  0
  5 12  1  0  0  0  0
  7  8  1  0  0  0  0
  7 10  1  0  0  0  0
  7 12  2  0  0  0  0
  8  9  3  0  0  0  0
 10 11  3  0  0  0  0
 13 14  2  0  0  0  0
 14 15  1  0  0  0  0
 14 17  1  0  0  0  0
 15 16  3  0  0  0  0
 17 18  3  0  0  0  0
M  END
