216606
 OpenBabel03021519512D

 21 22  0  0  0  0  0  0  0  0999 V2000
   -6.8776   -1.7893    0.0000 F   0  0  0  0  0  0  0  0  0  0  0  0
    1.0377    0.8750    0.0000 O   0  0  0  0  0  0  0  0  0  0  0  0
    3.4161    2.7035    0.0000 O   0  0  0  0  0  0  0  0  0  0  0  0
    4.2046   -3.2445    0.0000 Br  0  0  0  0  0  0  0  0  0  0  0  0
   -2.9520   -1.2065    0.0000 C   0  0  0  0  0  0  0  0  0  0  0  0
   -4.2819   -1.9003    0.0000 C   0  0  0  0  0  0  0  0  0  0  0  0
   -2.8879    0.2922    0.0000 C   0  0  0  0  0  0  0  0  0  0  0  0
   -5.5477   -1.0955    0.0000 C   0  0  0  0  0  0  0  0  0  0  0  0
   -4.1537    1.0970    0.0000 C   0  0  0  0  0  0  0  0  0  0  0  0
   -5.4836    0.4031    0.0000 C   0  0  0  0  0  0  0  0  0  0  0  0
    2.4240    0.3023    0.0000 C   0  0  0  0  0  0  0  0  0  0  0  0
    3.6132    1.2165    0.0000 C   0  0  0  0  0  0  0  0  0  0  0  0
    2.6212   -1.1847    0.0000 C   0  0  0  0  0  0  0  0  0  0  0  0
    4.9996    0.6437    0.0000 C   0  0  0  0  0  0  0  0  0  0  0  0
    4.0075   -1.7575    0.0000 C   0  0  0  0  0  0  0  0  0  0  0  0
    5.1967   -0.8432    0.0000 C   0  0  0  0  0  0  0  0  0  0  0  0
   -1.5580    0.9860    0.0000 N   0  0  0  0  0  0  0  0  0  0  0  0
   -0.2922    0.1812    0.0000 C   0  0  0  0  0  0  0  0  0  0  0  0
   -0.3563   -1.3174    0.0000 O   0  0  0  0  0  0  0  0  0  0  0  0
    0.8405    2.3620    0.0000 C   0  0  0  0  0  0  0  0  0  0  0  0
    2.0297    3.2763    0.0000 C   0  0  0  0  0  0  0  0  0  0  0  0
  1  8  1  0  0  0  0
  2 18  1  0  0  0  0
  2 20  1  0  0  0  0
  3 12  1  0  0  0  0
  3 21  1  0  0  0  0
  4 15  1  0  0  0  0
  5  6  2  0  0  0  0
  5  7  1  0  0  0  0
  6  8  1  0  0  0  0
  7  9  2  0  0  0  0
  7 17  1  0  0  0  0
  8 10  2  0  0  0  0
  9 10  1  0  0  0  0
 11 13  2  0  0  0  0
 11 12  1  0  0  0  0
 12 14  2  0  0  0  0
 13 15  1  0  0  0  0
 14 16  1  0  0  0  0
 15 16  2  0  0  0  0
 17 18  1  0  0  0  0
 18 19  2  0  0  0  0
 20 21  1  0  0  0  0
M  END
