9441
 OpenBabel03021519512D

 14 13  0  0  0  0  0  0  0  0999 V2000
    2.8363    1.2238    0.0000 N   0  0  0  0  0  0  0  0  0  0  0  0
    0.4250    0.9476    0.0000 N   0  0  0  0  0  0  0  0  0  0  0  0
    2.5381   -0.2462    0.0000 N   0  0  0  0  0  0  0  0  0  0  0  0
    3.5522   -1.3515    0.0000 H   0  0  0  0  0  0  0  0  0  0  0  0
    1.0479   -0.4170    0.0000 C   0  0  0  0  0  0  0  0  0  0  0  0
    1.5303    1.9616    0.0000 C   0  0  0  0  0  0  0  0  0  0  0  0
   -2.9148   -2.2448    0.0000 O   0  0  0  0  0  0  0  0  0  0  0  0
   -3.6770   -0.9529    0.0000 C   0  0  0  0  0  0  0  0  0  0  0  0
   -2.9392    0.3531    0.0000 C   0  0  0  0  0  0  0  0  0  0  0  0
   -3.7013    1.6451    0.0000 O   0  0  0  0  0  0  0  0  0  0  0  0
   -1.4392    0.3672    0.0000 O   0  0  0  0  0  0  0  0  0  0  0  0
    1.3595    3.4519    0.0000 N   0  0  0  0  0  0  0  0  0  0  0  0
    0.3101   -1.7230    0.0000 C   0  0  0  0  0  0  0  0  0  0  0  0
    1.0722   -3.0149    0.0000 O   0  0  0  0  0  0  0  0  0  0  0  0
  1  6  2  0  0  0  0
  1  3  1  0  0  0  0
  2  5  2  0  0  0  0
  2  6  1  0  0  0  0
  3  5  1  0  0  0  0
  3  4  1  0  0  0  0
  5 13  1  0  0  0  0
  6 12  1  0  0  0  0
  7  8  1  0  0  0  0
  8  9  1  0  0  0  0
  9 10  2  0  0  0  0
  9 11  1  0  0  0  0
 13 14  1  0  0  0  0
M  END
