342459
 OpenBabel03021519512D

 34 37  0  0  0  0  0  0  0  0999 V2000
   -0.2254    7.0865    0.0000 O   0  0  0  0  0  0  0  0  0  0  0  0
   -0.9754    8.3856    0.0000 C   0  0  0  0  0  0  0  0  0  0  0  0
   -2.4754    8.3856    0.0000 O   0  0  0  0  0  0  0  0  0  0  0  0
    1.2746    9.6846    0.0000 N   0  0  0  0  0  0  0  0  0  0  0  0
    2.1563   10.8981    0.0000 N   0  0  0  0  0  0  0  0  0  0  0  0
    2.1563    8.4711    0.0000 C   0  0  0  0  0  0  0  0  0  0  0  0
    3.5829    8.9346    0.0000 C   0  0  0  0  0  0  0  0  0  0  0  0
    3.5829   10.4346    0.0000 C   0  0  0  0  0  0  0  0  0  0  0  0
    4.8819   11.1846    0.0000 O   0  0  0  0  0  0  0  0  0  0  0  0
    4.8819    8.1846    0.0000 C   0  0  0  0  0  0  0  0  0  0  0  0
    6.1810    8.9346    0.0000 C   0  0  0  0  0  0  0  0  0  0  0  0
    6.1810   10.4346    0.0000 C   0  0  0  0  0  0  0  0  0  0  0  0
    7.4800   11.1846    0.0000 O   0  0  0  0  0  0  0  0  0  0  0  0
   10.0386    8.6357    0.0000 N   0  0  0  0  0  0  0  0  0  0  0  0
   11.1877    9.5999    0.0000 C   0  0  0  0  0  0  0  0  0  0  0  0
   10.2991    7.1585    0.0000 C   0  0  0  0  0  0  0  0  0  0  0  0
   11.7086    6.6455    0.0000 C   0  0  0  0  0  0  0  0  0  0  0  0
   12.5972    9.0869    0.0000 C   0  0  0  0  0  0  0  0  0  0  0  0
   12.8577    7.6097    0.0000 N   0  0  0  0  0  0  0  0  0  0  0  0
   14.2672    7.0966    0.0000 C   0  0  0  0  0  0  0  0  0  0  0  0
   14.5277    5.6194    0.0000 C   0  0  0  0  0  0  0  0  0  0  0  0
   15.4163    8.0608    0.0000 C   0  0  0  0  0  0  0  0  0  0  0  0
   16.8258    7.5478    0.0000 C   0  0  0  0  0  0  0  0  0  0  0  0
   15.9372    5.1064    0.0000 C   0  0  0  0  0  0  0  0  0  0  0  0
   17.0863    6.0706    0.0000 C   0  0  0  0  0  0  0  0  0  0  0  0
   -0.9754    5.7875    0.0000 C   0  0  0  0  0  0  0  0  0  0  0  0
   -2.4754    5.7875    0.0000 C   0  0  0  0  0  0  0  0  0  0  0  0
   -0.2254    9.6846    0.0000 C   0  0  0  0  0  0  0  0  0  0  0  0
    1.6928    7.0445    0.0000 C   0  0  0  0  0  0  0  0  0  0  0  0
    4.8819    6.6846    0.0000 C   0  0  0  0  0  0  0  0  0  0  0  0
    7.4800    8.1846    0.0000 C   0  0  0  0  0  0  0  0  0  0  0  0
    8.6291    9.1488    0.0000 C   0  0  0  0  0  0  0  0  0  0  0  0
   13.3786    4.6552    0.0000 O   0  0  0  0  0  0  0  0  0  0  0  0
   11.9691    5.1683    0.0000 C   0  0  0  0  0  0  0  0  0  0  0  0
  1  2  1  0  0  0  0
  1 26  1  0  0  0  0
  2  3  2  0  0  0  0
  2 28  1  0  0  0  0
  4  5  1  0  0  0  0
  4  6  1  0  0  0  0
  4 28  1  0  0  0  0
  5  8  2  0  0  0  0
  6  7  2  0  0  0  0
  6 29  1  0  0  0  0
  7  8  1  0  0  0  0
  7 10  1  0  0  0  0
  8  9  1  0  0  0  0
  9 12  1  0  0  0  0
 10 11  2  0  0  0  0
 10 30  1  0  0  0  0
 11 12  1  0  0  0  0
 11 31  1  0  0  0  0
 12 13  2  0  0  0  0
 14 15  1  0  0  0  0
 14 16  1  0  0  0  0
 14 32  1  0  0  0  0
 15 18  1  0  0  0  0
 16 17  1  0  0  0  0
 17 19  1  0  0  0  0
 18 19  1  0  0  0  0
 19 20  1  0  0  0  0
 20 22  2  0  0  0  0
 20 21  1  0  0  0  0
 21 24  2  0  0  0  0
 21 33  1  0  0  0  0
 22 23  1  0  0  0  0
 23 25  2  0  0  0  0
 24 25  1  0  0  0  0
 26 27  1  0  0  0  0
 31 32  1  0  0  0  0
 33 34  1  0  0  0  0
M  END
