163910
 OpenBabel03021519512D

 32 34  0  0  0  0  0  0  0  0999 V2000
    2.0491  -11.2500    0.0000 O   0  0  0  0  0  0  0  0  0  0  0  0
    4.6471  -11.2500    0.0000 C   0  0  0  0  0  0  0  0  0  0  0  0
    5.9462  -12.0000    0.0000 C   0  0  0  0  0  0  0  0  0  0  0  0
    3.3481  -12.0000    0.0000 C   0  0  0  0  0  0  0  0  0  0  0  0
    5.9462  -13.5000    0.0000 C   0  0  0  0  0  0  0  0  0  0  0  0
    3.3481  -13.5000    0.0000 C   0  0  0  0  0  0  0  0  0  0  0  0
    4.6471  -14.2500    0.0000 C   0  0  0  0  0  0  0  0  0  0  0  0
    3.3481   -9.0000    0.0000 C   0  0  0  0  0  0  0  0  0  0  0  0
    2.0491   -9.7500    0.0000 C   0  0  0  0  0  0  0  0  0  0  0  0
    3.3481   -7.5000    0.0000 C   0  0  0  0  0  0  0  0  0  0  0  0
    0.7500   -9.0000    0.0000 C   0  0  0  0  0  0  0  0  0  0  0  0
    2.0491   -6.7500    0.0000 C   0  0  0  0  0  0  0  0  0  0  0  0
    0.7500   -7.5000    0.0000 C   0  0  0  0  0  0  0  0  0  0  0  0
    4.6471   -5.2500    0.0000 C   0  0  0  0  0  0  0  0  0  0  0  0
    3.3481   -4.5000    0.0000 C   0  0  0  0  0  0  0  0  0  0  0  0
    5.9462   -4.5000    0.0000 C   0  0  0  0  0  0  0  0  0  0  0  0
    3.3481   -3.0000    0.0000 C   0  0  0  0  0  0  0  0  0  0  0  0
    5.9462   -3.0000    0.0000 C   0  0  0  0  0  0  0  0  0  0  0  0
    4.6471   -2.2500    0.0000 C   0  0  0  0  0  0  0  0  0  0  0  0
    7.2452   -2.2500    0.0000 N   0  3  0  0  0  0  0  0  0  0  0  0
    8.5442   -3.0000    0.0000 O   0  5  0  0  0  0  0  0  0  0  0  0
    7.2452   -0.7500    0.0000 O   0  0  0  0  0  0  0  0  0  0  0  0
    2.0490   -2.2500    0.0000 N   0  3  0  0  0  0  0  0  0  0  0  0
    0.7500   -3.0000    0.0000 O   0  5  0  0  0  0  0  0  0  0  0  0
    2.0490   -0.7500    0.0000 O   0  0  0  0  0  0  0  0  0  0  0  0
    2.0491   -5.2500    0.0000 N   0  0  0  0  0  0  0  0  0  0  0  0
    2.0491  -14.2500    0.0000 N   0  3  0  0  0  0  0  0  0  0  0  0
    0.7500  -13.5000    0.0000 O   0  5  0  0  0  0  0  0  0  0  0  0
    2.0491  -15.7500    0.0000 O   0  0  0  0  0  0  0  0  0  0  0  0
    7.2452  -14.2500    0.0000 N   0  3  0  0  0  0  0  0  0  0  0  0
    8.5443  -13.5000    0.0000 O   0  5  0  0  0  0  0  0  0  0  0  0
    7.2452  -15.7500    0.0000 O   0  0  0  0  0  0  0  0  0  0  0  0
  1  4  1  0  0  0  0
  1  9  1  0  0  0  0
  2  3  2  0  0  0  0
  2  4  1  0  0  0  0
  3  5  1  0  0  0  0
  4  6  2  0  0  0  0
  5  7  2  0  0  0  0
  5 30  1  0  0  0  0
  6  7  1  0  0  0  0
  6 27  1  0  0  0  0
  8  9  2  0  0  0  0
  8 10  1  0  0  0  0
  9 11  1  0  0  0  0
 10 12  2  0  0  0  0
 11 13  2  0  0  0  0
 12 13  1  0  0  0  0
 12 26  1  0  0  0  0
 14 16  2  0  0  0  0
 14 15  1  0  0  0  0
 15 17  2  0  0  0  0
 15 26  1  0  0  0  0
 16 18  1  0  0  0  0
 17 19  1  0  0  0  0
 17 23  1  0  0  0  0
 18 19  2  0  0  0  0
 18 20  1  0  0  0  0
 20 21  1  0  0  0  0
 20 22  2  0  0  0  0
 23 24  1  0  0  0  0
 23 25  2  0  0  0  0
 27 28  1  0  0  0  0
 27 29  2  0  0  0  0
 30 31  1  0  0  0  0
 30 32  2  0  0  0  0
M  CHG  8  20   1  21  -1  23   1  24  -1  27   1  28  -1  30   1  31  -1
M  END
