308849
 OpenBabel03021519512D

 23 26  0  0  0  0  0  0  0  0999 V2000
    1.7745    8.8187    0.0000 C   0  0  0  0  0  0  0  0  0  0  0  0
    0.2745    8.8187    0.0000 C   0  0  0  0  0  0  0  0  0  0  0  0
    9.3438    6.8487    0.0000 C   0  0  0  0  0  0  0  0  0  0  0  0
    4.0245    7.5197    0.0000 C   0  0  0  0  0  0  0  0  0  0  0  0
    2.5245    7.5197    0.0000 C   0  0  0  0  0  0  0  0  0  0  0  0
   -0.4755    7.5197    0.0000 C   0  0  0  0  0  0  0  0  0  0  0  0
   10.6682    7.5529    0.0000 C   0  0  0  0  0  0  0  0  0  0  0  0
    1.7745    6.2207    0.0000 C   0  0  0  0  0  0  0  0  0  0  0  0
    0.2745    6.2207    0.0000 C   0  0  0  0  0  0  0  0  0  0  0  0
   10.4077    9.0301    0.0000 C   0  0  0  0  0  0  0  0  0  0  0  0
    8.9223    9.2389    0.0000 C   0  0  0  0  0  0  0  0  0  0  0  0
    4.0245    4.9216    0.0000 C   0  0  0  0  0  0  0  0  0  0  0  0
    2.5245    4.9216    0.0000 C   0  0  0  0  0  0  0  0  0  0  0  0
   -0.4755    4.9216    0.0000 C   0  0  0  0  0  0  0  0  0  0  0  0
    1.7745    3.6226    0.0000 C   0  0  0  0  0  0  0  0  0  0  0  0
    0.2745    3.6226    0.0000 C   0  0  0  0  0  0  0  0  0  0  0  0
    4.7745    6.2207    0.0000 N   0  0  0  0  0  0  0  0  0  0  0  0
    4.7745    3.6226    0.0000 O   0  0  0  0  0  0  0  0  0  0  0  0
    4.7745    8.8187    0.0000 O   0  0  0  0  0  0  0  0  0  0  0  0
    8.2648    7.8907    0.0000 N   0  0  0  0  0  0  0  0  0  0  0  0
   -0.4755    2.3236    0.0000 N   0  0  0  0  0  0  0  0  0  0  0  0
    6.2745    6.2207    0.0000 C   0  0  0  0  0  0  0  0  0  0  0  0
    6.7876    7.6302    0.0000 C   0  0  0  0  0  0  0  0  0  0  0  0
  1  5  1  0  0  0  0
  1  2  2  0  0  0  0
  2  6  1  0  0  0  0
  3  7  1  0  0  0  0
  3 20  1  0  0  0  0
  4 19  2  0  0  0  0
  4  5  1  0  0  0  0
  4 17  1  0  0  0  0
  5  8  2  0  0  0  0
  6  9  2  0  0  0  0
  7 10  1  0  0  0  0
  8  9  1  0  0  0  0
  8 13  1  0  0  0  0
  9 14  1  0  0  0  0
 10 11  1  0  0  0  0
 11 20  1  0  0  0  0
 12 17  1  0  0  0  0
 12 13  1  0  0  0  0
 12 18  2  0  0  0  0
 13 15  2  0  0  0  0
 14 16  2  0  0  0  0
 15 16  1  0  0  0  0
 16 21  1  0  0  0  0
 17 22  1  0  0  0  0
 20 23  1  0  0  0  0
 22 23  1  0  0  0  0
M  END
