34488
 OpenBabel03021519512D

 18 20  0  0  0  0  0  0  0  0999 V2000
    2.9731   -2.1495    0.0000 N   0  0  0  0  0  0  0  0  0  0  0  0
    4.2721   -4.3995    0.0000 N   0  0  0  0  0  0  0  0  0  0  0  0
    6.9977   -1.6860    0.0000 N   0  0  0  0  0  0  0  0  0  0  0  0
    6.9977   -4.1130    0.0000 N   0  0  0  0  0  0  0  0  0  0  0  0
    4.2721   -1.3995    0.0000 C   0  0  0  0  0  0  0  0  0  0  0  0
    5.5712   -2.1495    0.0000 C   0  0  0  0  0  0  0  0  0  0  0  0
    5.5712   -3.6495    0.0000 C   0  0  0  0  0  0  0  0  0  0  0  0
    7.8794   -2.8995    0.0000 C   0  0  0  0  0  0  0  0  0  0  0  0
    2.9731   -3.6495    0.0000 C   0  0  0  0  0  0  0  0  0  0  0  0
    8.9285   -5.8515    0.0000 C   0  0  0  0  0  0  0  0  0  0  0  0
    7.4613   -5.5396    0.0000 C   0  0  0  0  0  0  0  0  0  0  0  0
    9.3920   -7.2781    0.0000 C   0  0  0  0  0  0  0  0  0  0  0  0
    8.3883   -8.3928    0.0000 C   0  0  0  0  0  0  0  0  0  0  0  0
    6.4576   -6.6543    0.0000 C   0  0  0  0  0  0  0  0  0  0  0  0
    6.9211   -8.0809    0.0000 C   0  0  0  0  0  0  0  0  0  0  0  0
    4.2721    0.1005    0.0000 N   0  0  0  0  0  0  0  0  0  0  0  0
    2.9731    0.8505    0.0000 C   0  0  0  0  0  0  0  0  0  0  0  0
    5.5711    0.8505    0.0000 C   0  0  0  0  0  0  0  0  0  0  0  0
  1  5  2  0  0  0  0
  1  9  1  0  0  0  0
  2  9  2  0  0  0  0
  2  7  1  0  0  0  0
  3  8  2  0  0  0  0
  3  6  1  0  0  0  0
  4  7  1  0  0  0  0
  4  8  1  0  0  0  0
  4 11  1  0  0  0  0
  5  6  1  0  0  0  0
  5 16  1  0  0  0  0
  6  7  2  0  0  0  0
 10 12  2  0  0  0  0
 10 11  1  0  0  0  0
 11 14  2  0  0  0  0
 12 13  1  0  0  0  0
 13 15  2  0  0  0  0
 14 15  1  0  0  0  0
 16 17  1  0  0  0  0
 16 18  1  0  0  0  0
M  END
