8481
 OpenBabel03021519512D

 15 15  0  0  0  0  0  0  0  0999 V2000
   -2.6250   -4.7476    0.0000 C   0  0  0  0  0  0  0  0  0  0  0  0
   -4.1250   -4.7476    0.0000 C   0  0  0  0  0  0  0  0  0  0  0  0
   -1.8750   -6.0466    0.0000 C   0  0  0  0  0  0  0  0  0  0  0  0
   -4.8750   -6.0466    0.0000 C   0  0  0  0  0  0  0  0  0  0  0  0
   -2.6250   -7.3457    0.0000 C   0  0  0  0  0  0  0  0  0  0  0  0
   -4.1250   -7.3457    0.0000 C   0  0  0  0  0  0  0  0  0  0  0  0
   -0.3750   -6.0466    0.0000 O   0  0  0  0  0  0  0  0  0  0  0  0
   -1.8750   -3.4486    0.0000 O   0  0  0  0  0  0  0  0  0  0  0  0
   -0.3750   -3.4486    0.0000 C   0  0  0  0  0  0  0  0  0  0  0  0
   -6.3750   -6.0466    0.0000 C   0  0  0  0  0  0  0  0  0  0  0  0
   -6.3750   -4.5466    0.0000 C   0  0  0  0  0  0  0  0  0  0  0  0
   -7.8750   -6.0466    0.0000 C   0  0  0  0  0  0  0  0  0  0  0  0
   -6.3750   -7.5466    0.0000 C   0  0  0  0  0  0  0  0  0  0  0  0
    0.3750   -4.7476    0.0000 C   0  0  0  0  0  0  0  0  0  0  0  0
    0.3750   -2.1495    0.0000 O   0  0  0  0  0  0  0  0  0  0  0  0
  1  3  1  0  0  0  0
  1  2  2  0  0  0  0
  2  4  1  0  0  0  0
  3  7  1  0  0  0  0
  3  5  2  0  0  0  0
  4  6  2  0  0  0  0
  4 10  1  0  0  0  0
  5  6  1  0  0  0  0
  7 14  1  0  0  0  0
  8  9  2  0  0  0  0
  9 14  1  0  0  0  0
  9 15  1  0  0  0  0
 10 11  1  0  0  0  0
 10 12  1  0  0  0  0
 10 13  1  0  0  0  0
M  END
