186200
 OpenBabel03021519512D

 26 28  0  0  1  0  0  0  0  0999 V2000
    5.9462   -5.2500    0.0000 C   0  0  0  0  0  0  0  0  0  0  0  0
    7.2452   -6.0000    0.0000 N   0  0  0  0  0  0  0  0  0  0  0  0
    5.9461   -0.7500    0.0000 C   0  0  0  0  0  0  0  0  0  0  0  0
    4.6471   -1.5000    0.0000 C   0  0  0  0  0  0  0  0  0  0  0  0
    7.2452   -1.5000    0.0000 C   0  0  0  0  0  0  0  0  0  0  0  0
    4.6471   -3.0000    0.0000 C   0  0  0  0  0  0  0  0  0  0  0  0
    7.2452   -3.0000    0.0000 C   0  0  0  0  0  0  0  0  0  0  0  0
    5.9461   -3.7500    0.0000 C   0  0  0  0  0  0  0  0  0  0  0  0
    2.0490   -7.5000    0.0000 C   0  0  0  0  0  0  0  0  0  0  0  0
    0.7500   -8.2500    0.0000 C   0  0  0  0  0  0  0  0  0  0  0  0
    3.3481   -8.2500    0.0000 C   0  0  0  0  0  0  0  0  0  0  0  0
    0.7500   -9.7500    0.0000 C   0  0  0  0  0  0  0  0  0  0  0  0
    3.3481   -9.7500    0.0000 C   0  0  0  0  0  0  0  0  0  0  0  0
    2.0491  -10.5000    0.0000 C   0  0  0  0  0  0  0  0  0  0  0  0
    7.2452  -10.5000    0.0000 C   0  0  0  0  0  0  0  0  0  0  0  0
    5.9462   -9.7500    0.0000 C   0  0  0  0  0  0  0  0  0  0  0  0
    7.2452  -12.0000    0.0000 C   0  0  0  0  0  0  0  0  0  0  0  0
    4.6471  -10.5000    0.0000 C   0  0  0  0  0  0  0  0  0  0  0  0
    5.9462  -12.7500    0.0000 C   0  0  0  0  0  0  0  0  0  0  0  0
    4.6471  -12.0000    0.0000 C   0  0  0  0  0  0  0  0  0  0  0  0
    4.6471   -7.5000    0.0000 C   0  0  3  0  0  0  0  0  0  0  0  0
    4.6471   -6.0000    0.0000 C   0  0  0  0  0  0  0  0  0  0  0  0
    5.9462   -8.2500    0.0000 C   0  0  3  0  0  0  0  0  0  0  0  0
    7.2452   -7.5000    0.0000 C   0  0  0  0  0  0  0  0  0  0  0  0
    8.5442   -6.7500    0.0000 N   0  0  0  0  0  0  0  0  0  0  0  0
    7.2452   -7.5000    0.0000 O   0  0  0  0  0  0  0  0  0  0  0  0
  1  2  2  0  0  0  0
  1  8  1  0  0  0  0
  1 22  1  0  0  0  0
  2 26  1  0  0  0  0
  3  5  2  0  0  0  0
  3  4  1  0  0  0  0
  4  6  2  0  0  0  0
  5  7  1  0  0  0  0
  6  8  1  0  0  0  0
  7  8  2  0  0  0  0
  9 10  2  0  0  0  0
  9 11  1  0  0  0  0
 10 12  1  0  0  0  0
 11 13  2  0  0  0  0
 11 21  1  0  0  0  0
 12 14  2  0  0  0  0
 13 14  1  0  0  0  0
 15 17  2  0  0  0  0
 15 16  1  0  0  0  0
 16 18  2  0  0  0  0
 16 23  1  0  0  0  0
 17 19  1  0  0  0  0
 18 20  1  0  0  0  0
 19 20  2  0  0  0  0
 21 22  1  0  0  0  0
 21 23  1  0  0  0  0
 23 24  1  0  0  0  0
 24 25  3  0  0  0  0
M  END
