288024
 OpenBabel03021519512D

 19 20  0  0  0  0  0  0  0  0999 V2000
    2.2500    2.2500    0.0000 C   0  0  0  0  0  0  0  0  0  0  0  0
    3.0000    3.5490    0.0000 C   0  0  0  0  0  0  0  0  0  0  0  0
    3.0000    0.9510    0.0000 C   0  0  0  0  0  0  0  0  0  0  0  0
    4.5000    0.9510    0.0000 C   0  0  0  0  0  0  0  0  0  0  0  0
    4.5000    3.5490    0.0000 C   0  0  0  0  0  0  0  0  0  0  0  0
    5.2500    2.2500    0.0000 C   0  0  0  0  0  0  0  0  0  0  0  0
    6.7500    2.2500    0.0000 S   0  0  0  0  0  0  0  0  0  0  0  0
    6.7500    3.7500    0.0000 O   0  0  0  0  0  0  0  0  0  0  0  0
    6.7500    0.7500    0.0000 O   0  0  0  0  0  0  0  0  0  0  0  0
    8.7630    3.6595    0.0000 C   0  0  0  0  0  0  0  0  0  0  0  0
    7.7988    4.8086    0.0000 O   0  0  0  0  0  0  0  0  0  0  0  0
   10.8416    1.3155    0.0000 N   0  0  0  0  0  0  0  0  0  0  0  0
   11.2044    2.7710    0.0000 C   0  0  0  0  0  0  0  0  0  0  0  0
   12.7008    2.8756    0.0000 S   0  0  0  0  0  0  0  0  0  0  0  0
   13.2627    1.4848    0.0000 C   0  0  0  0  0  0  0  0  0  0  0  0
   12.1136    0.5206    0.0000 C   0  0  0  0  0  0  0  0  0  0  0  0
    0.7500    2.2500    0.0000 C   0  0  0  0  0  0  0  0  0  0  0  0
    8.2500    2.2500    0.0000 N   0  0  0  0  0  0  0  0  0  0  0  0
   10.2402    3.9200    0.0000 N   0  0  0  0  0  0  0  0  0  0  0  0
  1  2  2  0  0  0  0
  1  3  1  0  0  0  0
  1 17  1  0  0  0  0
  2  5  1  0  0  0  0
  3  4  2  0  0  0  0
  4  6  1  0  0  0  0
  5  6  2  0  0  0  0
  6  7  1  0  0  0  0
  7  8  2  0  0  0  0
  7  9  2  0  0  0  0
  7 18  1  0  0  0  0
 10 11  2  0  0  0  0
 10 18  1  0  0  0  0
 10 19  1  0  0  0  0
 12 16  1  0  0  0  0
 12 13  2  0  0  0  0
 13 14  1  0  0  0  0
 13 19  1  0  0  0  0
 14 15  1  0  0  0  0
 15 16  2  0  0  0  0
M  END
