32892
 OpenBabel03021519512D

 19 20  0  0  1  0  0  0  0  0999 V2000
   -0.3750    6.6495    0.0000 O   0  0  0  0  0  0  0  0  0  0  0  0
    0.9241    8.8995    0.0000 O   0  0  0  0  0  0  0  0  0  0  0  0
    3.5221    4.3995    0.0000 O   0  0  0  0  0  0  0  0  0  0  0  0
    4.8212    6.6495    0.0000 N   0  0  0  0  0  0  0  0  0  0  0  0
    7.4192    5.1495    0.0000 Cl  0  0  0  0  0  0  0  0  0  0  0  0
    0.9241    7.3995    0.0000 C   0  0  0  0  0  0  0  0  0  0  0  0
    2.2231    6.6495    0.0000 C   0  0  3  0  0  0  0  0  0  0  0  0
    2.2231    5.1495    0.0000 C   0  0  0  0  0  0  0  0  0  0  0  0
    0.9241    4.3995    0.0000 C   0  0  0  0  0  0  0  0  0  0  0  0
   -0.3750    5.1495    0.0000 C   0  0  0  0  0  0  0  0  0  0  0  0
    6.1202    8.8995    0.0000 C   0  0  0  0  0  0  0  0  0  0  0  0
    7.4192    9.6495    0.0000 C   0  0  0  0  0  0  0  0  0  0  0  0
    6.1202    7.3995    0.0000 C   0  0  0  0  0  0  0  0  0  0  0  0
    8.7183    8.8995    0.0000 C   0  0  0  0  0  0  0  0  0  0  0  0
    7.4192    6.6495    0.0000 C   0  0  0  0  0  0  0  0  0  0  0  0
    8.7183    7.3995    0.0000 C   0  0  0  0  0  0  0  0  0  0  0  0
   -1.6740    4.3995    0.0000 C   0  0  0  0  0  0  0  0  0  0  0  0
    3.5221    7.3995    0.0000 C   0  0  0  0  0  0  0  0  0  0  0  0
    3.5221    8.8995    0.0000 C   0  0  0  0  0  0  0  0  0  0  0  0
  1  6  1  0  0  0  0
  1 10  1  0  0  0  0
  2  6  2  0  0  0  0
  3  8  2  0  0  0  0
  4 13  1  0  0  0  0
  4 18  2  0  0  0  0
  5 15  1  0  0  0  0
  6  7  1  0  0  0  0
  7  8  1  0  0  0  0
  7 18  1  0  0  0  0
  8  9  1  0  0  0  0
  9 10  2  0  0  0  0
 10 17  1  0  0  0  0
 11 12  2  0  0  0  0
 11 13  1  0  0  0  0
 12 14  1  0  0  0  0
 13 15  2  0  0  0  0
 14 16  2  0  0  0  0
 15 16  1  0  0  0  0
 18 19  1  0  0  0  0
M  END
