154295
 OpenBabel03021519512D

 17 18  0  0  1  0  0  0  0  0999 V2000
    3.5672    2.2516    0.0000 C   0  0  0  0  0  0  0  0  0  0  0  0
    1.4654    0.7245    0.0000 O   0  0  0  0  0  0  0  0  0  0  0  0
    4.5888    0.9668    0.0000 O   0  0  0  0  0  0  0  0  0  0  0  0
    7.1708    1.6586    0.0000 O   0  0  0  0  0  0  0  0  0  0  0  0
    6.2128   -0.8368    0.0000 N   0  0  0  0  0  0  0  0  0  0  0  0
    6.0560    0.6549    0.0000 C   0  0  0  0  0  0  0  0  0  0  0  0
    8.8109   -0.8368    0.0000 C   0  0  0  0  0  0  0  0  0  0  0  0
    7.5119   -1.5868    0.0000 C   0  0  0  0  0  0  0  0  0  0  0  0
   10.1100   -1.5868    0.0000 C   0  0  0  0  0  0  0  0  0  0  0  0
   10.1100   -3.0868    0.0000 C   0  0  0  0  0  0  0  0  0  0  0  0
    7.5119   -3.0868    0.0000 C   0  0  0  0  0  0  0  0  0  0  0  0
    8.8109   -3.8368    0.0000 C   0  0  0  0  0  0  0  0  0  0  0  0
    4.8425   -1.4469    0.0000 C   0  0  0  0  0  0  0  0  0  0  0  0
    3.8388   -0.3322    0.0000 C   0  0  3  0  0  0  0  0  0  0  0  0
    5.0590    2.4084    0.0000 C   0  0  0  0  0  0  0  0  0  0  0  0
    2.0755    2.0948    0.0000 C   0  0  0  0  0  0  0  0  0  0  0  0
    2.3470   -0.4890    0.0000 C   0  0  0  0  0  0  0  0  0  0  0  0
  1 15  3  0  0  0  0
  1 16  1  0  0  0  0
  2 16  1  0  0  0  0
  2 17  1  0  0  0  0
  3  6  1  0  0  0  0
  3 14  1  0  0  0  0
  4  6  2  0  0  0  0
  5  6  1  0  0  0  0
  5  8  1  0  0  0  0
  5 13  1  0  0  0  0
  7  9  2  0  0  0  0
  7  8  1  0  0  0  0
  8 11  2  0  0  0  0
  9 10  1  0  0  0  0
 10 12  2  0  0  0  0
 11 12  1  0  0  0  0
 13 14  1  0  0  0  0
 14 17  1  0  0  0  0
M  END
