134784
 OpenBabel03021519512D

 13 14  0  0  1  0  0  0  0  0999 V2000
   -0.5661    4.1692    0.0000 O   0  0  0  0  0  0  0  0  0  0  0  0
    0.6475    6.5509    0.0000 O   0  0  0  0  0  0  0  0  0  0  0  0
    3.7511    6.0594    0.0000 O   0  0  0  0  0  0  0  0  0  0  0  0
    0.6475    5.0509    0.0000 C   0  0  0  0  0  0  0  0  0  0  0  0
    1.8610    4.1692    0.0000 C   0  0  0  0  0  0  0  0  0  0  0  0
    1.3975    2.7427    0.0000 C   0  0  3  0  0  0  0  0  0  0  0  0
    3.2876    4.6328    0.0000 C   0  0  0  0  0  0  0  0  0  0  0  0
    4.5011    3.7511    0.0000 C   0  0  0  0  0  0  0  0  0  0  0  0
    5.7146    4.6328    0.0000 C   0  0  3  0  0  0  0  0  0  0  0  0
    5.2511    6.0594    0.0000 C   0  0  0  0  0  0  0  0  0  0  0  0
   -0.1025    2.7427    0.0000 C   0  0  0  0  0  0  0  0  0  0  0  0
    2.2791    1.5291    0.0000 C   0  0  0  0  0  0  0  0  0  0  0  0
    7.1412    4.1692    0.0000 C   0  0  0  0  0  0  0  0  0  0  0  0
  1  4  1  0  0  0  0
  1 11  1  0  0  0  0
  2  4  2  0  0  0  0
  3  7  1  0  0  0  0
  3 10  1  0  0  0  0
  4  5  1  0  0  0  0
  5  7  2  0  0  0  0
  5  6  1  0  0  0  0
  6 11  1  0  0  0  0
  6 12  1  0  0  0  0
  7  8  1  0  0  0  0
  8  9  1  0  0  0  0
  9 10  1  0  0  0  0
  9 13  1  0  0  0  0
M  END
