80141
 OpenBabel03021519512D

 16 18  0  0  0  0  0  0  0  0999 V2000
   -0.7500   -0.7500    0.0000 Cl  0  0  0  0  0  0  0  0  0  0  0  0
   -0.7500   -3.7500    0.0000 Cl  0  0  0  0  0  0  0  0  0  0  0  0
   -3.3481   -0.7500    0.0000 C   0  0  0  0  0  0  0  0  0  0  0  0
   -2.0490   -1.5000    0.0000 C   0  0  0  0  0  0  0  0  0  0  0  0
   -4.6471   -1.5000    0.0000 C   0  0  0  0  0  0  0  0  0  0  0  0
   -6.0737   -1.0365    0.0000 C   0  0  0  0  0  0  0  0  0  0  0  0
   -6.9554   -2.2500    0.0000 C   0  0  0  0  0  0  0  0  0  0  0  0
   -8.4472   -2.4068    0.0000 C   0  0  0  0  0  0  0  0  0  0  0  0
   -9.0573   -3.7771    0.0000 C   0  0  0  0  0  0  0  0  0  0  0  0
   -2.0490   -3.0000    0.0000 C   0  0  0  0  0  0  0  0  0  0  0  0
   -4.6471   -3.0000    0.0000 C   0  0  0  0  0  0  0  0  0  0  0  0
   -6.0737   -3.4635    0.0000 C   0  0  0  0  0  0  0  0  0  0  0  0
   -8.1756   -4.9907    0.0000 C   0  0  0  0  0  0  0  0  0  0  0  0
   -3.3481   -3.7500    0.0000 C   0  0  0  0  0  0  0  0  0  0  0  0
   -6.6838   -4.8339    0.0000 C   0  0  0  0  0  0  0  0  0  0  0  0
  -10.5490   -3.9339    0.0000 N   0  0  0  0  0  0  0  0  0  0  0  0
  1  4  1  0  0  0  0
  2 10  1  0  0  0  0
  3  4  2  0  0  0  0
  3  5  1  0  0  0  0
  4 10  1  0  0  0  0
  5 11  2  0  0  0  0
  5  6  1  0  0  0  0
  6  7  1  0  0  0  0
  7 12  2  0  0  0  0
  7  8  1  0  0  0  0
  8  9  2  0  0  0  0
  9 13  1  0  0  0  0
  9 16  1  0  0  0  0
 10 14  2  0  0  0  0
 11 14  1  0  0  0  0
 11 12  1  0  0  0  0
 12 15  1  0  0  0  0
 13 15  2  0  0  0  0
M  END
