204262
 OpenBabel03021519512D

 25 26  0  0  0  0  0  0  0  0999 V2000
  -14.8470   -8.8724    0.0000 Cl  0  0  0  0  0  0  0  0  0  0  0  0
  -13.8828   -7.7234    0.0000 C   0  0  0  0  0  0  0  0  0  0  0  0
  -12.4056   -7.9838    0.0000 C   0  0  0  0  0  0  0  0  0  0  0  0
  -14.3958   -6.3138    0.0000 C   0  0  0  0  0  0  0  0  0  0  0  0
  -15.8730   -6.0534    0.0000 Cl  0  0  0  0  0  0  0  0  0  0  0  0
  -11.4414   -6.8348    0.0000 C   0  0  0  0  0  0  0  0  0  0  0  0
  -13.4316   -5.1648    0.0000 C   0  0  0  0  0  0  0  0  0  0  0  0
  -11.9544   -5.4252    0.0000 C   0  0  0  0  0  0  0  0  0  0  0  0
   -9.5130   -4.5366    0.0000 C   0  0  0  0  0  0  0  0  0  0  0  0
   -8.5489   -3.3876    0.0000 O   0  0  0  0  0  0  0  0  0  0  0  0
   -9.0000   -5.9462    0.0000 O   0  0  0  0  0  0  0  0  0  0  0  0
   -7.5000   -5.9462    0.0000 C   0  0  0  0  0  0  0  0  0  0  0  0
   -6.7500   -4.6471    0.0000 C   0  0  0  0  0  0  0  0  0  0  0  0
   -6.7500   -7.2452    0.0000 C   0  0  0  0  0  0  0  0  0  0  0  0
   -5.2500   -4.6471    0.0000 C   0  0  0  0  0  0  0  0  0  0  0  0
   -5.2500   -7.2452    0.0000 C   0  0  0  0  0  0  0  0  0  0  0  0
   -4.5000   -5.9462    0.0000 C   0  0  0  0  0  0  0  0  0  0  0  0
   -3.4511   -3.3876    0.0000 S   0  0  0  0  0  0  0  0  0  0  0  0
   -2.4870   -4.5366    0.0000 C   0  0  0  0  0  0  0  0  0  0  0  0
  -10.9902   -4.2762    0.0000 N   0  0  0  0  0  0  0  0  0  0  0  0
   -3.0000   -5.9462    0.0000 N   0  0  0  0  0  0  0  0  0  0  0  0
   -1.0098   -4.2761    0.0000 N   0  0  0  0  0  0  0  0  0  0  0  0
   -0.0456   -5.4252    0.0000 C   0  0  0  0  0  0  0  0  0  0  0  0
   -0.5586   -6.8348    0.0000 C   0  0  0  0  0  0  0  0  0  0  0  0
   -2.0358   -7.0952    0.0000 C   0  0  0  0  0  0  0  0  0  0  0  0
  1  2  1  0  0  0  0
  2  3  2  0  0  0  0
  2  4  1  0  0  0  0
  3  6  1  0  0  0  0
  4  5  1  0  0  0  0
  4  7  2  0  0  0  0
  6  8  2  0  0  0  0
  7  8  1  0  0  0  0
  8 20  1  0  0  0  0
  9 11  1  0  0  0  0
  9 10  2  0  0  0  0
  9 20  1  0  0  0  0
 11 12  1  0  0  0  0
 12 13  2  0  0  0  0
 12 14  1  0  0  0  0
 13 15  1  0  0  0  0
 14 16  2  0  0  0  0
 15 17  2  0  0  0  0
 16 17  1  0  0  0  0
 17 21  1  0  0  0  0
 18 19  2  0  0  0  0
 19 21  1  0  0  0  0
 19 22  1  0  0  0  0
 22 23  1  0  0  0  0
 23 24  1  0  0  0  0
 24 25  2  0  0  0  0
M  END
