50688
 OpenBabel03021519512D

 25 27  0  0  0  0  0  0  0  0999 V2000
   -2.9731   -3.6495    0.0000 Cl  0  0  0  0  0  0  0  0  0  0  0  0
   -5.5711   -0.6495    0.0000 C   0  0  0  0  0  0  0  0  0  0  0  0
   -4.2721   -1.3995    0.0000 C   0  0  0  0  0  0  0  0  0  0  0  0
   -6.8702   -1.3995    0.0000 C   0  0  0  0  0  0  0  0  0  0  0  0
   -4.2721   -2.8995    0.0000 C   0  0  0  0  0  0  0  0  0  0  0  0
   -6.8702   -2.8995    0.0000 C   0  0  0  0  0  0  0  0  0  0  0  0
   -5.5711   -3.6495    0.0000 C   0  0  0  0  0  0  0  0  0  0  0  0
   -9.4683    3.1005    0.0000 C   0  0  0  0  0  0  0  0  0  0  0  0
  -10.7673    3.8505    0.0000 C   0  0  0  0  0  0  0  0  0  0  0  0
   -9.4683    1.6005    0.0000 C   0  0  0  0  0  0  0  0  0  0  0  0
  -10.7673    5.3505    0.0000 C   0  0  0  0  0  0  0  0  0  0  0  0
  -12.0664    6.1005    0.0000 C   0  0  0  0  0  0  0  0  0  0  0  0
  -10.7673    0.8505    0.0000 C   0  0  0  0  0  0  0  0  0  0  0  0
  -12.0664    3.1005    0.0000 C   0  0  0  0  0  0  0  0  0  0  0  0
  -13.3654    5.3505    0.0000 C   0  0  0  0  0  0  0  0  0  0  0  0
  -12.0663    1.6005    0.0000 C   0  0  0  0  0  0  0  0  0  0  0  0
  -13.3654    3.8505    0.0000 C   0  0  0  0  0  0  0  0  0  0  0  0
  -10.7673   -0.6495    0.0000 O   0  0  0  0  0  0  0  0  0  0  0  0
   -8.1692    0.8505    0.0000 C   0  0  0  0  0  0  0  0  0  0  0  0
   -6.8702    1.6005    0.0000 O   0  0  0  0  0  0  0  0  0  0  0  0
   -8.1692   -0.6495    0.0000 N   0  0  0  0  0  0  0  0  0  0  0  0
   -8.1692   -3.6495    0.0000 O   0  0  0  0  0  0  0  0  0  0  0  0
   -8.1692   -5.1495    0.0000 C   0  0  0  0  0  0  0  0  0  0  0  0
   -2.9731   -0.6495    0.0000 O   0  0  0  0  0  0  0  0  0  0  0  0
   -1.6740   -1.3995    0.0000 C   0  0  0  0  0  0  0  0  0  0  0  0
  1  5  1  0  0  0  0
  2  3  2  0  0  0  0
  2  4  1  0  0  0  0
  3  5  1  0  0  0  0
  3 24  1  0  0  0  0
  4  6  2  0  0  0  0
  4 21  1  0  0  0  0
  5  7  2  0  0  0  0
  6  7  1  0  0  0  0
  6 22  1  0  0  0  0
  8 10  2  0  0  0  0
  8  9  1  0  0  0  0
  9 14  2  0  0  0  0
  9 11  1  0  0  0  0
 10 13  1  0  0  0  0
 10 19  1  0  0  0  0
 11 12  2  0  0  0  0
 12 15  1  0  0  0  0
 13 16  2  0  0  0  0
 13 18  1  0  0  0  0
 14 17  1  0  0  0  0
 14 16  1  0  0  0  0
 15 17  2  0  0  0  0
 19 20  2  0  0  0  0
 19 21  1  0  0  0  0
 22 23  1  0  0  0  0
 24 25  1  0  0  0  0
M  END
