170955
 OpenBabel03021519512D

 22 25  0  0  1  0  0  0  0  0999 V2000
   -4.6471    9.7500    0.0000 N   0  0  0  0  0  0  0  0  0  0  0  0
   -3.3481    9.0000    0.0000 C   0  0  0  0  0  0  0  0  0  0  0  0
   -3.3481    7.5000    0.0000 C   0  0  0  0  0  0  0  0  0  0  0  0
   -4.6471    6.7500    0.0000 C   0  0  0  0  0  0  0  0  0  0  0  0
   -5.9462    7.5000    0.0000 C   0  0  0  0  0  0  0  0  0  0  0  0
   -5.9462    9.0000    0.0000 C   0  0  0  0  0  0  0  0  0  0  0  0
   -2.0490    5.2500    0.0000 C   0  0  0  0  0  0  0  0  0  0  0  0
   -0.7500    4.5000    0.0000 C   0  0  0  0  0  0  0  0  0  0  0  0
   -3.3481    4.5000    0.0000 C   0  0  0  0  0  0  0  0  0  0  0  0
   -4.6471    5.2500    0.0000 C   0  0  0  0  0  0  0  0  0  0  0  0
   -5.9462    4.5000    0.0000 C   0  0  0  0  0  0  0  0  0  0  0  0
   -7.2452    5.2500    0.0000 C   0  0  0  0  0  0  0  0  0  0  0  0
   -8.5442    4.5000    0.0000 C   0  0  0  0  0  0  0  0  0  0  0  0
   -0.7500    3.0000    0.0000 C   0  0  0  0  0  0  0  0  0  0  0  0
   -3.3481    3.0000    0.0000 C   0  0  0  0  0  0  0  0  0  0  0  0
   -5.9462    3.0000    0.0000 C   0  0  0  0  0  0  0  0  0  0  0  0
   -8.5442    3.0000    0.0000 C   0  0  0  0  0  0  0  0  0  0  0  0
   -2.0490    2.2500    0.0000 C   0  0  0  0  0  0  0  0  0  0  0  0
   -4.6471    2.2500    0.0000 C   0  0  3  0  0  0  0  0  0  0  0  0
   -7.2452    2.2500    0.0000 C   0  0  0  0  0  0  0  0  0  0  0  0
   -4.6471   11.2500    0.0000 C   0  0  0  0  0  0  0  0  0  0  0  0
   -4.6471    0.7500    0.0000 O   0  0  0  0  0  0  0  0  0  0  0  0
  1  2  1  0  0  0  0
  1  6  1  0  0  0  0
  1 21  1  0  0  0  0
  2  3  1  0  0  0  0
  3  4  1  0  0  0  0
  4 10  2  0  0  0  0
  4  5  1  0  0  0  0
  5  6  1  0  0  0  0
  7  8  2  0  0  0  0
  7  9  1  0  0  0  0
  8 14  1  0  0  0  0
  9 15  2  0  0  0  0
  9 10  1  0  0  0  0
 10 11  1  0  0  0  0
 11 16  2  0  0  0  0
 11 12  1  0  0  0  0
 12 13  2  0  0  0  0
 13 17  1  0  0  0  0
 14 18  2  0  0  0  0
 15 18  1  0  0  0  0
 15 19  1  0  0  0  0
 16 19  1  0  0  0  0
 16 20  1  0  0  0  0
 17 20  2  0  0  0  0
 19 22  1  0  0  0  0
M  END
