37408
 OpenBabel03021519512D

 12 13  0  0  0  0  0  0  0  0999 V2000
   -3.1330    0.7300    0.0000 O   0  0  0  0  0  0  0  0  0  0  0  0
   -2.6695   -3.1237    0.0000 O   0  0  0  0  0  0  0  0  0  0  0  0
   -5.8586    1.0164    0.0000 C   0  0  0  0  0  0  0  0  0  0  0  0
   -4.5596    0.2664    0.0000 C   0  0  0  0  0  0  0  0  0  0  0  0
   -7.1577    0.2664    0.0000 C   0  0  0  0  0  0  0  0  0  0  0  0
   -4.5596   -1.2336    0.0000 C   0  0  0  0  0  0  0  0  0  0  0  0
   -7.1577   -1.2336    0.0000 C   0  0  0  0  0  0  0  0  0  0  0  0
   -3.1330   -1.6971    0.0000 C   0  0  0  0  0  0  0  0  0  0  0  0
   -2.2513   -0.4836    0.0000 C   0  0  0  0  0  0  0  0  0  0  0  0
   -5.8586   -1.9836    0.0000 C   0  0  0  0  0  0  0  0  0  0  0  0
   -8.4567    1.0164    0.0000 O   0  0  0  0  0  0  0  0  0  0  0  0
   -5.8586    2.5164    0.0000 O   0  0  0  0  0  0  0  0  0  0  0  0
  1  4  1  0  0  0  0
  1  9  1  0  0  0  0
  2  8  2  0  0  0  0
  3  5  2  0  0  0  0
  3  4  1  0  0  0  0
  3 12  1  0  0  0  0
  4  6  2  0  0  0  0
  5  7  1  0  0  0  0
  5 11  1  0  0  0  0
  6  8  1  0  0  0  0
  6 10  1  0  0  0  0
  7 10  2  0  0  0  0
  8  9  1  0  0  0  0
M  END
