49847
 OpenBabel03021519512D

 13 14  0  0  0  0  0  0  0  0999 V2000
   -6.9399   -1.0365    0.0000 S   0  0  0  0  0  0  0  0  0  0  0  0
   -4.5583   -0.7500    0.0000 O   0  0  0  0  0  0  0  0  0  0  0  0
   -2.1766   -1.0365    0.0000 S   0  0  0  0  0  0  0  0  0  0  0  0
   -0.7500   -1.5000    0.0000 C   0  0  0  0  0  0  0  0  0  0  0  0
   -0.7500   -3.0000    0.0000 C   0  0  0  0  0  0  0  0  0  0  0  0
   -2.1766   -3.4635    0.0000 C   0  0  0  0  0  0  0  0  0  0  0  0
   -3.0583   -2.2500    0.0000 C   0  0  0  0  0  0  0  0  0  0  0  0
   -6.0583   -2.2500    0.0000 C   0  0  0  0  0  0  0  0  0  0  0  0
   -6.9399   -3.4635    0.0000 C   0  0  0  0  0  0  0  0  0  0  0  0
   -8.3665   -3.0000    0.0000 C   0  0  0  0  0  0  0  0  0  0  0  0
   -8.3665   -1.5000    0.0000 C   0  0  0  0  0  0  0  0  0  0  0  0
   -4.5583   -2.2500    0.0000 As  0  0  3  0  0  0  0  0  0  0  0  0
   -4.5583   -3.7500    0.0000 O   0  0  0  0  0  0  0  0  0  0  0  0
  1  8  1  0  0  0  0
  1 11  1  0  0  0  0
  2 12  2  0  0  0  0
  3  4  1  0  0  0  0
  3  7  1  0  0  0  0
  4  5  2  0  0  0  0
  5  6  1  0  0  0  0
  6  7  2  0  0  0  0
  7 12  1  0  0  0  0
  8  9  2  0  0  0  0
  8 12  1  0  0  0  0
  9 10  1  0  0  0  0
 10 11  2  0  0  0  0
 12 13  1  0  0  0  0
M  END
