49652
 OpenBabel03021519512D

 17 18  0  0  0  0  0  0  0  0999 V2000
   11.1423    3.0000    0.0000 N   0  0  0  0  0  0  0  0  0  0  0  0
   11.1423    1.5000    0.0000 C   0  0  0  0  0  0  0  0  0  0  0  0
    9.8433    0.7500    0.0000 C   0  0  0  0  0  0  0  0  0  0  0  0
    8.5442    1.5000    0.0000 C   0  0  0  0  0  0  0  0  0  0  0  0
    8.5442    3.0000    0.0000 C   0  0  0  0  0  0  0  0  0  0  0  0
    9.8433    3.7500    0.0000 C   0  0  0  0  0  0  0  0  0  0  0  0
    2.0490    3.7500    0.0000 C   0  0  0  0  0  0  0  0  0  0  0  0
    3.3481    3.0000    0.0000 C   0  0  0  0  0  0  0  0  0  0  0  0
    0.7500    3.0000    0.0000 C   0  0  0  0  0  0  0  0  0  0  0  0
    3.3481    1.5000    0.0000 C   0  0  0  0  0  0  0  0  0  0  0  0
    0.7500    1.5000    0.0000 C   0  0  0  0  0  0  0  0  0  0  0  0
    2.0490    0.7500    0.0000 C   0  0  0  0  0  0  0  0  0  0  0  0
    4.6471    0.7500    0.0000 O   0  0  0  0  0  0  0  0  0  0  0  0
    4.6471    3.7500    0.0000 C   0  0  0  0  0  0  0  0  0  0  0  0
    4.6471    5.2500    0.0000 O   0  0  0  0  0  0  0  0  0  0  0  0
    5.9462    3.0000    0.0000 C   0  0  0  0  0  0  0  0  0  0  0  0
    7.2452    3.7500    0.0000 C   0  0  0  0  0  0  0  0  0  0  0  0
  1  6  2  0  0  0  0
  1  2  1  0  0  0  0
  2  3  2  0  0  0  0
  3  4  1  0  0  0  0
  4  5  2  0  0  0  0
  5  6  1  0  0  0  0
  5 17  1  0  0  0  0
  7  9  2  0  0  0  0
  7  8  1  0  0  0  0
  8 10  2  0  0  0  0
  8 14  1  0  0  0  0
  9 11  1  0  0  0  0
 10 12  1  0  0  0  0
 10 13  1  0  0  0  0
 11 12  2  0  0  0  0
 14 15  2  0  0  0  0
 14 16  1  0  0  0  0
 16 17  2  0  0  0  0
M  END
