281639
 OpenBabel03021519512D

 13 13  0  0  0  0  0  0  0  0999 V2000
   -0.6759    1.7530    0.0000 H   0  0  0  0  0  0  0  0  0  0  0  0
   -3.5824    0.2691    0.0000 H   0  0  0  0  0  0  0  0  0  0  0  0
   -0.9094    0.2713    0.0000 N   0  0  0  0  0  0  0  0  0  0  0  0
   -2.2453   -0.4108    0.0000 N   0  0  0  0  0  0  0  0  0  0  0  0
    0.1521   -0.7885    0.0000 C   0  0  0  0  0  0  0  0  0  0  0  0
   -2.0095   -1.8921    0.0000 C   0  0  0  0  0  0  0  0  0  0  0  0
   -3.0693   -2.9536    0.0000 O   0  0  0  0  0  0  0  0  0  0  0  0
   -0.5278   -2.1256    0.0000 C   0  0  0  0  0  0  0  0  0  0  0  0
    1.2250    2.0131    0.0000 O   0  0  0  0  0  0  0  0  0  0  0  0
    2.1699    0.8481    0.0000 C   0  0  0  0  0  0  0  0  0  0  0  0
    1.6335   -0.5527    0.0000 C   0  0  0  0  0  0  0  0  0  0  0  0
    3.6513    1.0840    0.0000 N   0  0  0  0  0  0  0  0  0  0  0  0
    4.1877    2.4848    0.0000 N   0  0  0  0  0  0  0  0  0  0  0  0
  1  3  1  0  0  0  0
  2  4  1  0  0  0  0
  3  5  1  0  0  0  0
  3  4  1  0  0  0  0
  4  6  1  0  0  0  0
  5  8  2  0  0  0  0
  5 11  1  0  0  0  0
  6  8  1  0  0  0  0
  6  7  2  0  0  0  0
  9 10  2  0  0  0  0
 10 11  1  0  0  0  0
 10 12  1  0  0  0  0
 12 13  1  0  0  0  0
M  END
