4429
 OpenBabel03021519512D

 22 24  0  0  0  0  0  0  0  0999 V2000
   -4.5000   -4.6471    0.0000 C   0  0  0  0  0  0  0  0  0  0  0  0
   -5.2500   -5.9462    0.0000 N   0  0  0  0  0  0  0  0  0  0  0  0
   -4.5000   -7.2452    0.0000 C   0  0  0  0  0  0  0  0  0  0  0  0
   -3.0000   -7.2452    0.0000 N   0  0  0  0  0  0  0  0  0  0  0  0
   -2.2500   -5.9462    0.0000 C   0  0  0  0  0  0  0  0  0  0  0  0
   -3.0000   -4.6471    0.0000 N   0  0  0  0  0  0  0  0  0  0  0  0
   -9.7500   -5.9462    0.0000 C   0  0  0  0  0  0  0  0  0  0  0  0
   -9.0000   -7.2452    0.0000 N   0  0  0  0  0  0  0  0  0  0  0  0
   -7.5000   -7.2452    0.0000 C   0  0  0  0  0  0  0  0  0  0  0  0
   -6.7500   -5.9462    0.0000 N   0  0  0  0  0  0  0  0  0  0  0  0
   -7.5000   -4.6471    0.0000 C   0  0  0  0  0  0  0  0  0  0  0  0
   -9.0000   -4.6471    0.0000 N   0  0  0  0  0  0  0  0  0  0  0  0
   -5.2500   -3.3481    0.0000 C   0  0  0  0  0  0  0  0  0  0  0  0
   -6.7500   -3.3481    0.0000 C   0  0  0  0  0  0  0  0  0  0  0  0
   -4.5000   -2.0490    0.0000 C   0  0  0  0  0  0  0  0  0  0  0  0
   -5.2500   -0.7500    0.0000 C   0  0  0  0  0  0  0  0  0  0  0  0
   -6.7500   -0.7500    0.0000 C   0  0  0  0  0  0  0  0  0  0  0  0
   -7.5000   -2.0490    0.0000 C   0  0  0  0  0  0  0  0  0  0  0  0
  -11.2500   -5.9462    0.0000 N   0  0  0  0  0  0  0  0  0  0  0  0
   -5.2500   -8.5442    0.0000 N   0  0  0  0  0  0  0  0  0  0  0  0
   -6.7500   -8.5442    0.0000 N   0  0  0  0  0  0  0  0  0  0  0  0
   -0.7500   -5.9462    0.0000 N   0  0  0  0  0  0  0  0  0  0  0  0
  1  2  2  0  0  0  0
  1  6  1  0  0  0  0
  1 13  1  0  0  0  0
  2  3  1  0  0  0  0
  3  4  2  0  0  0  0
  3 20  1  0  0  0  0
  4  5  1  0  0  0  0
  5  6  2  0  0  0  0
  5 22  1  0  0  0  0
  7  8  2  0  0  0  0
  7 12  1  0  0  0  0
  7 19  1  0  0  0  0
  8  9  1  0  0  0  0
  9 10  2  0  0  0  0
  9 21  1  0  0  0  0
 10 11  1  0  0  0  0
 11 12  2  0  0  0  0
 11 14  1  0  0  0  0
 13 14  2  0  0  0  0
 13 15  1  0  0  0  0
 14 18  1  0  0  0  0
 15 16  2  0  0  0  0
 16 17  1  0  0  0  0
 17 18  2  0  0  0  0
M  END
