91356
 OpenBabel03021519512D

 25 27  0  0  1  0  0  0  0  0999 V2000
   -1.0245    3.2745    0.0000 Cl  0  0  0  0  0  0  0  0  0  0  0  0
    8.0688    8.5245    0.0000 N   0  0  0  0  0  0  0  0  0  0  0  0
   10.6668   10.0245    0.0000 N   0  0  0  0  0  0  0  0  0  0  0  0
   11.9659   12.2745    0.0000 C   0  0  0  0  0  0  0  0  0  0  0  0
   11.9659   10.7745    0.0000 C   0  0  0  0  0  0  0  0  0  0  0  0
   13.2649   13.0245    0.0000 C   0  0  0  0  0  0  0  0  0  0  0  0
   14.5639   12.2745    0.0000 C   0  0  0  0  0  0  0  0  0  0  0  0
   13.2649   10.0245    0.0000 C   0  0  0  0  0  0  0  0  0  0  0  0
   14.5639   10.7745    0.0000 C   0  0  0  0  0  0  0  0  0  0  0  0
    9.3678   10.7745    0.0000 C   0  0  0  0  0  0  0  0  0  0  0  0
    8.0688   10.0245    0.0000 C   0  0  0  0  0  0  0  0  0  0  0  0
   10.6668    8.5245    0.0000 C   0  0  0  0  0  0  0  0  0  0  0  0
    9.3678    7.7745    0.0000 C   0  0  0  0  0  0  0  0  0  0  0  0
    1.5736    6.2745    0.0000 C   0  0  0  0  0  0  0  0  0  0  0  0
    2.8726    5.5245    0.0000 C   0  0  0  0  0  0  0  0  0  0  0  0
    0.2745    5.5245    0.0000 C   0  0  0  0  0  0  0  0  0  0  0  0
    2.8726    4.0245    0.0000 C   0  0  0  0  0  0  0  0  0  0  0  0
    0.2745    4.0245    0.0000 C   0  0  0  0  0  0  0  0  0  0  0  0
    1.5736    3.2745    0.0000 C   0  0  0  0  0  0  0  0  0  0  0  0
    4.1716    6.2745    0.0000 O   0  0  0  0  0  0  0  0  0  0  0  0
    4.1716    7.7745    0.0000 C   0  0  0  0  0  0  0  0  0  0  0  0
    5.4707    8.5245    0.0000 C   0  0  3  0  0  0  0  0  0  0  0  0
    5.4707   10.0245    0.0000 O   0  0  0  0  0  0  0  0  0  0  0  0
    6.7697    7.7745    0.0000 C   0  0  0  0  0  0  0  0  0  0  0  0
   15.8630   10.0245    0.0000 C   0  0  0  0  0  0  0  0  0  0  0  0
  1 18  1  0  0  0  0
  2 11  1  0  0  0  0
  2 13  1  0  0  0  0
  2 24  1  0  0  0  0
  3  5  1  0  0  0  0
  3 10  1  0  0  0  0
  3 12  1  0  0  0  0
  4  6  2  0  0  0  0
  4  5  1  0  0  0  0
  5  8  2  0  0  0  0
  6  7  1  0  0  0  0
  7  9  2  0  0  0  0
  8  9  1  0  0  0  0
  9 25  1  0  0  0  0
 10 11  1  0  0  0  0
 12 13  1  0  0  0  0
 14 16  2  0  0  0  0
 14 15  1  0  0  0  0
 15 17  2  0  0  0  0
 15 20  1  0  0  0  0
 16 18  1  0  0  0  0
 17 19  1  0  0  0  0
 18 19  2  0  0  0  0
 20 21  1  0  0  0  0
 21 22  1  0  0  0  0
 22 23  1  0  0  0  0
 22 24  1  0  0  0  0
M  END
