50654
 OpenBabel03021519512D

 30 34  0  0  0  0  0  0  0  0999 V2000
  -12.5569   -8.1344    0.0000 H   0  0  0  0  0  0  0  0  0  0  0  0
  -12.0934   -9.5610    0.0000 N   0  0  0  0  0  0  0  0  0  0  0  0
   -8.0688   -7.0245    0.0000 C   0  0  0  0  0  0  0  0  0  0  0  0
   -9.3678   -7.7745    0.0000 C   0  0  0  0  0  0  0  0  0  0  0  0
   -6.7697   -7.7745    0.0000 C   0  0  0  0  0  0  0  0  0  0  0  0
   -6.7697   -9.2745    0.0000 C   0  0  0  0  0  0  0  0  0  0  0  0
   -9.3678   -9.2745    0.0000 C   0  0  0  0  0  0  0  0  0  0  0  0
   -8.0687  -10.0245    0.0000 C   0  0  0  0  0  0  0  0  0  0  0  0
  -10.6668  -10.0245    0.0000 C   0  0  0  0  0  0  0  0  0  0  0  0
   -8.0687  -11.5245    0.0000 C   0  0  0  0  0  0  0  0  0  0  0  0
  -10.6668  -11.5245    0.0000 C   0  0  0  0  0  0  0  0  0  0  0  0
   -9.3678  -12.2745    0.0000 C   0  0  0  0  0  0  0  0  0  0  0  0
  -12.0934  -11.9881    0.0000 C   0  0  0  0  0  0  0  0  0  0  0  0
  -14.4669  -10.9313    0.0000 C   0  0  0  0  0  0  0  0  0  0  0  0
  -15.0770  -12.3016    0.0000 C   0  0  0  0  0  0  0  0  0  0  0  0
  -12.9751  -10.7745    0.0000 C   0  0  0  0  0  0  0  0  0  0  0  0
  -14.1953  -13.5152    0.0000 C   0  0  0  0  0  0  0  0  0  0  0  0
  -12.7035  -13.3584    0.0000 C   0  0  0  0  0  0  0  0  0  0  0  0
   -2.8726   -5.5245    0.0000 C   0  0  0  0  0  0  0  0  0  0  0  0
   -1.5736   -4.7745    0.0000 C   0  0  0  0  0  0  0  0  0  0  0  0
   -2.8726   -7.0245    0.0000 C   0  0  0  0  0  0  0  0  0  0  0  0
   -0.2745   -5.5245    0.0000 C   0  0  0  0  0  0  0  0  0  0  0  0
   -1.5736   -7.7745    0.0000 C   0  0  0  0  0  0  0  0  0  0  0  0
   -0.2745   -7.0245    0.0000 C   0  0  0  0  0  0  0  0  0  0  0  0
   -8.0688   -5.5245    0.0000 O   0  0  0  0  0  0  0  0  0  0  0  0
   -5.4707   -7.0245    0.0000 C   0  0  0  0  0  0  0  0  0  0  0  0
   -5.4707   -5.5245    0.0000 O   0  0  0  0  0  0  0  0  0  0  0  0
   -4.1716   -7.7745    0.0000 N   0  0  0  0  0  0  0  0  0  0  0  0
    1.0245   -4.7745    0.0000 O   0  0  0  0  0  0  0  0  0  0  0  0
    1.0245   -3.2745    0.0000 C   0  0  0  0  0  0  0  0  0  0  0  0
  1  2  1  0  0  0  0
  2  9  1  0  0  0  0
  2 16  1  0  0  0  0
  3  4  2  0  0  0  0
  3  5  1  0  0  0  0
  3 25  1  0  0  0  0
  4  7  1  0  0  0  0
  5  6  2  0  0  0  0
  5 26  1  0  0  0  0
  6  8  1  0  0  0  0
  7  8  2  0  0  0  0
  7  9  1  0  0  0  0
  8 10  1  0  0  0  0
  9 11  2  0  0  0  0
 10 12  2  0  0  0  0
 11 12  1  0  0  0  0
 11 13  1  0  0  0  0
 13 16  2  0  0  0  0
 13 18  1  0  0  0  0
 14 15  2  0  0  0  0
 14 16  1  0  0  0  0
 15 17  1  0  0  0  0
 17 18  2  0  0  0  0
 19 20  2  0  0  0  0
 19 21  1  0  0  0  0
 20 22  1  0  0  0  0
 21 23  2  0  0  0  0
 21 28  1  0  0  0  0
 22 24  2  0  0  0  0
 22 29  1  0  0  0  0
 23 24  1  0  0  0  0
 26 27  2  0  0  0  0
 26 28  1  0  0  0  0
 29 30  1  0  0  0  0
M  END
