39984
 OpenBabel03021519512D

 22 24  0  0  0  0  0  0  0  0999 V2000
   -7.5197    1.9755    0.0000 N   0  0  0  0  0  0  0  0  0  0  0  0
   -2.3235   -2.5245    0.0000 Cl  0  0  0  0  0  0  0  0  0  0  0  0
   -4.9216    0.4755    0.0000 C   0  0  0  0  0  0  0  0  0  0  0  0
   -3.6226   -0.2745    0.0000 C   0  0  0  0  0  0  0  0  0  0  0  0
   -6.2207   -0.2745    0.0000 C   0  0  0  0  0  0  0  0  0  0  0  0
   -3.6226   -1.7745    0.0000 C   0  0  0  0  0  0  0  0  0  0  0  0
   -6.2207   -1.7745    0.0000 C   0  0  0  0  0  0  0  0  0  0  0  0
   -7.5197    0.4755    0.0000 C   0  0  0  0  0  0  0  0  0  0  0  0
   -8.8187   -0.2745    0.0000 C   0  0  0  0  0  0  0  0  0  0  0  0
   -4.9216   -2.5245    0.0000 C   0  0  0  0  0  0  0  0  0  0  0  0
  -10.1178    0.4755    0.0000 C   0  0  0  0  0  0  0  0  0  0  0  0
  -10.1178    1.9755    0.0000 C   0  0  0  0  0  0  0  0  0  0  0  0
   -8.8188    4.2255    0.0000 C   0  0  0  0  0  0  0  0  0  0  0  0
   -8.8188    2.7255    0.0000 C   0  0  0  0  0  0  0  0  0  0  0  0
  -10.1178    4.9755    0.0000 C   0  0  0  0  0  0  0  0  0  0  0  0
  -11.4168    4.2255    0.0000 C   0  0  0  0  0  0  0  0  0  0  0  0
  -11.4168    2.7255    0.0000 C   0  0  0  0  0  0  0  0  0  0  0  0
  -12.7159    4.9755    0.0000 O   0  0  0  0  0  0  0  0  0  0  0  0
  -12.7159    6.4755    0.0000 C   0  0  0  0  0  0  0  0  0  0  0  0
  -11.4168   -0.2745    0.0000 C   0  0  0  0  0  0  0  0  0  0  0  0
  -12.7159    0.4755    0.0000 O   0  0  0  0  0  0  0  0  0  0  0  0
  -11.4168   -1.7745    0.0000 O   0  0  0  0  0  0  0  0  0  0  0  0
  1  8  2  0  0  0  0
  1 14  1  0  0  0  0
  2  6  1  0  0  0  0
  3  4  2  0  0  0  0
  3  5  1  0  0  0  0
  4  6  1  0  0  0  0
  5  7  2  0  0  0  0
  5  8  1  0  0  0  0
  6 10  2  0  0  0  0
  7 10  1  0  0  0  0
  8  9  1  0  0  0  0
  9 11  2  0  0  0  0
 11 12  1  0  0  0  0
 11 20  1  0  0  0  0
 12 14  2  0  0  0  0
 12 17  1  0  0  0  0
 13 15  2  0  0  0  0
 13 14  1  0  0  0  0
 15 16  1  0  0  0  0
 16 17  2  0  0  0  0
 16 18  1  0  0  0  0
 18 19  1  0  0  0  0
 20 21  2  0  0  0  0
 20 22  1  0  0  0  0
M  END
