73295
 OpenBabel03021519512D

 19 20  0  0  0  0  0  0  0  0999 V2000
    2.3393    2.5425    0.0000 O   0  0  0  0  0  0  0  0  0  0  0  0
    3.6352    0.2908    0.0000 N   0  0  0  0  0  0  0  0  0  0  0  0
    4.9374    2.5390    0.0000 N   0  0  0  0  0  0  0  0  0  0  0  0
    4.9394    4.0390    0.0000 H   0  0  0  0  0  0  0  0  0  0  0  0
    4.9312   -1.9610    0.0000 O   0  0  0  0  0  0  0  0  0  0  0  0
    7.6626    2.2488    0.0000 N   0  0  0  0  0  0  0  0  0  0  0  0
    8.5426    1.0341    0.0000 N   0  0  0  0  0  0  0  0  0  0  0  0
    3.6373    1.7908    0.0000 C   0  0  0  0  0  0  0  0  0  0  0  0
    6.2354    1.7872    0.0000 C   0  0  0  0  0  0  0  0  0  0  0  0
    6.2333    0.2872    0.0000 C   0  0  0  0  0  0  0  0  0  0  0  0
    4.9333   -0.4610    0.0000 C   0  0  0  0  0  0  0  0  0  0  0  0
    7.6593   -0.1782    0.0000 C   0  0  0  0  0  0  0  0  0  0  0  0
    2.3352   -0.4575    0.0000 C   0  0  0  0  0  0  0  0  0  0  0  0
    8.1281    3.6748    0.0000 C   0  0  0  0  0  0  0  0  0  0  0  0
    8.1209   -1.6055    0.0000 C   0  0  0  0  0  0  0  0  0  0  0  0
    7.1156   -2.7188    0.0000 O   0  0  0  0  0  0  0  0  0  0  0  0
    9.5876   -1.9193    0.0000 O   0  0  0  0  0  0  0  0  0  0  0  0
   10.5929   -0.8060    0.0000 C   0  0  0  0  0  0  0  0  0  0  0  0
   10.1313    0.6212    0.0000 C   0  0  0  0  0  0  0  0  0  0  0  0
  1  8  2  0  0  0  0
  2  8  1  0  0  0  0
  2 11  1  0  0  0  0
  2 13  1  0  0  0  0
  3  8  1  0  0  0  0
  3  9  1  0  0  0  0
  3  4  1  0  0  0  0
  5 11  2  0  0  0  0
  6  7  1  0  0  0  0
  6  9  1  0  0  0  0
  6 14  1  0  0  0  0
  7 12  2  0  0  0  0
  9 10  2  0  0  0  0
 10 11  1  0  0  0  0
 10 12  1  0  0  0  0
 12 15  1  0  0  0  0
 15 16  2  0  0  0  0
 15 17  1  0  0  0  0
 17 18  1  0  0  0  0
 18 19  1  0  0  0  0
M  END
