191029
 OpenBabel03021519512D

 13 13  0  0  1  0  0  0  0  0999 V2000
    0.2626    6.4549    0.0000 N   0  0  0  0  0  0  0  0  0  0  0  0
   -1.0364    7.2049    0.0000 C   0  0  0  0  0  0  0  0  0  0  0  0
   -2.3354    6.4549    0.0000 C   0  0  0  0  0  0  0  0  0  0  0  0
   -2.3354    4.9549    0.0000 C   0  0  0  0  0  0  0  0  0  0  0  0
   -1.0364    4.2049    0.0000 C   0  0  3  0  0  0  0  0  0  0  0  0
    0.2626    4.9549    0.0000 C   0  0  0  0  0  0  0  0  0  0  0  0
   -1.0364    2.7049    0.0000 C   0  0  0  0  0  0  0  0  0  0  0  0
    1.5617    7.2049    0.0000 C   0  0  0  0  0  0  0  0  0  0  0  0
    2.8607    6.4549    0.0000 O   0  0  0  0  0  0  0  0  0  0  0  0
    1.5617    8.7049    0.0000 C   0  0  0  0  0  0  0  0  0  0  0  0
    0.2626    9.4549    0.0000 C   0  0  0  0  0  0  0  0  0  0  0  0
   -1.0364    8.7049    0.0000 C   0  0  0  0  0  0  0  0  0  0  0  0
   -2.3355    9.4549    0.0000 C   0  0  0  0  0  0  0  0  0  0  0  0
  1  2  1  0  0  0  0
  1  6  1  0  0  0  0
  1  8  1  0  0  0  0
  2  3  1  0  0  0  0
  3  4  1  0  0  0  0
  4  5  1  0  0  0  0
  5  6  1  0  0  0  0
  5  7  1  0  0  0  0
  8  9  2  0  0  0  0
  8 10  1  0  0  0  0
 10 11  1  0  0  0  0
 11 12  1  0  0  0  0
 12 13  1  0  0  0  0
M  END
