166596
 OpenBabel03021519512D

 19 22  0  0  0  0  0  0  0  0999 V2000
    2.3753    7.4052    0.0000 N   0  0  0  0  0  0  0  0  0  0  0  0
    3.5888    8.2868    0.0000 N   0  0  0  0  0  0  0  0  0  0  0  0
    4.3388    5.9786    0.0000 N   0  0  0  0  0  0  0  0  0  0  0  0
    6.3024    7.4052    0.0000 O   0  0  0  0  0  0  0  0  0  0  0  0
    5.5524    5.0969    0.0000 N   0  0  0  0  0  0  0  0  0  0  0  0
    9.4060    6.3967    0.0000 S   0  0  0  0  0  0  0  0  0  0  0  0
   10.6195    5.5150    0.0000 C   0  0  0  0  0  0  0  0  0  0  0  0
   10.1560    4.0885    0.0000 C   0  0  0  0  0  0  0  0  0  0  0  0
    8.6560    4.0885    0.0000 C   0  0  0  0  0  0  0  0  0  0  0  0
    8.1925    5.5150    0.0000 C   0  0  0  0  0  0  0  0  0  0  0  0
    6.7659    5.9786    0.0000 C   0  0  0  0  0  0  0  0  0  0  0  0
    4.8024    7.4052    0.0000 C   0  0  0  0  0  0  0  0  0  0  0  0
    2.8388    5.9786    0.0000 C   0  0  0  0  0  0  0  0  0  0  0  0
    1.9572    4.7651    0.0000 C   0  0  0  0  0  0  0  0  0  0  0  0
    0.4654    4.9218    0.0000 C   0  0  0  0  0  0  0  0  0  0  0  0
   -0.4163    3.7083    0.0000 C   0  0  0  0  0  0  0  0  0  0  0  0
    2.5673    3.3947    0.0000 C   0  0  0  0  0  0  0  0  0  0  0  0
    0.1938    2.3380    0.0000 C   0  0  0  0  0  0  0  0  0  0  0  0
    1.6856    2.1812    0.0000 C   0  0  0  0  0  0  0  0  0  0  0  0
  1  2  1  0  0  0  0
  1 13  2  0  0  0  0
  2 12  2  0  0  0  0
  3  5  1  0  0  0  0
  3 12  1  0  0  0  0
  3 13  1  0  0  0  0
  4 11  1  0  0  0  0
  4 12  1  0  0  0  0
  5 11  2  0  0  0  0
  6  7  1  0  0  0  0
  6 10  1  0  0  0  0
  7  8  2  0  0  0  0
  8  9  1  0  0  0  0
  9 10  2  0  0  0  0
 10 11  1  0  0  0  0
 13 14  1  0  0  0  0
 14 17  2  0  0  0  0
 14 15  1  0  0  0  0
 15 16  2  0  0  0  0
 16 18  1  0  0  0  0
 17 19  1  0  0  0  0
 18 19  2  0  0  0  0
M  END
