112965
 OpenBabel03021519512D

 20 21  0  0  0  0  0  0  0  0999 V2000
  -11.4168   -7.7745    0.0000 F   0  0  0  0  0  0  0  0  0  0  0  0
   -1.0245   -9.2745    0.0000 C   0  0  0  0  0  0  0  0  0  0  0  0
    0.2745  -10.0245    0.0000 C   0  0  0  0  0  0  0  0  0  0  0  0
   -2.3235  -10.0245    0.0000 C   0  0  0  0  0  0  0  0  0  0  0  0
    0.2745  -11.5245    0.0000 C   0  0  0  0  0  0  0  0  0  0  0  0
   -2.3235  -11.5245    0.0000 C   0  0  0  0  0  0  0  0  0  0  0  0
   -1.0245  -12.2745    0.0000 C   0  0  0  0  0  0  0  0  0  0  0  0
   -4.9216   -5.5245    0.0000 C   0  0  0  0  0  0  0  0  0  0  0  0
   -6.2207   -4.7745    0.0000 C   0  0  0  0  0  0  0  0  0  0  0  0
   -4.9216   -7.0245    0.0000 C   0  0  0  0  0  0  0  0  0  0  0  0
   -6.2207   -7.7745    0.0000 C   0  0  0  0  0  0  0  0  0  0  0  0
   -7.5197   -5.5245    0.0000 C   0  0  0  0  0  0  0  0  0  0  0  0
   -7.5197   -7.0245    0.0000 C   0  0  0  0  0  0  0  0  0  0  0  0
  -10.1178   -7.0245    0.0000 C   0  0  0  0  0  0  0  0  0  0  0  0
  -10.1178   -5.5245    0.0000 C   0  0  0  0  0  0  0  0  0  0  0  0
  -11.4168   -4.7745    0.0000 O   0  0  0  0  0  0  0  0  0  0  0  0
   -8.8187   -4.7745    0.0000 N   0  0  0  0  0  0  0  0  0  0  0  0
   -8.8187   -3.2745    0.0000 O   0  0  0  0  0  0  0  0  0  0  0  0
   -3.6226   -7.7745    0.0000 C   0  0  0  0  0  0  0  0  0  0  0  0
   -3.6226   -9.2745    0.0000 C   0  0  0  0  0  0  0  0  0  0  0  0
  1 14  1  0  0  0  0
  2  3  2  0  0  0  0
  2  4  1  0  0  0  0
  3  5  1  0  0  0  0
  4  6  2  0  0  0  0
  4 20  1  0  0  0  0
  5  7  2  0  0  0  0
  6  7  1  0  0  0  0
  8 10  2  0  0  0  0
  8  9  1  0  0  0  0
  9 12  2  0  0  0  0
 10 11  1  0  0  0  0
 10 19  1  0  0  0  0
 11 13  2  0  0  0  0
 12 13  1  0  0  0  0
 12 17  1  0  0  0  0
 14 15  1  0  0  0  0
 15 16  2  0  0  0  0
 15 17  1  0  0  0  0
 17 18  1  0  0  0  0
 19 20  2  0  0  0  0
M  END
