35964
 OpenBabel03021519512D

 17 18  0  0  1  0  0  0  0  0999 V2000
    3.1184    7.3538    0.0000 O   0  0  0  0  0  0  0  0  0  0  0  0
    4.3319    4.9721    0.0000 N   0  0  0  0  0  0  0  0  0  0  0  0
    4.7500    2.3320    0.0000 O   0  0  0  0  0  0  0  0  0  0  0  0
    3.1184    5.8538    0.0000 C   0  0  0  0  0  0  0  0  0  0  0  0
    1.9048    4.9721    0.0000 C   0  0  3  0  0  0  0  0  0  0  0  0
    0.4376    5.2840    0.0000 C   0  0  0  0  0  0  0  0  0  0  0  0
   -0.5661    4.1693    0.0000 C   0  0  0  0  0  0  0  0  0  0  0  0
    2.3684    3.5455    0.0000 C   0  0  3  0  0  0  0  0  0  0  0  0
   -0.1026    2.7427    0.0000 C   0  0  0  0  0  0  0  0  0  0  0  0
    3.8684    3.5455    0.0000 C   0  0  0  0  0  0  0  0  0  0  0  0
    1.3647    2.4308    0.0000 C   0  0  0  0  0  0  0  0  0  0  0  0
    5.7585    5.4356    0.0000 C   0  0  0  0  0  0  0  0  0  0  0  0
    6.8732    4.4319    0.0000 O   0  0  0  0  0  0  0  0  0  0  0  0
    8.2998    4.8955    0.0000 C   0  0  0  0  0  0  0  0  0  0  0  0
    9.4145    3.8918    0.0000 O   0  0  0  0  0  0  0  0  0  0  0  0
    8.6116    6.3627    0.0000 N   0  0  0  0  0  0  0  0  0  0  0  0
    7.4969    7.3664    0.0000 C   0  0  0  0  0  0  0  0  0  0  0  0
  1  4  2  0  0  0  0
  2  4  1  0  0  0  0
  2 10  1  0  0  0  0
  2 12  1  0  0  0  0
  3 10  2  0  0  0  0
  4  5  1  0  0  0  0
  5  6  1  0  0  0  0
  5  8  1  0  0  0  0
  6  7  1  0  0  0  0
  7  9  2  0  0  0  0
  8 10  1  0  0  0  0
  8 11  1  0  0  0  0
  9 11  1  0  0  0  0
 12 13  1  0  0  0  0
 13 14  1  0  0  0  0
 14 15  2  0  0  0  0
 14 16  1  0  0  0  0
 16 17  1  0  0  0  0
M  END
