34219
 OpenBabel03021519512D

 21 23  0  0  1  0  0  0  0  0999 V2000
    2.2231    6.6495    0.0000 O   0  0  0  0  0  0  0  0  0  0  0  0
    3.5221    8.8995    0.0000 Cl  0  0  0  0  0  0  0  0  0  0  0  0
    3.5221    4.3995    0.0000 O   0  0  0  0  0  0  0  0  0  0  0  0
    8.8458    8.6130    0.0000 O   0  0  0  0  0  0  0  0  0  0  0  0
    8.8458    6.1860    0.0000 O   0  0  0  0  0  0  0  0  0  0  0  0
    6.1202    8.8995    0.0000 C   0  0  0  0  0  0  0  0  0  0  0  0
    7.4192    8.1495    0.0000 C   0  0  0  0  0  0  0  0  0  0  0  0
    4.8212    8.1495    0.0000 C   0  0  0  0  0  0  0  0  0  0  0  0
    7.4192    6.6495    0.0000 C   0  0  0  0  0  0  0  0  0  0  0  0
    4.8212    6.6495    0.0000 C   0  0  0  0  0  0  0  0  0  0  0  0
    6.1202    5.8995    0.0000 C   0  0  0  0  0  0  0  0  0  0  0  0
    3.5221    5.8995    0.0000 C   0  0  3  0  0  0  0  0  0  0  0  0
    9.7275    7.3995    0.0000 C   0  0  0  0  0  0  0  0  0  0  0  0
    0.9240    5.8995    0.0000 C   0  0  0  0  0  0  0  0  0  0  0  0
    0.9240    4.3995    0.0000 C   0  0  3  0  0  0  0  0  0  0  0  0
    2.2231    3.6495    0.0000 C   0  0  3  0  0  0  0  0  0  0  0  0
   -0.3750    3.6495    0.0000 C   0  0  0  0  0  0  0  0  0  0  0  0
   -1.6740    4.3995    0.0000 C   0  0  0  0  0  0  0  0  0  0  0  0
    2.2231    2.1495    0.0000 C   0  0  0  0  0  0  0  0  0  0  0  0
    0.9240    1.3995    0.0000 C   0  0  0  0  0  0  0  0  0  0  0  0
   -0.3750    2.1495    0.0000 C   0  0  0  0  0  0  0  0  0  0  0  0
  1 12  1  0  0  0  0
  1 14  1  0  0  0  0
  2  8  1  0  0  0  0
  3 12  1  0  0  0  0
  3 16  1  0  0  0  0
  4  7  1  0  0  0  0
  4 13  1  0  0  0  0
  5  9  1  0  0  0  0
  5 13  1  0  0  0  0
  6  8  2  0  0  0  0
  6  7  1  0  0  0  0
  7  9  2  0  0  0  0
  8 10  1  0  0  0  0
  9 11  1  0  0  0  0
 10 11  2  0  0  0  0
 10 12  1  0  0  0  0
 14 15  1  0  0  0  0
 15 16  1  0  0  0  0
 15 17  1  0  0  0  0
 16 19  1  0  0  0  0
 17 18  1  0  0  0  0
 19 20  1  0  0  0  0
 20 21  1  0  0  0  0
M  END
