193528
 OpenBabel03021519512D

 18 18  0  0  0  0  0  0  0  0999 V2000
   -3.2687   -7.2075    0.0000 N   0  0  0  0  0  0  0  0  0  0  0  0
   -5.6825   -7.4612    0.0000 N   0  0  0  0  0  0  0  0  0  0  0  0
   -4.3835   -8.2112    0.0000 C   0  0  0  0  0  0  0  0  0  0  0  0
   -5.3706   -5.9939    0.0000 C   0  0  0  0  0  0  0  0  0  0  0  0
   -3.8789   -5.8371    0.0000 C   0  0  0  0  0  0  0  0  0  0  0  0
   -4.2267   -9.7029    0.0000 S   0  0  0  0  0  0  0  0  0  0  0  0
   -5.4402  -10.5846    0.0000 C   0  0  0  0  0  0  0  0  0  0  0  0
   -1.8015   -7.5193    0.0000 C   0  0  0  0  0  0  0  0  0  0  0  0
   -3.1289   -4.5381    0.0000 C   0  0  0  0  0  0  0  0  0  0  0  0
   -3.8789   -3.2391    0.0000 O   0  0  0  0  0  0  0  0  0  0  0  0
   -6.3743   -4.8792    0.0000 C   0  0  0  0  0  0  0  0  0  0  0  0
   -5.9108   -3.4526    0.0000 O   0  0  0  0  0  0  0  0  0  0  0  0
   -1.6289   -4.5381    0.0000 O   0  0  0  0  0  0  0  0  0  0  0  0
   -0.8789   -3.2391    0.0000 C   0  0  0  0  0  0  0  0  0  0  0  0
    0.6211   -3.2391    0.0000 C   0  0  0  0  0  0  0  0  0  0  0  0
   -7.8416   -5.1911    0.0000 O   0  0  0  0  0  0  0  0  0  0  0  0
   -8.3051   -6.6177    0.0000 C   0  0  0  0  0  0  0  0  0  0  0  0
   -9.7723   -6.9295    0.0000 C   0  0  0  0  0  0  0  0  0  0  0  0
  1  3  1  0  0  0  0
  1  5  1  0  0  0  0
  1  8  1  0  0  0  0
  2  3  2  0  0  0  0
  2  4  1  0  0  0  0
  3  6  1  0  0  0  0
  4  5  2  0  0  0  0
  4 11  1  0  0  0  0
  5  9  1  0  0  0  0
  6  7  1  0  0  0  0
  9 10  2  0  0  0  0
  9 13  1  0  0  0  0
 11 12  2  0  0  0  0
 11 16  1  0  0  0  0
 13 14  1  0  0  0  0
 14 15  1  0  0  0  0
 16 17  1  0  0  0  0
 17 18  1  0  0  0  0
M  END
