178873
 OpenBabel03021519512D

 19 20  0  0  0  0  0  0  0  0999 V2000
    1.5476    1.6320    0.0000 O   0  0  0  0  0  0  0  0  0  0  0  0
    3.4377    3.5221    0.0000 O   0  0  0  0  0  0  0  0  0  0  0  0
   15.3513   -0.7582    0.0000 O   0  0  0  0  0  0  0  0  0  0  0  0
   14.6595   -3.3401    0.0000 O   0  0  0  0  0  0  0  0  0  0  0  0
   14.3476   -1.8729    0.0000 C   0  0  0  0  0  0  0  0  0  0  0  0
   12.8558   -1.7161    0.0000 C   0  0  0  0  0  0  0  0  0  0  0  0
   12.2457   -3.0864    0.0000 C   0  0  0  0  0  0  0  0  0  0  0  0
   13.3605   -4.0901    0.0000 C   0  0  0  0  0  0  0  0  0  0  0  0
    2.9742    2.0955    0.0000 C   0  0  0  0  0  0  0  0  0  0  0  0
    2.9742   -0.3316    0.0000 C   0  0  0  0  0  0  0  0  0  0  0  0
    1.5476    0.1320    0.0000 C   0  0  0  0  0  0  0  0  0  0  0  0
    7.6058   -0.4171    0.0000 C   0  0  0  0  0  0  0  0  0  0  0  0
    8.3558    0.8820    0.0000 C   0  0  0  0  0  0  0  0  0  0  0  0
    9.8558    0.8820    0.0000 C   0  0  0  0  0  0  0  0  0  0  0  0
   10.6058   -0.4171    0.0000 O   0  0  0  0  0  0  0  0  0  0  0  0
   12.1058   -0.4171    0.0000 C   0  0  0  0  0  0  0  0  0  0  0  0
    6.1058   -0.4171    0.0000 O   0  0  0  0  0  0  0  0  0  0  0  0
    5.3558    0.8820    0.0000 C   0  0  0  0  0  0  0  0  0  0  0  0
    3.8558    0.8820    0.0000 C   0  0  0  0  0  0  0  0  0  0  0  0
  1  9  1  0  0  0  0
  1 11  1  0  0  0  0
  2  9  2  0  0  0  0
  3  5  2  0  0  0  0
  4  5  1  0  0  0  0
  4  8  1  0  0  0  0
  5  6  1  0  0  0  0
  6  7  1  0  0  0  0
  6 16  2  0  0  0  0
  7  8  1  0  0  0  0
  9 19  1  0  0  0  0
 10 11  1  0  0  0  0
 10 19  1  0  0  0  0
 12 13  1  0  0  0  0
 12 17  1  0  0  0  0
 13 14  1  0  0  0  0
 14 15  1  0  0  0  0
 15 16  1  0  0  0  0
 17 18  1  0  0  0  0
 18 19  2  0  0  0  0
M  END
