29874
 OpenBabel03021519512D

 13 13  0  0  1  0  0  0  0  0999 V2000
    0.1349    5.2881    0.0000 C   0  0  3  0  0  0  0  0  0  0  0  0
   -1.1641    6.0381    0.0000 C   0  0  0  0  0  0  0  0  0  0  0  0
   -2.4631    5.2881    0.0000 C   0  0  0  0  0  0  0  0  0  0  0  0
    0.1349    3.7881    0.0000 C   0  0  0  0  0  0  0  0  0  0  0  0
   -2.4631    3.7881    0.0000 C   0  0  0  0  0  0  0  0  0  0  0  0
   -1.1641    3.0381    0.0000 C   0  0  3  0  0  0  0  0  0  0  0  0
   -1.1641    1.5381    0.0000 C   0  0  0  0  0  0  0  0  0  0  0  0
    0.6480    6.6977    0.0000 C   0  0  0  0  0  0  0  0  0  0  0  0
    2.1252    6.9581    0.0000 N   0  0  0  0  0  0  0  0  0  0  0  0
    2.6382    8.3677    0.0000 C   0  0  0  0  0  0  0  0  0  0  0  0
    4.1154    8.6282    0.0000 O   0  0  0  0  0  0  0  0  0  0  0  0
    1.6740    9.5167    0.0000 C   0  0  0  0  0  0  0  0  0  0  0  0
    1.6121    5.0276    0.0000 O   0  0  0  0  0  0  0  0  0  0  0  0
  1  2  1  0  0  0  0
  1  4  1  0  0  0  0
  1  8  1  0  0  0  0
  1 13  1  0  0  0  0
  2  3  1  0  0  0  0
  3  5  1  0  0  0  0
  4  6  1  0  0  0  0
  5  6  1  0  0  0  0
  6  7  1  0  0  0  0
  8  9  1  0  0  0  0
  9 10  1  0  0  0  0
 10 11  2  0  0  0  0
 10 12  1  0  0  0  0
M  END
