222362
 OpenBabel03021519512D

 17 18  0  0  1  0  0  0  0  0999 V2000
   -5.4707   -4.0245    0.0000 O   0  0  0  0  0  0  0  0  0  0  0  0
    0.4755   -2.3235    0.0000 Cl  0  0  0  0  0  0  0  0  0  0  0  0
   -7.3187   -5.3236    0.0000 C   0  0  0  0  0  0  0  0  0  0  0  0
   -8.6178   -6.0736    0.0000 C   0  0  0  0  0  0  0  0  0  0  0  0
   -6.0197   -6.0736    0.0000 C   0  0  3  0  0  0  0  0  0  0  0  0
   -8.6178   -7.5736    0.0000 C   0  0  0  0  0  0  0  0  0  0  0  0
   -6.0197   -7.5736    0.0000 C   0  0  3  0  0  0  0  0  0  0  0  0
   -7.3187   -8.3236    0.0000 C   0  0  0  0  0  0  0  0  0  0  0  0
   -3.4216   -3.0736    0.0000 C   0  0  0  0  0  0  0  0  0  0  0  0
   -3.4216   -4.5736    0.0000 C   0  0  0  0  0  0  0  0  0  0  0  0
   -2.1226   -2.3236    0.0000 C   0  0  0  0  0  0  0  0  0  0  0  0
   -2.1226   -5.3236    0.0000 C   0  0  0  0  0  0  0  0  0  0  0  0
   -0.8235   -3.0736    0.0000 C   0  0  0  0  0  0  0  0  0  0  0  0
   -0.8235   -4.5736    0.0000 C   0  0  0  0  0  0  0  0  0  0  0  0
   -4.7206   -8.3236    0.0000 O   0  0  0  0  0  0  0  0  0  0  0  0
   -4.7206   -5.3236    0.0000 As  0  0  3  0  0  0  0  0  0  0  0  0
   -3.9706   -6.6226    0.0000 O   0  0  0  0  0  0  0  0  0  0  0  0
  1 16  2  0  0  0  0
  2 13  1  0  0  0  0
  3  4  1  0  0  0  0
  3  5  1  0  0  0  0
  4  6  1  0  0  0  0
  5  7  1  0  0  0  0
  5 16  1  0  0  0  0
  6  8  1  0  0  0  0
  7  8  1  0  0  0  0
  7 15  1  0  0  0  0
  9 11  2  0  0  0  0
  9 10  1  0  0  0  0
 10 12  2  0  0  0  0
 10 16  1  0  0  0  0
 11 13  1  0  0  0  0
 12 14  1  0  0  0  0
 13 14  2  0  0  0  0
 16 17  1  0  0  0  0
M  END
