133351
 OpenBabel03021519512D

 21 22  0  0  0  0  0  0  0  0999 V2000
   -8.1692    2.1495    0.0000 O   0  0  0  0  0  0  0  0  0  0  0  0
   -5.5712    2.1495    0.0000 C   0  0  0  0  0  0  0  0  0  0  0  0
   -6.8702    1.3995    0.0000 C   0  0  0  0  0  0  0  0  0  0  0  0
   -4.2721    1.3995    0.0000 C   0  0  0  0  0  0  0  0  0  0  0  0
   -4.2721   -0.1005    0.0000 C   0  0  0  0  0  0  0  0  0  0  0  0
   -6.8702   -0.1005    0.0000 C   0  0  0  0  0  0  0  0  0  0  0  0
   -5.5712   -0.8505    0.0000 C   0  0  0  0  0  0  0  0  0  0  0  0
   -6.8702    4.3995    0.0000 C   0  0  0  0  0  0  0  0  0  0  0  0
   -8.1692    3.6495    0.0000 C   0  0  0  0  0  0  0  0  0  0  0  0
   -6.8702    5.8995    0.0000 C   0  0  0  0  0  0  0  0  0  0  0  0
   -9.4683    4.3995    0.0000 C   0  0  0  0  0  0  0  0  0  0  0  0
   -8.1692    6.6495    0.0000 C   0  0  0  0  0  0  0  0  0  0  0  0
   -9.4683    5.8995    0.0000 C   0  0  0  0  0  0  0  0  0  0  0  0
   -5.5712    6.6495    0.0000 N   0  3  0  0  0  0  0  0  0  0  0  0
   -5.5712    8.1495    0.0000 O   0  5  0  0  0  0  0  0  0  0  0  0
   -4.2721    5.8995    0.0000 O   0  0  0  0  0  0  0  0  0  0  0  0
   -8.1693    8.1495    0.0000 N   0  0  0  0  0  0  0  0  0  0  0  0
   -2.9731    2.1495    0.0000 N   0  3  0  0  0  0  0  0  0  0  0  0
   -1.6740    1.3995    0.0000 O   0  5  0  0  0  0  0  0  0  0  0  0
   -2.9731    3.6495    0.0000 O   0  0  0  0  0  0  0  0  0  0  0  0
   -2.9731   -0.8505    0.0000 N   0  0  0  0  0  0  0  0  0  0  0  0
  1  3  1  0  0  0  0
  1  9  1  0  0  0  0
  2  3  2  0  0  0  0
  2  4  1  0  0  0  0
  3  6  1  0  0  0  0
  4  5  2  0  0  0  0
  4 18  1  0  0  0  0
  5  7  1  0  0  0  0
  5 21  1  0  0  0  0
  6  7  2  0  0  0  0
  8  9  2  0  0  0  0
  8 10  1  0  0  0  0
  9 11  1  0  0  0  0
 10 12  2  0  0  0  0
 10 14  1  0  0  0  0
 11 13  2  0  0  0  0
 12 13  1  0  0  0  0
 12 17  1  0  0  0  0
 14 15  1  0  0  0  0
 14 16  2  0  0  0  0
 18 19  1  0  0  0  0
 18 20  2  0  0  0  0
M  CHG  4  14   1  15  -1  18   1  19  -1
M  END
