108972
 OpenBabel03021519512D

 15 16  0  0  0  0  0  0  0  0999 V2000
   -6.6073   -1.8901    0.0000 C   0  0  0  0  0  0  0  0  0  0  0  0
   -7.9063   -2.6401    0.0000 C   0  0  0  0  0  0  0  0  0  0  0  0
   -5.3083   -2.6401    0.0000 C   0  0  0  0  0  0  0  0  0  0  0  0
   -5.3083   -4.1401    0.0000 C   0  0  0  0  0  0  0  0  0  0  0  0
   -7.9063   -4.1401    0.0000 C   0  0  0  0  0  0  0  0  0  0  0  0
   -3.8817   -4.6036    0.0000 C   0  0  0  0  0  0  0  0  0  0  0  0
   -3.0000   -3.3901    0.0000 C   0  0  0  0  0  0  0  0  0  0  0  0
   -6.6073   -4.8901    0.0000 C   0  0  0  0  0  0  0  0  0  0  0  0
   -3.8817   -2.1766    0.0000 S   0  0  0  0  0  0  0  0  0  0  0  0
   -4.3452   -3.6032    0.0000 O   0  0  0  0  0  0  0  0  0  0  0  0
   -3.4182   -0.7500    0.0000 O   0  0  0  0  0  0  0  0  0  0  0  0
   -3.4181   -6.0302    0.0000 C   0  0  0  0  0  0  0  0  0  0  0  0
   -1.5000   -3.3901    0.0000 C   0  0  0  0  0  0  0  0  0  0  0  0
   -0.7500   -4.6891    0.0000 O   0  0  0  0  0  0  0  0  0  0  0  0
   -0.7500   -2.0911    0.0000 N   0  0  0  0  0  0  0  0  0  0  0  0
  1  2  2  0  0  0  0
  1  3  1  0  0  0  0
  2  5  1  0  0  0  0
  3  4  2  0  0  0  0
  3  9  1  0  0  0  0
  4  6  1  0  0  0  0
  4  8  1  0  0  0  0
  5  8  2  0  0  0  0
  6  7  2  0  0  0  0
  6 12  1  0  0  0  0
  7  9  1  0  0  0  0
  7 13  1  0  0  0  0
  9 10  2  0  0  0  0
  9 11  2  0  0  0  0
 13 14  2  0  0  0  0
 13 15  1  0  0  0  0
M  END
