153330
 OpenBabel03021519512D

 16 18  0  0  0  0  0  0  0  0999 V2000
   -4.7166   -3.4939    0.0000 S   0  0  0  0  0  0  0  0  0  0  0  0
   -1.9910   -3.2074    0.0000 N   0  0  0  0  0  0  0  0  0  0  0  0
   -1.9910   -1.7074    0.0000 H   0  0  0  0  0  0  0  0  0  0  0  0
   -1.9910   -7.7074    0.0000 O   0  0  0  0  0  0  0  0  0  0  0  0
   -0.6919   -5.4574    0.0000 N   0  0  0  0  0  0  0  0  0  0  0  0
   -7.0901   -4.8643    0.0000 C   0  0  0  0  0  0  0  0  0  0  0  0
   -5.5983   -4.7075    0.0000 C   0  0  0  0  0  0  0  0  0  0  0  0
   -7.7002   -6.2346    0.0000 C   0  0  0  0  0  0  0  0  0  0  0  0
   -4.7166   -5.9210    0.0000 C   0  0  0  0  0  0  0  0  0  0  0  0
   -6.8185   -7.4481    0.0000 C   0  0  0  0  0  0  0  0  0  0  0  0
   -5.3267   -7.2913    0.0000 C   0  0  0  0  0  0  0  0  0  0  0  0
   -3.2900   -5.4574    0.0000 C   0  0  0  0  0  0  0  0  0  0  0  0
   -3.2900   -3.9574    0.0000 C   0  0  0  0  0  0  0  0  0  0  0  0
   -1.9910   -6.2074    0.0000 C   0  0  0  0  0  0  0  0  0  0  0  0
   -0.6919   -3.9574    0.0000 C   0  0  0  0  0  0  0  0  0  0  0  0
    0.6071   -3.2074    0.0000 C   0  0  0  0  0  0  0  0  0  0  0  0
  1  7  1  0  0  0  0
  1 13  1  0  0  0  0
  2 13  1  0  0  0  0
  2 15  1  0  0  0  0
  2  3  1  0  0  0  0
  4 14  2  0  0  0  0
  5 15  2  0  0  0  0
  5 14  1  0  0  0  0
  6  7  1  0  0  0  0
  6  8  1  0  0  0  0
  7  9  2  0  0  0  0
  8 10  1  0  0  0  0
  9 11  1  0  0  0  0
  9 12  1  0  0  0  0
 10 11  1  0  0  0  0
 12 13  2  0  0  0  0
 12 14  1  0  0  0  0
 15 16  1  0  0  0  0
M  END
