195327
 OpenBabel03021519512D

 19 20  0  0  0  0  0  0  0  0999 V2000
    4.2721   -1.3995    0.0000 N   0  0  0  0  0  0  0  0  0  0  0  0
    4.2721   -4.3995    0.0000 N   0  0  0  0  0  0  0  0  0  0  0  0
    6.8702   -4.3995    0.0000 C   0  0  0  0  0  0  0  0  0  0  0  0
    5.5711   -3.6495    0.0000 C   0  0  0  0  0  0  0  0  0  0  0  0
    6.8702   -5.8995    0.0000 C   0  0  0  0  0  0  0  0  0  0  0  0
    5.5712   -6.6495    0.0000 C   0  0  0  0  0  0  0  0  0  0  0  0
    8.1692   -6.6495    0.0000 C   0  0  0  0  0  0  0  0  0  0  0  0
    9.4683   -5.8995    0.0000 C   0  0  0  0  0  0  0  0  0  0  0  0
   10.7673   -6.6495    0.0000 C   0  0  0  0  0  0  0  0  0  0  0  0
    8.1692   -8.1495    0.0000 C   0  0  0  0  0  0  0  0  0  0  0  0
   10.7673   -8.1495    0.0000 C   0  0  0  0  0  0  0  0  0  0  0  0
    4.2721   -5.8995    0.0000 C   0  0  0  0  0  0  0  0  0  0  0  0
    9.4683   -8.8995    0.0000 C   0  0  0  0  0  0  0  0  0  0  0  0
    5.5712    2.3505    0.0000 N   0  0  0  0  0  0  0  0  0  0  0  0
    5.5712    0.8505    0.0000 C   0  0  0  0  0  0  0  0  0  0  0  0
    6.8702    0.1005    0.0000 S   0  0  0  0  0  0  0  0  0  0  0  0
    4.2721    0.1005    0.0000 N   0  0  0  0  0  0  0  0  0  0  0  0
    5.5711   -2.1495    0.0000 C   0  0  0  0  0  0  0  0  0  0  0  0
    9.4683  -10.3995    0.0000 N   0  0  0  0  0  0  0  0  0  0  0  0
  1 17  1  0  0  0  0
  1 18  2  0  0  0  0
  2  4  2  0  0  0  0
  2 12  1  0  0  0  0
  3  5  2  0  0  0  0
  3  4  1  0  0  0  0
  4 18  1  0  0  0  0
  5  6  1  0  0  0  0
  5  7  1  0  0  0  0
  6 12  2  0  0  0  0
  7 10  2  0  0  0  0
  7  8  1  0  0  0  0
  8  9  2  0  0  0  0
  9 11  1  0  0  0  0
 10 13  1  0  0  0  0
 11 13  2  0  0  0  0
 13 19  1  0  0  0  0
 14 15  1  0  0  0  0
 15 16  2  0  0  0  0
 15 17  1  0  0  0  0
M  END
