352888
 OpenBabel03021519512D

 20 21  0  0  1  0  0  0  0  0999 V2000
    3.3481    3.0000    0.0000 C   0  0  0  0  0  0  0  0  0  0  0  0
    3.3481    1.5000    0.0000 C   0  0  0  0  0  0  0  0  0  0  0  0
    4.6471    0.7500    0.0000 C   0  0  0  0  0  0  0  0  0  0  0  0
    5.9462    1.5000    0.0000 C   0  0  0  0  0  0  0  0  0  0  0  0
    5.9462    3.0000    0.0000 C   0  0  0  0  0  0  0  0  0  0  0  0
    4.6471    3.7500    0.0000 C   0  0  0  0  0  0  0  0  0  0  0  0
    7.2452    0.7500    0.0000 C   0  0  0  0  0  0  0  0  0  0  0  0
    8.5442    1.5000    0.0000 C   0  0  0  0  0  0  0  0  0  0  0  0
    8.5442    3.0000    0.0000 C   0  0  3  0  0  0  0  0  0  0  0  0
    2.0490    0.7500    0.0000 C   0  0  0  0  0  0  0  0  0  0  0  0
    9.8433    3.7500    0.0000 C   0  0  0  0  0  0  0  0  0  0  0  0
   12.4413    3.7500    0.0000 C   0  0  0  0  0  0  0  0  0  0  0  0
    0.7500    1.5000    0.0000 O   0  0  0  0  0  0  0  0  0  0  0  0
    7.2452    3.7500    0.0000 N   0  0  0  0  0  0  0  0  0  0  0  0
   11.1423    3.0000    0.0000 N   0  0  0  0  0  0  0  0  0  0  0  0
    2.0490    3.7500    0.0000 N   0  3  0  0  0  0  0  0  0  0  0  0
    0.7500    3.0000    0.0000 O   0  5  0  0  0  0  0  0  0  0  0  0
    2.0490    5.2500    0.0000 O   0  0  0  0  0  0  0  0  0  0  0  0
   12.4413    5.2500    0.0000 C   0  0  0  0  0  0  0  0  0  0  0  0
   13.7404    3.0000    0.0000 C   0  0  0  0  0  0  0  0  0  0  0  0
  1  2  1  0  0  0  0
  1  6  2  0  0  0  0
  1 16  1  0  0  0  0
  2  3  2  0  0  0  0
  2 10  1  0  0  0  0
  3  4  1  0  0  0  0
  4  5  2  0  0  0  0
  4  7  1  0  0  0  0
  5  6  1  0  0  0  0
  5 14  1  0  0  0  0
  7  8  1  0  0  0  0
  8  9  1  0  0  0  0
  9 11  1  0  0  0  0
  9 14  1  0  0  0  0
 10 13  1  0  0  0  0
 11 15  1  0  0  0  0
 12 15  1  0  0  0  0
 12 19  1  0  0  0  0
 12 20  1  0  0  0  0
 16 17  1  0  0  0  0
 16 18  2  0  0  0  0
M  CHG  2  16   1  17  -1
M  END
