145992
 OpenBabel03021519512D

 20 21  0  0  0  0  0  0  0  0999 V2000
    2.9731   -3.6495    0.0000 Cl  0  0  0  0  0  0  0  0  0  0  0  0
    5.5712   -5.1495    0.0000 O   0  0  0  0  0  0  0  0  0  0  0  0
    9.4683   -5.8995    0.0000 N   0  0  0  0  0  0  0  0  0  0  0  0
   12.0664   -7.3995    0.0000 O   0  0  0  0  0  0  0  0  0  0  0  0
   10.7673   -5.1495    0.0000 C   0  0  0  0  0  0  0  0  0  0  0  0
   12.0663   -5.8995    0.0000 C   0  0  0  0  0  0  0  0  0  0  0  0
    6.8702   -2.8995    0.0000 C   0  0  0  0  0  0  0  0  0  0  0  0
    6.8702   -1.3995    0.0000 C   0  0  0  0  0  0  0  0  0  0  0  0
    5.5712   -3.6495    0.0000 C   0  0  0  0  0  0  0  0  0  0  0  0
    4.2721   -2.8995    0.0000 C   0  0  0  0  0  0  0  0  0  0  0  0
    5.5712   -0.6495    0.0000 C   0  0  0  0  0  0  0  0  0  0  0  0
    4.2721   -1.3995    0.0000 C   0  0  0  0  0  0  0  0  0  0  0  0
    9.4683   -7.3995    0.0000 C   0  0  0  0  0  0  0  0  0  0  0  0
   10.7673   -8.1495    0.0000 C   0  0  0  0  0  0  0  0  0  0  0  0
    5.5711    0.8505    0.0000 N   0  3  0  0  0  0  0  0  0  0  0  0
    6.8702    1.6005    0.0000 O   0  5  0  0  0  0  0  0  0  0  0  0
    4.2721    1.6005    0.0000 O   0  0  0  0  0  0  0  0  0  0  0  0
    6.8702   -5.8995    0.0000 C   0  0  0  0  0  0  0  0  0  0  0  0
    8.1692   -5.1495    0.0000 C   0  0  0  0  0  0  0  0  0  0  0  0
    8.1692   -3.6495    0.0000 O   0  0  0  0  0  0  0  0  0  0  0  0
  1 10  1  0  0  0  0
  2  9  1  0  0  0  0
  2 18  1  0  0  0  0
  3  5  1  0  0  0  0
  3 13  1  0  0  0  0
  3 19  1  0  0  0  0
  4  6  1  0  0  0  0
  4 14  1  0  0  0  0
  5  6  1  0  0  0  0
  7  8  2  0  0  0  0
  7  9  1  0  0  0  0
  8 11  1  0  0  0  0
  9 10  2  0  0  0  0
 10 12  1  0  0  0  0
 11 12  2  0  0  0  0
 11 15  1  0  0  0  0
 13 14  1  0  0  0  0
 15 16  1  0  0  0  0
 15 17  2  0  0  0  0
 18 19  1  0  0  0  0
 19 20  2  0  0  0  0
M  CHG  2  15   1  16  -1
M  END
