160005
 OpenBabel03021519512D

 12 13  0  0  0  0  0  0  0  0999 V2000
   -0.8505    2.9731    0.0000 C   0  0  0  0  0  0  0  0  0  0  0  0
   -0.1005    4.2721    0.0000 C   0  0  0  0  0  0  0  0  0  0  0  0
   -0.1005    1.6740    0.0000 C   0  0  0  0  0  0  0  0  0  0  0  0
    1.3995    1.6740    0.0000 C   0  0  0  0  0  0  0  0  0  0  0  0
    1.3995    4.2721    0.0000 C   0  0  0  0  0  0  0  0  0  0  0  0
    2.1495    2.9731    0.0000 C   0  0  0  0  0  0  0  0  0  0  0  0
    5.8913    4.4289    0.0000 O   0  0  0  0  0  0  0  0  0  0  0  0
    4.3995    4.2721    0.0000 C   0  0  0  0  0  0  0  0  0  0  0  0
    3.7894    5.6424    0.0000 N   0  0  0  0  0  0  0  0  0  0  0  0
    4.9041    6.6461    0.0000 C   0  0  0  0  0  0  0  0  0  0  0  0
    6.2032    5.8961    0.0000 C   0  0  0  0  0  0  0  0  0  0  0  0
    3.6495    2.9731    0.0000 N   0  0  0  0  0  0  0  0  0  0  0  0
  1  2  1  0  0  0  0
  1  3  1  0  0  0  0
  2  5  1  0  0  0  0
  3  4  1  0  0  0  0
  4  6  1  0  0  0  0
  5  6  1  0  0  0  0
  6 12  1  0  0  0  0
  7  8  1  0  0  0  0
  7 11  1  0  0  0  0
  8  9  2  0  0  0  0
  8 12  1  0  0  0  0
  9 10  1  0  0  0  0
 10 11  1  0  0  0  0
M  END
