373981
 OpenBabel03021519512D

 19 21  0  0  0  0  0  0  0  0999 V2000
   -1.0245    4.7745    0.0000 C   0  0  0  0  0  0  0  0  0  0  0  0
   -1.0245    3.2745    0.0000 C   0  0  0  0  0  0  0  0  0  0  0  0
    0.2745    2.5245    0.0000 C   0  0  0  0  0  0  0  0  0  0  0  0
    1.5736    3.2745    0.0000 C   0  0  0  0  0  0  0  0  0  0  0  0
    1.5736    4.7745    0.0000 C   0  0  0  0  0  0  0  0  0  0  0  0
    0.2745    5.5245    0.0000 C   0  0  0  0  0  0  0  0  0  0  0  0
    2.8726    2.5245    0.0000 C   0  0  0  0  0  0  0  0  0  0  0  0
    4.1716    3.2745    0.0000 C   0  0  0  0  0  0  0  0  0  0  0  0
    4.1716    4.7745    0.0000 C   0  0  0  0  0  0  0  0  0  0  0  0
    2.8726    5.5245    0.0000 C   0  0  0  0  0  0  0  0  0  0  0  0
    3.1845    6.9917    0.0000 C   0  0  0  0  0  0  0  0  0  0  0  0
    4.6763    7.1485    0.0000 C   0  0  0  0  0  0  0  0  0  0  0  0
    5.2864    5.7782    0.0000 O   0  0  0  0  0  0  0  0  0  0  0  0
    2.1808    8.1065    0.0000 C   0  0  0  0  0  0  0  0  0  0  0  0
    0.7136    7.7946    0.0000 C   0  0  0  0  0  0  0  0  0  0  0  0
   -0.2901    8.9093    0.0000 O   0  0  0  0  0  0  0  0  0  0  0  0
    5.4263    8.4476    0.0000 N   0  3  0  0  0  0  0  0  0  0  0  0
    6.9263    8.4476    0.0000 O   0  5  0  0  0  0  0  0  0  0  0  0
    4.6763    9.7466    0.0000 O   0  0  0  0  0  0  0  0  0  0  0  0
  1  2  2  0  0  0  0
  1  6  1  0  0  0  0
  2  3  1  0  0  0  0
  3  4  2  0  0  0  0
  4  5  1  0  0  0  0
  4  7  1  0  0  0  0
  5  6  2  0  0  0  0
  5 10  1  0  0  0  0
  7  8  2  0  0  0  0
  8  9  1  0  0  0  0
  9 10  2  0  0  0  0
  9 13  1  0  0  0  0
 10 11  1  0  0  0  0
 11 12  2  0  0  0  0
 11 14  1  0  0  0  0
 12 13  1  0  0  0  0
 12 17  1  0  0  0  0
 14 15  1  0  0  0  0
 15 16  1  0  0  0  0
 17 18  1  0  0  0  0
 17 19  2  0  0  0  0
M  CHG  2  17   1  18  -1
M  END
