319424
 OpenBabel03021519512D

 20 21  0  0  0  0  0  0  0  0999 V2000
    0.9638    1.9952    0.0000 F   0  0  0  0  0  0  0  0  0  0  0  0
    2.4638    3.4952    0.0000 F   0  0  0  0  0  0  0  0  0  0  0  0
    2.4638    1.9952    0.0000 C   0  0  0  0  0  0  0  0  0  0  0  0
    2.4638    0.4952    0.0000 F   0  0  0  0  0  0  0  0  0  0  0  0
    4.8455    3.2087    0.0000 N   0  0  0  0  0  0  0  0  0  0  0  0
    3.9638    1.9952    0.0000 C   0  0  0  0  0  0  0  0  0  0  0  0
    4.8455    0.7816    0.0000 S   0  0  0  0  0  0  0  0  0  0  0  0
    6.2721    1.2452    0.0000 C   0  0  0  0  0  0  0  0  0  0  0  0
    6.2721    2.7452    0.0000 N   0  0  0  0  0  0  0  0  0  0  0  0
    8.6245    2.6986    0.0000 O   0  0  0  0  0  0  0  0  0  0  0  0
    8.7292    1.2023    0.0000 C   0  0  0  0  0  0  0  0  0  0  0  0
   10.0774    0.5447    0.0000 C   0  0  0  0  0  0  0  0  0  0  0  0
    8.9385   -1.7904    0.0000 F   0  0  0  0  0  0  0  0  0  0  0  0
   11.3209    1.3835    0.0000 C   0  0  0  0  0  0  0  0  0  0  0  0
   10.1820   -0.9516    0.0000 C   0  0  0  0  0  0  0  0  0  0  0  0
   11.2163    2.8799    0.0000 F   0  0  0  0  0  0  0  0  0  0  0  0
   11.5302   -1.6092    0.0000 C   0  0  0  0  0  0  0  0  0  0  0  0
   12.6691    0.7260    0.0000 C   0  0  0  0  0  0  0  0  0  0  0  0
   12.7738   -0.7704    0.0000 C   0  0  0  0  0  0  0  0  0  0  0  0
    7.4856    0.3635    0.0000 N   0  0  0  0  0  0  0  0  0  0  0  0
  1  3  1  0  0  0  0
  2  3  1  0  0  0  0
  3  6  1  0  0  0  0
  3  4  1  0  0  0  0
  5  9  1  0  0  0  0
  5  6  2  0  0  0  0
  6  7  1  0  0  0  0
  7  8  1  0  0  0  0
  8  9  2  0  0  0  0
  8 20  1  0  0  0  0
 10 11  2  0  0  0  0
 11 12  1  0  0  0  0
 11 20  1  0  0  0  0
 12 15  2  0  0  0  0
 12 14  1  0  0  0  0
 13 15  1  0  0  0  0
 14 18  2  0  0  0  0
 14 16  1  0  0  0  0
 15 17  1  0  0  0  0
 17 19  2  0  0  0  0
 18 19  1  0  0  0  0
M  END
