48617
 OpenBabel03021519512D

 26 30  0  0  1  0  0  0  0  0999 V2000
   -3.0933   -8.4391    0.0000 H   0  0  0  0  0  0  0  0  0  0  0  0
   -2.5531   -5.8978    0.0000 H   0  0  0  0  0  0  0  0  0  0  0  0
   -0.4758   -7.5799    0.0000 H   0  0  0  0  0  0  0  0  0  0  0  0
    0.1276   -2.4748    0.0000 N   0  0  0  0  0  0  0  0  0  0  0  0
    2.0912   -3.9013    0.0000 C   0  0  0  0  0  0  0  0  0  0  0  0
    0.8777   -4.7830    0.0000 C   0  0  0  0  0  0  0  0  0  0  0  0
   -0.3359   -3.9013    0.0000 C   0  0  0  0  0  0  0  0  0  0  0  0
   -1.5494   -4.7830    0.0000 C   0  0  1  0  0  0  0  0  0  0  0  0
   -3.0166   -4.4712    0.0000 C   0  0  0  0  0  0  0  0  0  0  0  0
   -4.0203   -5.5859    0.0000 C   0  0  0  0  0  0  0  0  0  0  0  0
    0.4141   -6.2096    0.0000 C   0  0  0  0  0  0  0  0  0  0  0  0
   -1.0859   -6.2096    0.0000 C   0  0  1  0  0  0  0  0  0  0  0  0
   -3.5568   -7.0125    0.0000 C   0  0  1  0  0  0  0  0  0  0  0  0
   -2.0896   -7.3243    0.0000 C   0  0  1  0  0  0  0  0  0  0  0  0
   -4.5605   -8.1272    0.0000 C   0  0  1  0  0  0  0  0  0  0  0  0
   -6.0277   -7.8153    0.0000 C   0  0  0  0  0  0  0  0  0  0  0  0
   -7.0314   -8.9300    0.0000 C   0  0  0  0  0  0  0  0  0  0  0  0
   -1.6260   -8.7509    0.0000 C   0  0  0  0  0  0  0  0  0  0  0  0
   -4.0970   -9.5538    0.0000 C   0  0  0  0  0  0  0  0  0  0  0  0
   -6.5679  -10.3566    0.0000 C   0  0  1  0  0  0  0  0  0  0  0  0
   -2.6297   -9.8656    0.0000 C   0  0  0  0  0  0  0  0  0  0  0  0
   -5.1007  -10.6685    0.0000 C   0  0  0  0  0  0  0  0  0  0  0  0
   -7.5716  -11.4713    0.0000 O   0  0  0  0  0  0  0  0  0  0  0  0
   -5.0240   -6.7006    0.0000 C   0  0  0  0  0  0  0  0  0  0  0  0
   -1.8613   -3.3158    0.0000 C   0  0  0  0  0  0  0  0  0  0  0  0
    1.6276   -2.4748    0.0000 N   0  0  0  0  0  0  0  0  0  0  0  0
  4  7  2  0  0  0  0
  4 26  1  0  0  0  0
  5  6  2  0  0  0  0
  5 26  1  0  0  0  0
  6  7  1  0  0  0  0
  6 11  1  0  0  0  0
  7  8  1  0  0  0  0
  8  9  1  0  0  0  0
  8 12  1  0  0  0  0
  8 25  1  1  0  0  0
  9 10  1  0  0  0  0
 10 13  1  0  0  0  0
 11 12  1  0  0  0  0
 12  3  1  6  0  0  0
 12 14  1  0  0  0  0
 13  1  1  6  0  0  0
 13 14  1  0  0  0  0
 13 15  1  0  0  0  0
 14  2  1  1  0  0  0
 14 18  1  0  0  0  0
 15 16  1  0  0  0  0
 15 19  1  0  0  0  0
 15 24  1  1  0  0  0
 16 17  1  0  0  0  0
 17 20  1  0  0  0  0
 18 21  1  0  0  0  0
 19 21  2  0  0  0  0
 19 22  1  0  0  0  0
 20 22  1  0  0  0  0
 20 23  1  1  0  0  0
M  END
