92264
 OpenBabel03021519512D

 15 16  0  0  0  0  0  0  0  0999 V2000
   -7.3894   -6.9206    0.0000 O   0  0  0  0  0  0  0  0  0  0  0  0
   -4.9918   -2.7112    0.0000 N   0  0  0  0  0  0  0  0  0  0  0  0
   -4.9918   -6.0817    0.0000 N   0  0  0  0  0  0  0  0  0  0  0  0
   -4.6580   -7.5441    0.0000 H   0  0  0  0  0  0  0  0  0  0  0  0
   -2.5200   -2.8964    0.0000 N   0  0  0  0  0  0  0  0  0  0  0  0
   -2.5200   -1.3964    0.0000 H   0  0  0  0  0  0  0  0  0  0  0  0
   -1.2210   -5.1464    0.0000 N   0  0  0  0  0  0  0  0  0  0  0  0
   -6.4542   -3.0450    0.0000 C   0  0  0  0  0  0  0  0  0  0  0  0
   -7.1050   -4.3964    0.0000 C   0  0  0  0  0  0  0  0  0  0  0  0
   -6.4542   -5.7479    0.0000 C   0  0  0  0  0  0  0  0  0  0  0  0
   -1.2210   -3.6464    0.0000 C   0  0  0  0  0  0  0  0  0  0  0  0
   -3.8191   -3.6465    0.0000 C   0  0  0  0  0  0  0  0  0  0  0  0
   -3.8190   -5.1465    0.0000 C   0  0  0  0  0  0  0  0  0  0  0  0
   -2.5200   -5.8964    0.0000 C   0  0  0  0  0  0  0  0  0  0  0  0
   -7.3894   -1.8722    0.0000 C   0  0  0  0  0  0  0  0  0  0  0  0
  1 10  2  0  0  0  0
  2 12  2  0  0  0  0
  2  8  1  0  0  0  0
  3 10  1  0  0  0  0
  3 13  1  0  0  0  0
  3  4  1  0  0  0  0
  5 11  1  0  0  0  0
  5 12  1  0  0  0  0
  5  6  1  0  0  0  0
  7 11  2  0  0  0  0
  7 14  1  0  0  0  0
  8  9  2  0  0  0  0
  8 15  1  0  0  0  0
  9 10  1  0  0  0  0
 12 13  1  0  0  0  0
 13 14  2  0  0  0  0
M  END
