30663
 OpenBabel03021519512D

 30 34  0  0  1  0  0  0  0  0999 V2000
    2.2231    6.6495    0.0000 O   0  0  0  0  0  0  0  0  0  0  0  0
    2.2231    3.6495    0.0000 N   0  0  0  0  0  0  0  0  0  0  0  0
    7.4192    6.6495    0.0000 N   0  0  0  0  0  0  0  0  0  0  0  0
    4.8212    8.1495    0.0000 O   0  0  0  0  0  0  0  0  0  0  0  0
    6.1202   10.3995    0.0000 C   0  0  3  0  0  0  0  0  0  0  0  0
    6.1202    8.8995    0.0000 C   0  0  0  0  0  0  0  0  0  0  0  0
    6.9862    8.8995    0.0000 C   0  0  0  0  0  0  0  0  0  0  0  0
    7.4192   11.1495    0.0000 C   0  0  0  0  0  0  0  0  0  0  0  0
    8.7183   10.3995    0.0000 C   0  0  0  0  0  0  0  0  0  0  0  0
    7.4192    8.1495    0.0000 C   0  0  0  0  0  0  0  0  0  0  0  0
    8.7183    8.8995    0.0000 C   0  0  3  0  0  0  0  0  0  0  0  0
   -0.3750    6.6495    0.0000 C   0  0  3  0  0  0  0  0  0  0  0  0
   -1.6740    5.8995    0.0000 C   0  0  0  0  0  0  0  0  0  0  0  0
    0.9240    5.8995    0.0000 C   0  0  0  0  0  0  0  0  0  0  0  0
    0.4910    5.1495    0.0000 C   0  0  0  0  0  0  0  0  0  0  0  0
    0.9240    4.3995    0.0000 C   0  0  0  0  0  0  0  0  0  0  0  0
   -1.6740    4.3995    0.0000 C   0  0  0  0  0  0  0  0  0  0  0  0
   -0.3750    3.6495    0.0000 C   0  0  3  0  0  0  0  0  0  0  0  0
    4.8212    6.6495    0.0000 C   0  0  0  0  0  0  0  0  0  0  0  0
    3.5221    5.8995    0.0000 C   0  0  0  0  0  0  0  0  0  0  0  0
    6.1202    5.8995    0.0000 C   0  0  0  0  0  0  0  0  0  0  0  0
    6.1202    4.3995    0.0000 C   0  0  0  0  0  0  0  0  0  0  0  0
    3.5221    4.3995    0.0000 C   0  0  0  0  0  0  0  0  0  0  0  0
    4.8212    3.6495    0.0000 C   0  0  0  0  0  0  0  0  0  0  0  0
   -0.9185    4.6365    0.0000 C   0  0  0  0  0  0  0  0  0  0  0  0
   -0.9185    5.6625    0.0000 C   0  0  0  0  0  0  0  0  0  0  0  0
   -0.3750    8.1495    0.0000 C   0  0  0  0  0  0  0  0  0  0  0  0
    4.8211   11.1495    0.0000 C   0  0  0  0  0  0  0  0  0  0  0  0
    7.2467   10.3767    0.0000 C   0  0  0  0  0  0  0  0  0  0  0  0
    8.1353    9.8637    0.0000 C   0  0  0  0  0  0  0  0  0  0  0  0
  1 14  2  0  0  0  0
  2 16  2  0  0  0  0
  2 23  1  0  0  0  0
  3 10  2  0  0  0  0
  3 21  1  0  0  0  0
  4  6  2  0  0  0  0
  5  6  1  0  0  0  0
  5  7  1  0  0  0  0
  5  8  1  0  0  0  0
  5 28  1  0  0  0  0
  6 10  1  0  0  0  0
  7 11  1  0  0  0  0
  7 29  1  0  0  0  0
  7 30  1  0  0  0  0
  8  9  1  0  0  0  0
  9 11  1  0  0  0  0
 10 11  1  0  0  0  0
 12 13  1  0  0  0  0
 12 14  1  0  0  0  0
 12 15  1  0  0  0  0
 12 27  1  0  0  0  0
 13 17  1  0  0  0  0
 14 16  1  0  0  0  0
 15 18  1  0  0  0  0
 15 25  1  0  0  0  0
 15 26  1  0  0  0  0
 16 18  1  0  0  0  0
 17 18  1  0  0  0  0
 19 21  2  0  0  0  0
 19 20  1  0  0  0  0
 20 23  2  0  0  0  0
 21 22  1  0  0  0  0
 22 24  2  0  0  0  0
 23 24  1  0  0  0  0
M  END
