282187
 OpenBabel03021519512D

 18 19  0  0  0  0  0  0  0  0999 V2000
   -5.5245    5.4707    0.0000 O   0  0  0  0  0  0  0  0  0  0  0  0
   -8.5245    5.4707    0.0000 O   0  0  0  0  0  0  0  0  0  0  0  0
   -3.2745   -1.0245    0.0000 F   0  0  0  0  0  0  0  0  0  0  0  0
   -6.2745    6.7697    0.0000 C   0  0  0  0  0  0  0  0  0  0  0  0
   -7.7745    6.7697    0.0000 C   0  0  0  0  0  0  0  0  0  0  0  0
   -8.5245    8.0687    0.0000 C   0  0  0  0  0  0  0  0  0  0  0  0
   -7.7745    9.3678    0.0000 C   0  0  0  0  0  0  0  0  0  0  0  0
   -4.0245    2.8726    0.0000 C   0  0  0  0  0  0  0  0  0  0  0  0
   -5.5245    2.8726    0.0000 C   0  0  0  0  0  0  0  0  0  0  0  0
   -3.2745    1.5736    0.0000 C   0  0  0  0  0  0  0  0  0  0  0  0
   -6.2745    1.5736    0.0000 C   0  0  0  0  0  0  0  0  0  0  0  0
   -4.0245    0.2745    0.0000 C   0  0  0  0  0  0  0  0  0  0  0  0
   -5.5245    0.2745    0.0000 C   0  0  0  0  0  0  0  0  0  0  0  0
   -6.2745    9.3678    0.0000 C   0  0  0  0  0  0  0  0  0  0  0  0
   -5.5245    8.0688    0.0000 N   0  0  0  0  0  0  0  0  0  0  0  0
   -7.7745    4.1716    0.0000 C   0  0  0  0  0  0  0  0  0  0  0  0
   -8.5245    2.8726    0.0000 O   0  0  0  0  0  0  0  0  0  0  0  0
   -6.2745    4.1716    0.0000 N   0  0  0  0  0  0  0  0  0  0  0  0
  1  4  2  0  0  0  0
  2  5  1  0  0  0  0
  2 16  1  0  0  0  0
  3 12  1  0  0  0  0
  4  5  1  0  0  0  0
  4 15  1  0  0  0  0
  5  6  2  0  0  0  0
  6  7  1  0  0  0  0
  7 14  2  0  0  0  0
  8 10  2  0  0  0  0
  8  9  1  0  0  0  0
  9 11  2  0  0  0  0
  9 18  1  0  0  0  0
 10 12  1  0  0  0  0
 11 13  1  0  0  0  0
 12 13  2  0  0  0  0
 14 15  1  0  0  0  0
 16 17  2  0  0  0  0
 16 18  1  0  0  0  0
M  END
