319449
 OpenBabel03021519512D

 24 26  0  0  0  0  0  0  0  0999 V2000
   -4.6005   -9.4683    0.0000 C   0  0  0  0  0  0  0  0  0  0  0  0
   -5.3505  -10.7673    0.0000 C   0  0  0  0  0  0  0  0  0  0  0  0
   -3.1005   -9.4683    0.0000 C   0  0  0  0  0  0  0  0  0  0  0  0
   -4.6005  -12.0664    0.0000 C   0  0  0  0  0  0  0  0  0  0  0  0
   -2.3505  -10.7673    0.0000 C   0  0  0  0  0  0  0  0  0  0  0  0
   -3.1005  -12.0664    0.0000 C   0  0  0  0  0  0  0  0  0  0  0  0
   -0.1005   -9.4683    0.0000 N   0  0  0  0  0  0  0  0  0  0  0  0
   -0.8505  -10.7673    0.0000 C   0  0  0  0  0  0  0  0  0  0  0  0
   -2.3505  -13.3654    0.0000 C   0  0  0  0  0  0  0  0  0  0  0  0
    1.3995   -9.4683    0.0000 O   0  0  0  0  0  0  0  0  0  0  0  0
   -0.1005  -12.0664    0.0000 C   0  0  0  0  0  0  0  0  0  0  0  0
   -0.8505  -13.3654    0.0000 S   0  0  0  0  0  0  0  0  0  0  0  0
    1.3995   -6.8702    0.0000 C   0  0  0  0  0  0  0  0  0  0  0  0
   -0.1005   -6.8702    0.0000 C   0  0  0  0  0  0  0  0  0  0  0  0
   -0.8505   -8.1692    0.0000 O   0  0  0  0  0  0  0  0  0  0  0  0
    2.1495   -5.5712    0.0000 C   0  0  0  0  0  0  0  0  0  0  0  0
    1.3995   -4.2721    0.0000 C   0  0  0  0  0  0  0  0  0  0  0  0
   -0.8505   -5.5712    0.0000 C   0  0  0  0  0  0  0  0  0  0  0  0
   -0.1005   -4.2721    0.0000 C   0  0  0  0  0  0  0  0  0  0  0  0
    2.1495   -8.1692    0.0000 C   0  0  0  0  0  0  0  0  0  0  0  0
    2.1495   -2.9731    0.0000 C   0  0  0  0  0  0  0  0  0  0  0  0
    3.6495   -2.9731    0.0000 O   0  0  0  0  0  0  0  0  0  0  0  0
    1.3995   -1.6740    0.0000 C   0  0  0  0  0  0  0  0  0  0  0  0
   -2.3505   -8.1692    0.0000 C   0  0  0  0  0  0  0  0  0  0  0  0
  1  3  2  0  0  0  0
  1  2  1  0  0  0  0
  2  4  2  0  0  0  0
  3  5  1  0  0  0  0
  4  6  1  0  0  0  0
  5  8  1  0  0  0  0
  5  6  2  0  0  0  0
  6  9  1  0  0  0  0
  7 10  1  0  0  0  0
  7  8  2  0  0  0  0
  8 11  1  0  0  0  0
  9 12  1  0  0  0  0
 10 20  1  0  0  0  0
 11 12  1  0  0  0  0
 13 14  2  0  0  0  0
 13 16  1  0  0  0  0
 13 20  1  0  0  0  0
 14 15  1  0  0  0  0
 14 18  1  0  0  0  0
 15 24  1  0  0  0  0
 16 17  2  0  0  0  0
 17 19  1  0  0  0  0
 17 21  1  0  0  0  0
 18 19  2  0  0  0  0
 21 22  2  0  0  0  0
 21 23  1  0  0  0  0
M  END
