344494
 OpenBabel03021519512D

 10 10  0  0  0  0  0  0  0  0999 V2000
    1.3995    0.9240    0.0000 Cl  0  0  0  0  0  0  0  0  0  0  0  0
    2.1495    2.2231    0.0000 Cl  0  0  0  0  0  0  0  0  0  0  0  0
    2.1495   -0.3750    0.0000 N   0  0  0  0  0  0  0  0  0  0  0  0
    3.6495   -0.3750    0.0000 C   0  0  0  0  0  0  0  0  0  0  0  0
    3.6495    2.2231    0.0000 N   0  0  0  0  0  0  0  0  0  0  0  0
    4.3995    0.9240    0.0000 C   0  0  0  0  0  0  0  0  0  0  0  0
    4.3995   -1.6740    0.0000 C   0  0  0  0  0  0  0  0  0  0  0  0
    5.8995   -1.6740    0.0000 C   0  0  0  0  0  0  0  0  0  0  0  0
    5.8995    0.9241    0.0000 C   0  0  0  0  0  0  0  0  0  0  0  0
    6.6495   -0.3750    0.0000 C   0  0  0  0  0  0  0  0  0  0  0  0
  1  3  1  0  0  0  0
  2  5  1  0  0  0  0
  3  4  2  0  0  0  0
  4  6  1  0  0  0  0
  4  7  1  0  0  0  0
  5  6  2  0  0  0  0
  6  9  1  0  0  0  0
  7  8  2  0  0  0  0
  8 10  1  0  0  0  0
  9 10  2  0  0  0  0
M  END
