17796
 OpenBabel03021519512D

 12 13  0  0  0  0  0  0  0  0999 V2000
    2.8726    5.5245    0.0000 C   0  0  0  0  0  0  0  0  0  0  0  0
    0.2745    5.5245    0.0000 C   0  0  0  0  0  0  0  0  0  0  0  0
    4.1716    4.7745    0.0000 C   0  0  0  0  0  0  0  0  0  0  0  0
    1.5736    4.7745    0.0000 C   0  0  0  0  0  0  0  0  0  0  0  0
   -1.0245    4.7745    0.0000 C   0  0  0  0  0  0  0  0  0  0  0  0
    1.5736    3.2745    0.0000 C   0  0  0  0  0  0  0  0  0  0  0  0
   -1.0245    3.2745    0.0000 C   0  0  0  0  0  0  0  0  0  0  0  0
    0.2745    2.5245    0.0000 C   0  0  0  0  0  0  0  0  0  0  0  0
    2.8726    7.0245    0.0000 S   0  0  0  0  0  0  0  0  0  0  0  0
    2.8726    2.5245    0.0000 N   0  0  0  0  0  0  0  0  0  0  0  0
    4.1716    3.2745    0.0000 N   0  0  0  0  0  0  0  0  0  0  0  0
    4.1716    7.7745    0.0000 H   0  0  0  0  0  0  0  0  0  0  0  0
  1  9  1  0  0  0  0
  1  4  2  0  0  0  0
  1  3  1  0  0  0  0
  2  5  2  0  0  0  0
  2  4  1  0  0  0  0
  3 11  2  0  0  0  0
  4  6  1  0  0  0  0
  5  7  1  0  0  0  0
  6 10  2  0  0  0  0
  6  8  1  0  0  0  0
  7  8  2  0  0  0  0
  9 12  1  0  0  0  0
 10 11  1  0  0  0  0
M  END
