REMARK AutoDockVina VirtualScreeningResult  Sat Mar  5 21:34:36 2016
USER  AD>  7 of 9 MODELS
USER  AD>  ligand efficiency  -0.2842
USER  AD>  -5.40, 15.594, 18.370
USER  AD> macro_close_ats: 11
USER  AD> hepi:A:SER305:OG
USER  AD> hepi:A:LEU304:CB
USER  AD> hepi:A:GLU196:H
USER  AD> hepi:A:ASP191:C
USER  AD> hepi:A:HIS193:O
USER  AD> hepi:A:SER305:CB
USER  AD> hepi:A:ASP191:CA
USER  AD> hepi:A:ASP191:O
USER  AD> hepi:A:SER305:H
USER  AD> hepi:A:HIS193:CG
USER  AD> hepi:A:PRO195:CG

USER  AD> lig_close_ats: 10
USER  AD> h11_ab6_m7_model1: :LIG1:C,O,C,C,H,C,H,C,O,H
MODEL 7
REMARK VINA RESULT:      -5.4     15.594     18.370
REMARK  11 active torsions:
REMARK  status: ('A' for Active; 'I' for Inactive)
REMARK    1  A    between atoms: C_1  and  O_7 
REMARK    2  A    between atoms: C_2  and  O_10 
REMARK    3  A    between atoms: C_3  and  O_11 
REMARK    4  A    between atoms: C_4  and  O_12 
REMARK    5  A    between atoms: C_6  and  C_8 
REMARK    6  A    between atoms: C_8  and  O_9 
REMARK    7  A    between atoms: O_12  and  C_13 
REMARK    8  A    between atoms: C_13  and  C_14 
REMARK    9  A    between atoms: C_15  and  C_16 
REMARK   10  A    between atoms: C_16  and  C_17 
REMARK   11  A    between atoms: C_17  and  C_18 
ROOT
HETATM    1  C   LIG L   1      28.427  15.997   1.353  1.00  0.00     0.180 C 
HETATM    2  C   LIG L   1      29.771  16.146   2.077  1.00  0.00     0.183 C 
HETATM    3  C   LIG L   1      29.797  17.367   3.011  1.00  0.00     0.204 C 
HETATM    4  C   LIG L   1      29.279  18.608   2.255  1.00  0.00     0.291 C 
HETATM    5  O   LIG L   1      28.012  18.350   1.638  1.00  0.00    -0.348 OA
HETATM    6  C   LIG L   1      28.100  17.322   0.647  1.00  0.00     0.179 C 
ENDROOT
BRANCH   4   7
HETATM    7  O   LIG L   1      29.094  19.714   3.137  1.00  0.00    -0.355 OA
BRANCH   7   8
HETATM    8  C   LIG L   1      30.029  20.753   2.871  1.00  0.00     0.198 C 
BRANCH   8   9
HETATM    9  C   LIG L   1      30.891  20.959   4.078  1.00  0.00    -0.005 C 
HETATM   10  C   LIG L   1      32.227  21.034   3.993  1.00  0.00    -0.029 C 
BRANCH  10  11
HETATM   11  C   LIG L   1      33.144  21.259   5.162  1.00  0.00     0.027 C 
BRANCH  11  12
HETATM   12  C   LIG L   1      34.312  20.268   5.131  1.00  0.00     0.003 C 
BRANCH  12  13
HETATM   13  C   LIG L   1      35.542  20.856   4.445  1.00  0.00    -0.004 C 
HETATM   14  C   LIG L   1      36.133  19.873   3.445  1.00  0.00     0.005 C 
ENDBRANCH  12  13
ENDBRANCH  11  12
ENDBRANCH  10  11
ENDBRANCH   8   9
ENDBRANCH   7   8
ENDBRANCH   4   7
BRANCH   3  15
HETATM   15  O   LIG L   1      31.154  17.566   3.447  1.00  0.00    -0.388 OA
HETATM   16  H   LIG L   1      31.697  17.550   2.632  1.00  0.00     0.210 HD
ENDBRANCH   3  15
BRANCH   2  17
HETATM   17  O   LIG L   1      30.066  14.970   2.845  1.00  0.00    -0.390 OA
HETATM   18  H   LIG L   1      30.990  14.731   2.620  1.00  0.00     0.210 HD
ENDBRANCH   2  17
BRANCH   6  19
HETATM   19  C   LIG L   1      26.780  17.284  -0.123  1.00  0.00     0.198 C 
BRANCH  19  20
HETATM   20  O   LIG L   1      25.678  17.469   0.756  1.00  0.00    -0.398 OA
HETATM   21  H   LIG L   1      25.964  17.200   1.646  1.00  0.00     0.209 HD
ENDBRANCH  19  20
ENDBRANCH   6  19
BRANCH   1  22
HETATM   22  O   LIG L   1      27.440  15.659   2.344  1.00  0.00    -0.390 OA
HETATM   23  H   LIG L   1      26.621  16.145   2.122  1.00  0.00     0.210 HD
ENDBRANCH   1  22
TORSDOF 11
ENDMDL
