REMARK AutoDockVina VirtualScreeningResult  Sat Mar  5 21:34:40 2016
USER  AD>  1 of 9 MODELS
USER  AD>  ligand efficiency  -0.2857
USER  AD>  -6.00,  0.000,  0.000
USER  AD> macro_close_ats: 18
USER  AD> hepi:A:LEU184:CA
USER  AD> hepi:A:GLY12:H
USER  AD> hepi:A:LYS192:H
USER  AD> hepi:A:LYS192:NZ
USER  AD> hepi:A:SER10:OG
USER  AD> hepi:A:LEU184:CD2
USER  AD> hepi:A:ALA186:CB
USER  AD> hepi:A:HIS185:H
USER  AD> hepi:A:THR188:N
USER  AD> hepi:A:LEU264:CD1
USER  AD> hepi:A:THR262:H
USER  AD> hepi:A:GLY263:H
USER  AD> hepi:A:LYS192:H
USER  AD> hepi:A:THR262:CA
USER  AD> hepi:A:ALA186:H
USER  AD> hepi:A:MET11:H
USER  AD> hepi:A:SER10:H
USER  AD> hepi:A:THR188:H

USER  AD> lig_close_ats: 14
USER  AD> h11_aa8_m1_model1: :LIG1:C,C,C,H,C,C,C,C,O,O,O,O,C,H
MODEL 1
REMARK VINA RESULT:      -6.0      0.000      0.000
REMARK  13 active torsions:
REMARK  status: ('A' for Active; 'I' for Inactive)
REMARK    1  A    between atoms: C_1  and  O_7 
REMARK    2  A    between atoms: C_2  and  O_10 
REMARK    3  A    between atoms: C_3  and  O_11 
REMARK    4  A    between atoms: C_4  and  O_12 
REMARK    5  A    between atoms: C_6  and  C_8 
REMARK    6  A    between atoms: C_8  and  O_9 
REMARK    7  A    between atoms: O_12  and  C_13 
REMARK    8  A    between atoms: C_13  and  C_14 
REMARK    9  A    between atoms: C_15  and  C_16 
REMARK   10  A    between atoms: C_16  and  C_17 
REMARK   11  A    between atoms: C_17  and  C_18 
REMARK   12  A    between atoms: C_18  and  C_19 
REMARK   13  A    between atoms: C_19  and  C_20 
ROOT
HETATM    1  C   LIG L   1      42.705   6.789   1.130  1.00  0.00     0.180 C 
HETATM    2  C   LIG L   1      42.219   8.095   1.778  1.00  0.00     0.183 C 
HETATM    3  C   LIG L   1      43.188   9.225   1.412  1.00  0.00     0.204 C 
HETATM    4  C   LIG L   1      44.596   8.830   1.923  1.00  0.00     0.291 C 
HETATM    5  O   LIG L   1      45.007   7.611   1.270  1.00  0.00    -0.348 OA
HETATM    6  C   LIG L   1      44.149   6.497   1.583  1.00  0.00     0.179 C 
ENDROOT
BRANCH   4   7
HETATM    7  O   LIG L   1      44.659   8.644   3.344  1.00  0.00    -0.355 OA
BRANCH   7   8
HETATM    8  C   LIG L   1      45.979   8.835   3.827  1.00  0.00     0.198 C 
BRANCH   8   9
HETATM    9  C   LIG L   1      46.087  10.144   4.523  1.00  0.00    -0.005 C 
HETATM   10  C   LIG L   1      45.057  10.992   4.412  1.00  0.00    -0.029 C 
BRANCH  10  11
HETATM   11  C   LIG L   1      45.002  12.283   5.169  1.00  0.00     0.027 C 
BRANCH  11  12
HETATM   12  C   LIG L   1      45.595  12.093   6.548  1.00  0.00     0.004 C 
BRANCH  12  13
HETATM   13  C   LIG L   1      45.868  13.455   7.153  1.00  0.00     0.000 C 
BRANCH  13  14
HETATM   14  C   LIG L   1      45.594  13.441   8.642  1.00  0.00    -0.000 C 
BRANCH  14  15
HETATM   15  C   LIG L   1      44.182  12.946   8.912  1.00  0.00    -0.005 C 
HETATM   16  C   LIG L   1      43.517  13.798   9.974  1.00  0.00     0.005 C 
ENDBRANCH  14  15
ENDBRANCH  13  14
ENDBRANCH  12  13
ENDBRANCH  11  12
ENDBRANCH  10  11
ENDBRANCH   8   9
ENDBRANCH   7   8
ENDBRANCH   4   7
BRANCH   3  17
HETATM   17  O   LIG L   1      42.724  10.496   1.884  1.00  0.00    -0.388 OA
HETATM   18  H   LIG L   1      43.507  10.972   2.230  1.00  0.00     0.210 HD
ENDBRANCH   3  17
BRANCH   2  19
HETATM   19  O   LIG L   1      40.905   8.433   1.330  1.00  0.00    -0.390 OA
HETATM   20  H   LIG L   1      40.352   7.644   1.501  1.00  0.00     0.210 HD
ENDBRANCH   2  19
BRANCH   6  21
HETATM   21  C   LIG L   1      44.720   5.236   0.921  1.00  0.00     0.198 C 
BRANCH  21  22
HETATM   22  O   LIG L   1      44.225   4.049   1.534  1.00  0.00    -0.398 OA
HETATM   23  H   LIG L   1      43.668   3.585   0.885  1.00  0.00     0.209 HD
ENDBRANCH  21  22
ENDBRANCH   6  21
BRANCH   1  24
HETATM   24  O   LIG L   1      42.619   6.964  -0.300  1.00  0.00    -0.390 OA
HETATM   25  H   LIG L   1      41.681   7.104  -0.530  1.00  0.00     0.210 HD
ENDBRANCH   1  24
TORSDOF 13
ENDMDL
