REMARK AutoDockVina VirtualScreeningResult  Sat Mar  5 21:35:04 2016
USER  AD>  6 of 9 MODELS
USER  AD>  ligand efficiency  -0.2571
USER  AD>  -5.40,  3.300,  5.347
USER  AD> macro_close_ats: 16
USER  AD> hepi:A:PHE41:CE1
USER  AD> hepi:A:GLY12:H
USER  AD> hepi:A:ASP13:OD1
USER  AD> hepi:A:SER10:OG
USER  AD> hepi:A:SER10:CA
USER  AD> hepi:A:LYS192:H
USER  AD> hepi:A:THR262:CA
USER  AD> hepi:A:GLY263:CA
USER  AD> hepi:A:MET11:H
USER  AD> hepi:A:HIS266:CD2
USER  AD> hepi:A:GLY263:H
USER  AD> hepi:A:THR262:C
USER  AD> hepi:A:PHE41:CZ
USER  AD> hepi:A:GLY263:N
USER  AD> hepi:A:HIS266:NE2
USER  AD> hepi:A:SER10:H

USER  AD> lig_close_ats: 14
USER  AD> h11_gb8_m6_model1: :LIG1:C,C,O,C,O,O,C,O,C,H,C,H,C,H
MODEL 6
REMARK VINA RESULT:      -5.4      3.300      5.347
REMARK  13 active torsions:
REMARK  status: ('A' for Active; 'I' for Inactive)
REMARK    1  A    between atoms: C_1  and  O_21 
REMARK    2  A    between atoms: C_2  and  O_9 
REMARK    3  A    between atoms: C_3  and  O_10 
REMARK    4  A    between atoms: C_4  and  O_11 
REMARK    5  A    between atoms: C_6  and  C_7 
REMARK    6  A    between atoms: C_7  and  O_8 
REMARK    7  A    between atoms: O_11  and  C_12 
REMARK    8  A    between atoms: C_12  and  C_13 
REMARK    9  A    between atoms: C_14  and  C_15 
REMARK   10  A    between atoms: C_15  and  C_16 
REMARK   11  A    between atoms: C_16  and  C_17 
REMARK   12  A    between atoms: C_17  and  C_18 
REMARK   13  A    between atoms: C_18  and  C_19 
ROOT
HETATM    1  C   LIG L   1      40.306   3.445   1.408  1.00  0.00     0.180 C 
HETATM    2  C   LIG L   1      40.724   4.827   1.935  1.00  0.00     0.183 C 
HETATM    3  C   LIG L   1      42.144   5.220   1.506  1.00  0.00     0.204 C 
HETATM    4  C   LIG L   1      43.082   4.071   1.919  1.00  0.00     0.291 C 
HETATM    5  O   LIG L   1      42.688   2.870   1.261  1.00  0.00    -0.348 OA
HETATM    6  C   LIG L   1      41.403   2.398   1.666  1.00  0.00     0.179 C 
ENDROOT
BRANCH   4   7
HETATM    7  O   LIG L   1      44.428   4.352   1.544  1.00  0.00    -0.355 OA
BRANCH   7   8
HETATM    8  C   LIG L   1      44.486   4.944   0.252  1.00  0.00     0.198 C 
BRANCH   8   9
HETATM    9  C   LIG L   1      45.616   5.921   0.199  1.00  0.00    -0.005 C 
HETATM   10  C   LIG L   1      46.017   6.590   1.288  1.00  0.00    -0.029 C 
BRANCH  10  11
HETATM   11  C   LIG L   1      47.159   7.565   1.317  1.00  0.00     0.027 C 
BRANCH  11  12
HETATM   12  C   LIG L   1      46.713   8.928   0.779  1.00  0.00     0.004 C 
BRANCH  12  13
HETATM   13  C   LIG L   1      47.457   9.312  -0.497  1.00  0.00     0.000 C 
BRANCH  13  14
HETATM   14  C   LIG L   1      48.842   8.662  -0.531  1.00  0.00    -0.000 C 
BRANCH  14  15
HETATM   15  C   LIG L   1      49.156   8.081  -1.907  1.00  0.00    -0.005 C 
HETATM   16  C   LIG L   1      48.076   7.112  -2.358  1.00  0.00     0.005 C 
ENDBRANCH  14  15
ENDBRANCH  13  14
ENDBRANCH  12  13
ENDBRANCH  11  12
ENDBRANCH  10  11
ENDBRANCH   8   9
ENDBRANCH   7   8
ENDBRANCH   4   7
BRANCH   3  17
HETATM   17  O   LIG L   1      42.521   6.465   2.114  1.00  0.00    -0.388 OA
HETATM   18  H   LIG L   1      42.500   6.369   3.082  1.00  0.00     0.210 HD
ENDBRANCH   3  17
BRANCH   2  19
HETATM   19  O   LIG L   1      39.744   5.798   1.538  1.00  0.00    -0.390 OA
HETATM   20  H   LIG L   1      38.863   5.382   1.588  1.00  0.00     0.210 HD
ENDBRANCH   2  19
BRANCH   6  21
HETATM   21  C   LIG L   1      41.146   1.083   0.906  1.00  0.00     0.198 C 
BRANCH  21  22
HETATM   22  O   LIG L   1      42.249   0.189   0.882  1.00  0.00    -0.398 OA
HETATM   23  H   LIG L   1      41.913  -0.723   0.949  1.00  0.00     0.209 HD
ENDBRANCH  21  22
ENDBRANCH   6  21
BRANCH   1  24
HETATM   24  O   LIG L   1      39.100   3.065   2.084  1.00  0.00    -0.390 OA
HETATM   25  H   LIG L   1      38.463   2.822   1.381  1.00  0.00     0.210 HD
ENDBRANCH   1  24
TORSDOF 13
ENDMDL
