REMARK AutoDockVina VirtualScreeningResult  Sat Mar  5 21:34:42 2016
USER  AD>  2 of 9 MODELS
USER  AD>  ligand efficiency  -0.2714
USER  AD>  -5.70,  7.337, 13.055
USER  AD> macro_close_ats: 18
USER  AD> hepi:A:GLY12:H
USER  AD> hepi:A:SER10:C
USER  AD> hepi:A:SER10:OG
USER  AD> hepi:A:SER10:CA
USER  AD> hepi:A:ILE287:CD1
USER  AD> hepi:A:ASP261:OD1
USER  AD> hepi:A:ALA140:CB
USER  AD> hepi:A:ILE287:CA
USER  AD> hepi:A:MET11:H
USER  AD> hepi:A:GLY12:N
USER  AD> hepi:A:ASP261:OD2
USER  AD> hepi:A:THR262:C
USER  AD> hepi:A:MET11:N
USER  AD> hepi:A:LYS192:H
USER  AD> hepi:A:THR262:CA
USER  AD> hepi:A:SER10:CB
USER  AD> hepi:A:SER10:H
USER  AD> hepi:A:ASP261:CG

USER  AD> lig_close_ats: 9
USER  AD> h11_ab8_m2_model1: :LIG1:C,H,O,C,H,O,O,H,H
MODEL 2
REMARK VINA RESULT:      -5.7      7.337     13.055
REMARK  13 active torsions:
REMARK  status: ('A' for Active; 'I' for Inactive)
REMARK    1  A    between atoms: C_1  and  O_7 
REMARK    2  A    between atoms: C_2  and  O_10 
REMARK    3  A    between atoms: C_3  and  O_11 
REMARK    4  A    between atoms: C_4  and  O_12 
REMARK    5  A    between atoms: C_6  and  C_8 
REMARK    6  A    between atoms: C_8  and  O_9 
REMARK    7  A    between atoms: O_12  and  C_13 
REMARK    8  A    between atoms: C_13  and  C_14 
REMARK    9  A    between atoms: C_15  and  C_16 
REMARK   10  A    between atoms: C_16  and  C_17 
REMARK   11  A    between atoms: C_17  and  C_18 
REMARK   12  A    between atoms: C_18  and  C_19 
REMARK   13  A    between atoms: C_19  and  C_20 
ROOT
HETATM    1  C   LIG L   1      41.404   5.284   1.302  1.00  0.00     0.180 C 
HETATM    2  C   LIG L   1      39.979   4.974   0.828  1.00  0.00     0.183 C 
HETATM    3  C   LIG L   1      39.741   3.465   0.654  1.00  0.00     0.204 C 
HETATM    4  C   LIG L   1      40.894   2.842  -0.162  1.00  0.00     0.291 C 
HETATM    5  O   LIG L   1      42.167   3.192   0.394  1.00  0.00    -0.348 OA
HETATM    6  C   LIG L   1      42.399   4.604   0.351  1.00  0.00     0.179 C 
ENDROOT
BRANCH   4   7
HETATM    7  O   LIG L   1      40.821   1.416  -0.160  1.00  0.00    -0.355 OA
BRANCH   7   8
HETATM    8  C   LIG L   1      41.402   0.859   1.013  1.00  0.00     0.198 C 
BRANCH   8   9
HETATM    9  C   LIG L   1      40.468  -0.173   1.570  1.00  0.00    -0.005 C 
HETATM   10  C   LIG L   1      39.975  -1.174   0.825  1.00  0.00    -0.029 C 
BRANCH  10  11
HETATM   11  C   LIG L   1      39.043  -2.237   1.336  1.00  0.00     0.027 C 
BRANCH  11  12
HETATM   12  C   LIG L   1      38.942  -3.394   0.336  1.00  0.00     0.004 C 
BRANCH  12  13
HETATM   13  C   LIG L   1      39.695  -3.098  -0.961  1.00  0.00     0.000 C 
BRANCH  13  14
HETATM   14  C   LIG L   1      40.738  -4.181  -1.242  1.00  0.00    -0.000 C 
BRANCH  14  15
HETATM   15  C   LIG L   1      40.336  -5.052  -2.431  1.00  0.00    -0.005 C 
HETATM   16  C   LIG L   1      40.954  -6.438  -2.337  1.00  0.00     0.005 C 
ENDBRANCH  14  15
ENDBRANCH  13  14
ENDBRANCH  12  13
ENDBRANCH  11  12
ENDBRANCH  10  11
ENDBRANCH   8   9
ENDBRANCH   7   8
ENDBRANCH   4   7
BRANCH   3  17
HETATM   17  O   LIG L   1      38.478   3.289  -0.013  1.00  0.00    -0.388 OA
HETATM   18  H   LIG L   1      37.856   3.887   0.450  1.00  0.00     0.210 HD
ENDBRANCH   3  17
BRANCH   2  19
HETATM   19  O   LIG L   1      39.014   5.489   1.758  1.00  0.00    -0.390 OA
HETATM   20  H   LIG L   1      38.386   4.754   1.919  1.00  0.00     0.210 HD
ENDBRANCH   2  19
BRANCH   6  21
HETATM   21  C   LIG L   1      43.860   4.863   0.721  1.00  0.00     0.198 C 
BRANCH  21  22
HETATM   22  O   LIG L   1      44.364   3.817   1.541  1.00  0.00    -0.398 OA
HETATM   23  H   LIG L   1      45.016   3.320   1.015  1.00  0.00     0.209 HD
ENDBRANCH  21  22
ENDBRANCH   6  21
BRANCH   1  24
HETATM   24  O   LIG L   1      41.526   4.787   2.648  1.00  0.00    -0.390 OA
HETATM   25  H   LIG L   1      40.815   5.199   3.178  1.00  0.00     0.210 HD
ENDBRANCH   1  24
TORSDOF 13
ENDMDL
