REMARK  22 active torsions:
REMARK  status: ('A' for Active; 'I' for Inactive)
REMARK    1  A    between atoms: C_6  and  N_10 
REMARK    2  A    between atoms: N_7  and  C_11 
REMARK    3  A    between atoms: C_13  and  C_18 
REMARK    4  A    between atoms: C_14  and  O_16 
REMARK    5  A    between atoms: C_15  and  O_17 
REMARK    6  A    between atoms: O_16  and  P_20 
REMARK    7  A    between atoms: C_18  and  O_19 
REMARK    8  A    between atoms: O_19  and  P_24 
REMARK    9  A    between atoms: P_24  and  O_25 
REMARK   10  A    between atoms: O_25  and  P_26 
REMARK   11  A    between atoms: P_26  and  O_27 
REMARK   12  A    between atoms: O_27  and  C_28 
REMARK   13  A    between atoms: C_28  and  C_29 
REMARK   14  A    between atoms: C_29  and  C_30 
REMARK   15  A    between atoms: C_30  and  C_31 
REMARK       I    between atoms: C_31  and  N_32 
REMARK   16  A    between atoms: N_32  and  C_33 
REMARK   17  A    between atoms: C_33  and  C_34 
REMARK   18  A    between atoms: C_34  and  C_43 
REMARK       I    between atoms: C_43  and  N_44 
REMARK   19  A    between atoms: N_44  and  C_45 
REMARK   20  A    between atoms: C_45  and  C_47 
REMARK   21  A    between atoms: C_47  and  S_48 
REMARK   22  A    between atoms: S_48  and  C_49 
ROOT
ATOM      1  P   LIG     1       3.045  -1.860   7.079  1.00  0.00     0.417 P 
ATOM      2  O   LIG     1       2.941  -2.555   5.728  1.00  0.00    -0.624 OA
ATOM      3  O   LIG     1       1.826  -1.854   7.972  1.00  0.00    -0.624 OA
ENDROOT
BRANCH   1   4
ATOM      4  O   LIG     1       4.270  -2.587   7.895  1.00  0.00    -0.287 OA
BRANCH   4   5
ATOM      5  C   LIG     1       4.367  -3.997   7.773  1.00  0.00     0.216 C 
BRANCH   5   6
ATOM      6  C   LIG     1       5.034  -4.691   8.981  1.00  0.00     0.180 C 
ATOM      7  O   LIG     1       4.984  -6.152   8.725  1.00  0.00    -0.353 OA
ATOM      8  C   LIG     1       6.357  -6.618   8.860  1.00  0.00     0.262 C 
ATOM      9  C   LIG     1       7.207  -5.433   8.433  1.00  0.00     0.199 C 
ATOM     10  C   LIG     1       6.527  -4.340   9.268  1.00  0.00     0.199 C 
BRANCH   8  11
ATOM     11  N   LIG     1       6.531  -7.868   8.146  1.00  0.00    -0.294 N 
ATOM     12  C   LIG     1       6.823  -8.095   6.829  1.00  0.00     0.166 A 
ATOM     13  N   LIG     1       6.919  -7.218   5.817  1.00  0.00    -0.222 NA
ATOM     14  C   LIG     1       7.027  -9.465   6.742  1.00  0.00     0.144 A 
ATOM     15  C   LIG     1       7.278  -7.817   4.671  1.00  0.00     0.237 A 
ATOM     16  N   LIG     1       7.504  -9.132   4.435  1.00  0.00    -0.228 NA
ATOM     17  C   LIG     1       7.396  -9.976   5.484  1.00  0.00     0.135 A 
ATOM     18  N   LIG     1       6.800 -10.094   7.947  1.00  0.00    -0.236 NA
ATOM     19  C   LIG     1       6.543  -9.098   8.775  1.00  0.00     0.214 A 
BRANCH  17  20
ATOM     20  N   LIG     1       7.615 -11.340   5.256  1.00  0.00    -0.285 NA
ATOM     21  H   LIG     1       7.385 -11.560   4.298  1.00  0.00     0.125 HD
ATOM     22  H   LIG     1       7.174 -11.884   5.991  1.00  0.00     0.125 HD
ENDBRANCH  17  20
ENDBRANCH   8  11
BRANCH   9  23
ATOM     23  O   LIG     1       8.612  -5.613   8.489  1.00  0.00    -0.388 OA
ATOM     24  H   LIG     1       8.924  -5.167   9.332  1.00  0.00     0.210 HD
ENDBRANCH   9  23
BRANCH  10  25
ATOM     25  O   LIG     1       6.671  -4.426  10.694  1.00  0.00    -0.272 OA
BRANCH  25  26
ATOM     26  P   LIG     1       8.024  -4.889  11.473  1.00  0.00     0.422 P 
ATOM     27  O   LIG     1       7.905  -6.404  11.537  1.00  0.00    -0.617 OA
ATOM     28  O   LIG     1       7.956  -4.205  12.825  1.00  0.00    -0.617 OA
ATOM     29  O   LIG     1       9.156  -4.425  10.570  1.00  0.00    -0.617 OA
ENDBRANCH  25  26
ENDBRANCH  10  25
ENDBRANCH   5   6
ENDBRANCH   4   5
ENDBRANCH   1   4
BRANCH   1  30
ATOM     30  O   LIG     1       3.686  -0.418   6.850  1.00  0.00    -0.180 OA
BRANCH  30  31
ATOM     31  P   LIG     1       3.328   1.090   7.209  1.00  0.00     0.417 P 
ATOM     32  O   LIG     1       4.065   2.016   6.248  1.00  0.00    -0.624 OA
ATOM     33  O   LIG     1       3.432   1.392   8.687  1.00  0.00    -0.624 OA
BRANCH  31  34
ATOM     34  O   LIG     1       1.759   1.210   6.781  1.00  0.00    -0.289 OA
BRANCH  34  35
ATOM     35  C   LIG     1       1.159   2.459   7.086  1.00  0.00     0.191 C 
BRANCH  35  36
ATOM     36  C   LIG     1       0.418   3.066   5.857  1.00  0.00    -0.014 C 
ATOM     37  C   LIG     1       0.690   2.248   4.568  1.00  0.00     0.018 C 
ATOM     38  C   LIG     1       0.977   4.486   5.581  1.00  0.00     0.018 C 
BRANCH  36  39
ATOM     39  C   LIG     1      -1.130   3.175   6.084  1.00  0.00     0.083 C 
ATOM     40  C   LIG     1      -1.820   1.822   6.310  1.00  0.00     0.020 C 
BRANCH  39  41
ATOM     41  C   LIG     1      -1.545   4.120   7.224  1.00  0.00     0.222 C 
ATOM     42  O   LIG     1      -0.847   4.404   8.194  1.00  0.00    -0.273 OA
ATOM     43  N   LIG     1      -2.801   4.672   7.202  1.00  0.00    -0.360 N 
ATOM     44  H   LIG     1      -2.942   5.247   8.025  1.00  0.00     0.162 HD
BRANCH  43  45
ATOM     45  C   LIG     1      -3.597   4.969   6.030  1.00  0.00     0.132 C 
BRANCH  45  46
ATOM     46  C   LIG     1      -3.094   6.226   5.331  1.00  0.00     0.122 C 
BRANCH  46  47
ATOM     47  C   LIG     1      -3.879   6.435   4.063  1.00  0.00     0.219 C 
ATOM     48  O   LIG     1      -4.927   7.074   4.034  1.00  0.00    -0.274 OA
ATOM     49  N   LIG     1      -3.354   5.789   2.968  1.00  0.00    -0.360 N 
ATOM     50  H   LIG     1      -2.489   5.266   3.064  1.00  0.00     0.162 HD
BRANCH  49  51
ATOM     51  C   LIG     1      -4.075   5.708   1.713  1.00  0.00     0.133 C 
BRANCH  51  52
ATOM     52  C   LIG     1      -4.019   6.999   0.895  1.00  0.00     0.102 C 
BRANCH  52  53
ATOM     53  S   LIG     1      -4.972   6.769  -0.640  1.00  0.00    -0.091 SA
BRANCH  53  54
ATOM     54  C   LIG     1      -4.685   8.321  -1.412  1.00  0.00     0.182 C 
ATOM     55  C   LIG     1      -5.446   8.510  -2.695  1.00  0.00     0.104 C 
ATOM     56  O   LIG     1      -3.966   9.183  -0.929  1.00  0.00    -0.286 OA
ENDBRANCH  53  54
ENDBRANCH  52  53
ENDBRANCH  51  52
ENDBRANCH  49  51
ENDBRANCH  46  47
ENDBRANCH  45  46
ENDBRANCH  43  45
ENDBRANCH  39  41
ENDBRANCH  36  39
ENDBRANCH  35  36
ENDBRANCH  34  35
ENDBRANCH  31  34
ENDBRANCH  30  31
ENDBRANCH   1  30
TORSDOF 22
