REMARK  11 active torsions:
REMARK  status: ('A' for Active; 'I' for Inactive)
REMARK    1  A    between atoms: C_6  and  N_10 
REMARK    2  A    between atoms: N_7  and  C_11 
REMARK    3  A    between atoms: C_13  and  C_18 
REMARK    4  A    between atoms: C_14  and  O_16 
REMARK    5  A    between atoms: C_15  and  O_17 
REMARK    6  A    between atoms: C_18  and  O_19 
REMARK    7  A    between atoms: O_19  and  P_20 
REMARK    8  A    between atoms: P_20  and  O_21 
REMARK    9  A    between atoms: O_21  and  P_22 
REMARK   10  A    between atoms: P_22  and  O_23 
REMARK   11  A    between atoms: O_23  and  P_28 
ROOT
ATOM      1  C   LIG     1       1.860   2.888   0.235  1.00  0.00     0.262 C 
ATOM      2  O   LIG     1       2.373   3.243   1.528  1.00  0.00    -0.353 OA
ATOM      3  C   LIG     1       2.055   4.636   1.782  1.00  0.00     0.180 C 
ATOM      4  C   LIG     1       1.610   5.244   0.451  1.00  0.00     0.182 C 
ATOM      5  C   LIG     1       1.018   4.056  -0.293  1.00  0.00     0.198 C 
ENDROOT
BRANCH   3   6
ATOM      6  C   LIG     1       0.981   4.710   2.855  1.00  0.00     0.216 C 
BRANCH   6   7
ATOM      7  O   LIG     1       0.740   6.057   3.192  1.00  0.00    -0.287 OA
BRANCH   7   8
ATOM      8  P   LIG     1      -0.363   6.242   4.391  1.00  0.00     0.417 P 
ATOM      9  O   LIG     1       0.294   5.571   5.593  1.00  0.00    -0.624 OA
ATOM     10  O   LIG     1      -1.636   5.596   3.873  1.00  0.00    -0.624 OA
BRANCH   8  11
ATOM     11  O   LIG     1      -0.385   7.833   4.559  1.00  0.00    -0.180 OA
BRANCH  11  12
ATOM     12  P   LIG     1      -1.139   8.987   3.724  1.00  0.00     0.428 P 
ATOM     13  O   LIG     1      -2.597   9.067   4.154  1.00  0.00    -0.624 OA
ATOM     14  O   LIG     1      -0.891   8.711   2.233  1.00  0.00    -0.624 OA
BRANCH  12  15
ATOM     15  O   LIG     1      -0.315  10.321   4.076  1.00  0.00    -0.173 OA
BRANCH  15  16
ATOM     16  P   LIG     1      -0.013  11.412   5.224  1.00  0.00     0.431 P 
ATOM     17  O   LIG     1       0.633  10.696   6.408  1.00  0.00    -0.616 OA
ATOM     18  O   LIG     1       0.981  12.385   4.561  1.00  0.00    -0.616 OA
ATOM     19  O   LIG     1      -1.314  12.133   5.575  1.00  0.00    -0.616 OA
ENDBRANCH  15  16
ENDBRANCH  12  15
ENDBRANCH  11  12
ENDBRANCH   8  11
ENDBRANCH   7   8
ENDBRANCH   6   7
ENDBRANCH   3   6
BRANCH   4  20
ATOM     20  O   LIG     1       2.754   5.703  -0.309  1.00  0.00    -0.390 OA
ATOM     21  H   LIG     1       3.008   6.535   0.145  1.00  0.00     0.210 HD
ENDBRANCH   4  20
BRANCH   1  22
ATOM     22  N   LIG     1       1.174   1.613   0.354  1.00  0.00    -0.294 N 
ATOM     23  C   LIG     1       1.716   0.381   0.078  1.00  0.00     0.166 A 
ATOM     24  N   LIG     1       2.953   0.087  -0.368  1.00  0.00    -0.222 NA
ATOM     25  C   LIG     1       0.710  -0.525   0.367  1.00  0.00     0.144 A 
ATOM     26  C   LIG     1       3.117  -1.244  -0.494  1.00  0.00     0.237 A 
ATOM     27  N   LIG     1       2.227  -2.237  -0.273  1.00  0.00    -0.228 NA
ATOM     28  C   LIG     1       1.002  -1.888   0.183  1.00  0.00     0.135 A 
ATOM     29  N   LIG     1      -0.435   0.116   0.778  1.00  0.00    -0.236 NA
ATOM     30  C   LIG     1      -0.104   1.393   0.810  1.00  0.00     0.214 A 
BRANCH  28  31
ATOM     31  N   LIG     1       0.073  -2.900   0.425  1.00  0.00    -0.285 NA
ATOM     32  H   LIG     1       0.246  -3.707  -0.154  1.00  0.00     0.125 HD
ATOM     33  H   LIG     1      -0.872  -2.529   0.464  1.00  0.00     0.125 HD
ENDBRANCH  28  31
ENDBRANCH   1  22
BRANCH   5  34
ATOM     34  O   LIG     1       1.153   4.202  -1.717  1.00  0.00    -0.388 OA
ATOM     35  H   LIG     1       1.821   4.918  -1.809  1.00  0.00     0.210 HD
ENDBRANCH   5  34
TORSDOF 11
