REMARK  8 active torsions:
REMARK  status: ('A' for Active; 'I' for Inactive)
REMARK    1  A    between atoms: C_4  and  C_24 
REMARK    2  A    between atoms: C_5  and  C_7 
REMARK    3  A    between atoms: C_6  and  O_17 
REMARK       I    between atoms: C_7  and  N_8 
REMARK    4  A    between atoms: N_8  and  C_9 
REMARK    5  A    between atoms: C_15  and  C_20 
REMARK    6  A    between atoms: O_17  and  C_18 
REMARK    7  A    between atoms: C_24  and  C_25 
REMARK    8  A    between atoms: C_25  and  C_26 
ROOT
HETATM    1  C   LIG     1       0.652   1.437  -1.111  1.00  0.00     0.259 C 
HETATM    2  N   LIG     1       1.896   1.800  -1.608  1.00  0.00    -0.323 N 
HETATM    3  O   LIG     1      -0.104   2.195  -0.525  1.00  0.00    -0.267 OA
HETATM    4  H   LIG     1       2.422   1.054  -2.045  1.00  0.00     0.169 HD
ENDROOT
BRANCH   1   5
HETATM    5  C   LIG     1       0.241  -0.014  -1.309  1.00  0.00     0.071 C 
HETATM    6  C   LIG     1      -1.144  -0.348  -1.363  1.00  0.00    -0.040 C 
HETATM    7  C   LIG     1      -1.507  -1.707  -1.322  1.00  0.00     0.008 C 
HETATM    8  C   LIG     1      -0.555  -2.712  -1.393  1.00  0.00     0.003 C 
HETATM    9  C   LIG     1       0.792  -2.384  -1.471  1.00  0.00     0.038 C 
HETATM   10  C   LIG     1       1.212  -1.053  -1.368  1.00  0.00     0.085 C 
BRANCH   6  11
HETATM   11  C   LIG     1      -2.231   0.711  -1.530  1.00  0.00     0.040 C 
BRANCH  11  12
HETATM   12  C   LIG     1      -3.636   0.182  -1.881  1.00  0.00     0.004 C 
BRANCH  12  13
HETATM   13  C   LIG     1      -4.598   1.244  -2.414  1.00  0.00    -0.004 C 
HETATM   14  C   LIG     1      -4.307   1.618  -3.859  1.00  0.00     0.005 C 
ENDBRANCH  12  13
ENDBRANCH  11  12
ENDBRANCH   6  11
BRANCH  10  15
HETATM   15  O   LIG     1       2.538  -0.705  -1.306  1.00  0.00    -0.350 OA
BRANCH  15  16
HETATM   16  C   LIG     1       3.556  -1.712  -1.333  1.00  0.00     0.171 C 
HETATM   17  C   LIG     1       3.656  -2.504  -0.038  1.00  0.00     0.034 C 
ENDBRANCH  15  16
ENDBRANCH  10  15
ENDBRANCH   1   5
BRANCH   2  18
HETATM   18  C   LIG     1       2.577   3.026  -1.428  1.00  0.00     0.035 A 
HETATM   19  C   LIG     1       2.064   4.122  -0.727  1.00  0.00     0.047 A 
HETATM   20  C   LIG     1       2.824   5.297  -0.531  1.00  0.00     0.071 A 
HETATM   21  C   LIG     1       4.114   5.358  -1.065  1.00  0.00     0.049 A 
HETATM   22  C   LIG     1       4.629   4.277  -1.784  1.00  0.00     0.027 A 
HETATM   23 CL   LIG     1       5.134   6.737  -0.863  1.00  0.00    -0.083 Cl
HETATM   24  C   LIG     1       3.866   3.120  -1.962  1.00  0.00     0.031 A 
BRANCH  20  25
HETATM   25  C   LIG     1       2.252   6.441   0.262  1.00  0.00     0.419 C 
HETATM   26  F   LIG     1       0.963   6.237   0.661  1.00  0.00    -0.166 F 
HETATM   27  F   LIG     1       2.228   7.614  -0.430  1.00  0.00    -0.166 F 
HETATM   28  F   LIG     1       2.947   6.689   1.407  1.00  0.00    -0.166 F 
ENDBRANCH  20  25
ENDBRANCH   2  18
TORSDOF 8
