REMARK  23 active torsions:
REMARK  status: ('A' for Active; 'I' for Inactive)
REMARK    1  A    between atoms: C_6  and  N_10 
REMARK    2  A    between atoms: N_7  and  C_11 
REMARK    3  A    between atoms: C_13  and  C_18 
REMARK    4  A    between atoms: C_14  and  O_16 
REMARK    5  A    between atoms: C_15  and  O_17 
REMARK    6  A    between atoms: O_16  and  P_20 
REMARK    7  A    between atoms: C_18  and  O_19 
REMARK    8  A    between atoms: O_19  and  P_24 
REMARK    9  A    between atoms: P_24  and  O_25 
REMARK   10  A    between atoms: O_25  and  P_26 
REMARK   11  A    between atoms: P_26  and  O_27 
REMARK   12  A    between atoms: O_27  and  C_28 
REMARK   13  A    between atoms: C_28  and  C_29 
REMARK   14  A    between atoms: C_29  and  C_30 
REMARK   15  A    between atoms: C_30  and  C_31 
REMARK       I    between atoms: C_31  and  N_32 
REMARK   16  A    between atoms: N_32  and  C_33 
REMARK   17  A    between atoms: C_33  and  C_34 
REMARK   18  A    between atoms: C_34  and  C_43 
REMARK       I    between atoms: C_43  and  N_44 
REMARK   19  A    between atoms: N_44  and  C_45 
REMARK   20  A    between atoms: C_45  and  C_47 
REMARK   21  A    between atoms: C_47  and  S_48 
REMARK   22  A    between atoms: S_48  and  C_49 
REMARK   23  A    between atoms: C_49  and  C_50 
ROOT
HETATM    1  P   LIG     1      -8.970   6.514   3.721  1.00  0.00     0.417 P 
HETATM    2  O   LIG     1      -9.502   6.398   2.306  1.00  0.00    -0.624 OA
HETATM    3  O   LIG     1      -8.125   7.713   4.104  1.00  0.00    -0.624 OA
ENDROOT
BRANCH   1   4
HETATM    4  O   LIG     1     -10.311   6.547   4.679  1.00  0.00    -0.287 OA
BRANCH   4   5
HETATM    5  C   LIG     1     -10.194   7.247   5.905  1.00  0.00     0.216 C 
BRANCH   5   6
HETATM    6  C   LIG     1     -11.505   7.354   6.698  1.00  0.00     0.180 C 
HETATM    7  O   LIG     1     -12.576   8.012   5.972  1.00  0.00    -0.353 OA
HETATM    8  C   LIG     1     -13.651   7.066   5.804  1.00  0.00     0.262 C 
HETATM    9  C   LIG     1     -13.210   5.683   6.284  1.00  0.00     0.199 C 
HETATM   10  C   LIG     1     -12.028   6.009   7.195  1.00  0.00     0.199 C 
BRANCH   8  11
HETATM   11  N   LIG     1     -14.133   7.160   4.432  1.00  0.00    -0.294 N 
HETATM   12  C   LIG     1     -14.632   8.297   3.837  1.00  0.00     0.166 A 
HETATM   13  N   LIG     1     -14.789   9.528   4.356  1.00  0.00    -0.222 NA
HETATM   14  C   LIG     1     -14.968   7.903   2.555  1.00  0.00     0.144 A 
HETATM   15  C   LIG     1     -15.342  10.376   3.468  1.00  0.00     0.237 A 
HETATM   16  N   LIG     1     -15.698  10.144   2.186  1.00  0.00    -0.228 NA
HETATM   17  C   LIG     1     -15.500   8.882   1.701  1.00  0.00     0.135 A 
HETATM   18  N   LIG     1     -14.712   6.568   2.348  1.00  0.00    -0.236 NA
HETATM   19  C   LIG     1     -14.251   6.147   3.509  1.00  0.00     0.214 A 
BRANCH  17  20
HETATM   20  N   LIG     1     -15.824   8.563   0.362  1.00  0.00    -0.285 NA
HETATM   21  H   LIG     1     -15.478   9.271  -0.275  1.00  0.00     0.125 HD
HETATM   22  H   LIG     1     -15.443   7.631   0.159  1.00  0.00     0.125 HD
ENDBRANCH  17  20
ENDBRANCH   8  11
BRANCH   9  23
HETATM   23  O   LIG     1     -14.286   4.941   6.939  1.00  0.00    -0.388 OA
HETATM   24  H   LIG     1     -13.834   4.202   7.428  1.00  0.00     0.210 HD
ENDBRANCH   9  23
BRANCH  10  25
HETATM   25  O   LIG     1     -12.494   6.180   8.536  1.00  0.00    -0.272 OA
BRANCH  25  26
HETATM   26  P   LIG     1     -12.900   4.788   9.298  1.00  0.00     0.422 P 
HETATM   27  O   LIG     1     -12.835   3.708   8.217  1.00  0.00    -0.617 OA
HETATM   28  O   LIG     1     -14.338   5.033   9.719  1.00  0.00    -0.617 OA
HETATM   29  O   LIG     1     -11.874   4.659  10.414  1.00  0.00    -0.617 OA
ENDBRANCH  25  26
ENDBRANCH  10  25
ENDBRANCH   5   6
ENDBRANCH   4   5
ENDBRANCH   1   4
BRANCH   1  30
HETATM   30  O   LIG     1      -8.334   5.170   4.283  1.00  0.00    -0.180 OA
BRANCH  30  31
HETATM   31  P   LIG     1      -7.215   4.077   4.047  1.00  0.00     0.417 P 
HETATM   32  O   LIG     1      -7.295   3.423   2.685  1.00  0.00    -0.624 OA
HETATM   33  O   LIG     1      -7.236   3.163   5.266  1.00  0.00    -0.624 OA
BRANCH  31  34
HETATM   34  O   LIG     1      -5.796   4.900   4.064  1.00  0.00    -0.289 OA
BRANCH  34  35
HETATM   35  C   LIG     1      -4.661   4.095   4.370  1.00  0.00     0.191 C 
BRANCH  35  36
HETATM   36  C   LIG     1      -3.288   4.699   3.968  1.00  0.00    -0.014 C 
HETATM   37  C   LIG     1      -2.983   4.380   2.480  1.00  0.00     0.018 C 
HETATM   38  C   LIG     1      -2.197   3.946   4.784  1.00  0.00     0.018 C 
BRANCH  36  39
HETATM   39  C   LIG     1      -3.107   6.236   4.192  1.00  0.00     0.083 C 
HETATM   40  C   LIG     1      -3.914   7.172   3.288  1.00  0.00     0.020 C 
BRANCH  39  41
HETATM   41  C   LIG     1      -3.235   6.695   5.649  1.00  0.00     0.222 C 
HETATM   42  O   LIG     1      -3.904   6.085   6.471  1.00  0.00    -0.273 OA
HETATM   43  N   LIG     1      -2.585   7.822   6.094  1.00  0.00    -0.360 N 
HETATM   44  H   LIG     1      -2.930   8.029   7.026  1.00  0.00     0.162 HD
BRANCH  43  45
HETATM   45  C   LIG     1      -1.447   8.642   5.635  1.00  0.00     0.132 C 
BRANCH  45  46
HETATM   46  C   LIG     1      -0.593   8.035   4.541  1.00  0.00     0.122 C 
BRANCH  46  47
HETATM   47  C   LIG     1       0.743   8.665   4.196  1.00  0.00     0.219 C 
HETATM   48  O   LIG     1       1.105   9.779   4.525  1.00  0.00    -0.274 OA
HETATM   49  N   LIG     1       1.461   7.791   3.380  1.00  0.00    -0.360 N 
HETATM   50  H   LIG     1       0.942   6.979   3.059  1.00  0.00     0.162 HD
BRANCH  49  51
HETATM   51  C   LIG     1       2.651   8.176   2.632  1.00  0.00     0.133 C 
BRANCH  51  52
HETATM   52  C   LIG     1       3.863   8.488   3.513  1.00  0.00     0.102 C 
BRANCH  52  53
HETATM   53  S   LIG     1       5.385   8.838   2.562  1.00  0.00    -0.086 SA
BRANCH  53  54
HETATM   54  C   LIG     1       5.620   7.285   1.786  1.00  0.00     0.208 C 
HETATM   55  O   LIG     1       5.178   7.058   0.666  1.00  0.00    -0.281 OA
BRANCH  54  56
HETATM   56  C   LIG     1       6.366   6.242   2.544  1.00  0.00     0.058 C 
HETATM   57  C   LIG     1       7.373   6.458   3.408  1.00  0.00    -0.026 C 
HETATM   58  C   LIG     1       8.108   5.339   4.074  1.00  0.00     0.036 C 
ENDBRANCH  54  56
ENDBRANCH  53  54
ENDBRANCH  52  53
ENDBRANCH  51  52
ENDBRANCH  49  51
ENDBRANCH  46  47
ENDBRANCH  45  46
ENDBRANCH  43  45
ENDBRANCH  39  41
ENDBRANCH  36  39
ENDBRANCH  35  36
ENDBRANCH  34  35
ENDBRANCH  31  34
ENDBRANCH  30  31
ENDBRANCH   1  30
TORSDOF 23
