REMARK  0 active torsions:
REMARK  status: ('A' for Active; 'I' for Inactive)
ROOT
HETATM    1  C   LIG     1      -1.281  -3.158  -0.073  1.00  0.00     0.038 A 
HETATM    2  C   LIG     1      -1.321  -4.086  -1.119  1.00  0.00     0.003 A 
HETATM    3  C   LIG     1      -0.237  -4.218  -1.976  1.00  0.00     0.001 A 
HETATM    4  C   LIG     1       0.878  -3.402  -1.799  1.00  0.00     0.020 A 
HETATM    5  C   LIG     1       0.938  -2.468  -0.747  1.00  0.00     0.065 A 
HETATM    6  C   LIG     1      -0.141  -2.372   0.154  1.00  0.00     0.084 A 
HETATM    7  C   LIG     1       2.190  -1.647  -0.685  1.00  0.00     0.259 C 
HETATM    8  N   LIG     1       2.550  -1.139   0.549  1.00  0.00    -0.323 N 
HETATM    9  C   LIG     1       3.771  -0.523   0.892  1.00  0.00     0.035 A 
HETATM   10  C   LIG     1       3.962  -0.144   2.221  1.00  0.00     0.031 A 
HETATM   11  C   LIG     1       4.815  -0.308  -0.018  1.00  0.00     0.047 A 
HETATM   12  C   LIG     1       5.172   0.420   2.635  1.00  0.00     0.027 A 
HETATM   13  C   LIG     1       6.211   0.617   1.721  1.00  0.00     0.049 A 
HETATM   14 CL   LIG     1       7.679   1.303   2.313  1.00  0.00    -0.083 Cl
HETATM   15  C   LIG     1       6.045   0.257   0.381  1.00  0.00     0.071 A 
HETATM   16  O   LIG     1       2.840  -1.525  -1.721  1.00  0.00    -0.267 OA
HETATM   17  O   LIG     1      -0.064  -1.455   1.170  1.00  0.00    -0.350 OA
HETATM   18  C   LIG     1      -0.718  -1.763   2.407  1.00  0.00     0.171 C 
HETATM   19  C   LIG     1       0.336  -2.127   3.438  1.00  0.00     0.034 C 
HETATM   20  C   LIG     1       7.144   0.441  -0.631  1.00  0.00     0.419 C 
HETATM   21  F   LIG     1       7.523   1.741  -0.775  1.00  0.00    -0.166 F 
HETATM   22  F   LIG     1       8.273  -0.255  -0.319  1.00  0.00    -0.166 F 
HETATM   23  F   LIG     1       6.804   0.025  -1.885  1.00  0.00    -0.166 F 
HETATM   24  H   LIG     1       1.865  -1.252   1.288  1.00  0.00     0.169 HD
ENDROOT
TORSDOF 0
