REMARK  19 active torsions:
REMARK  status: ('A' for Active; 'I' for Inactive)
REMARK    1  A    between atoms: C_4  and  C_24 
REMARK    2  A    between atoms: C_5  and  C_7 
REMARK    3  A    between atoms: C_6  and  O_17 
REMARK       I    between atoms: C_7  and  N_8 
REMARK    4  A    between atoms: N_8  and  C_9 
REMARK    5  A    between atoms: C_15  and  C_20 
REMARK    6  A    between atoms: O_17  and  C_18 
REMARK    7  A    between atoms: C_24  and  C_25 
REMARK    8  A    between atoms: C_25  and  C_26 
REMARK    9  A    between atoms: C_26  and  C_27 
REMARK   10  A    between atoms: C_27  and  C_28 
REMARK   11  A    between atoms: C_28  and  C_29 
REMARK   12  A    between atoms: C_29  and  C_30 
REMARK   13  A    between atoms: C_30  and  C_31 
REMARK   14  A    between atoms: C_31  and  C_32 
REMARK   15  A    between atoms: C_32  and  C_33 
REMARK   16  A    between atoms: C_33  and  C_34 
REMARK   17  A    between atoms: C_34  and  C_35 
REMARK   18  A    between atoms: C_35  and  C_36 
REMARK   19  A    between atoms: C_36  and  C_37 
ROOT
ATOM      1  C   LIG     1      -1.161   3.251  -7.014  1.00  0.00     0.038 A 
ATOM      2  C   LIG     1      -1.698   2.696  -5.853  1.00  0.00     0.003 A 
ATOM      3  C   LIG     1      -2.473   3.475  -4.995  1.00  0.00     0.008 A 
ATOM      4  C   LIG     1      -2.756   4.816  -5.299  1.00  0.00    -0.040 A 
ATOM      5  C   LIG     1      -2.244   5.356  -6.498  1.00  0.00     0.071 A 
ATOM      6  C   LIG     1      -1.403   4.591  -7.332  1.00  0.00     0.085 A 
ENDROOT
BRANCH   4   7
ATOM      7  C   LIG     1      -3.570   5.619  -4.307  1.00  0.00     0.040 C 
BRANCH   7   8
ATOM      8  C   LIG     1      -2.674   6.293  -3.261  1.00  0.00     0.005 C 
BRANCH   8   9
ATOM      9  C   LIG     1      -3.474   6.934  -2.126  1.00  0.00     0.000 C 
BRANCH   9  10
ATOM     10  C   LIG     1      -3.846   5.926  -1.033  1.00  0.00     0.000 C 
BRANCH  10  11
ATOM     11  C   LIG     1      -4.667   6.598   0.068  1.00  0.00     0.000 C 
BRANCH  11  12
ATOM     12  C   LIG     1      -4.976   5.672   1.246  1.00  0.00     0.000 C 
BRANCH  12  13
ATOM     13  C   LIG     1      -3.749   5.372   2.118  1.00  0.00     0.000 C 
BRANCH  13  14
ATOM     14  C   LIG     1      -4.135   4.733   3.456  1.00  0.00     0.000 C 
BRANCH  14  15
ATOM     15  C   LIG     1      -4.548   3.264   3.331  1.00  0.00     0.000 C 
BRANCH  15  16
ATOM     16  C   LIG     1      -5.458   2.851   4.489  1.00  0.00     0.000 C 
BRANCH  16  17
ATOM     17  C   LIG     1      -5.793   1.359   4.446  1.00  0.00     0.000 C 
BRANCH  17  18
ATOM     18  C   LIG     1      -7.021   1.049   5.305  1.00  0.00     0.000 C 
BRANCH  18  19
ATOM     19  C   LIG     1      -7.296  -0.453   5.377  1.00  0.00    -0.000 C 
BRANCH  19  20
ATOM     20  C   LIG     1      -8.699  -0.788   5.890  1.00  0.00    -0.005 C 
ATOM     21  C   LIG     1      -9.005  -0.223   7.268  1.00  0.00     0.005 C 
ENDBRANCH  19  20
ENDBRANCH  18  19
ENDBRANCH  17  18
ENDBRANCH  16  17
ENDBRANCH  15  16
ENDBRANCH  14  15
ENDBRANCH  13  14
ENDBRANCH  12  13
ENDBRANCH  11  12
ENDBRANCH  10  11
ENDBRANCH   9  10
ENDBRANCH   8   9
ENDBRANCH   7   8
ENDBRANCH   4   7
BRANCH   5  22
ATOM     22  C   LIG     1      -2.545   6.753  -6.880  1.00  0.00     0.259 C 
ATOM     23  O   LIG     1      -2.090   7.669  -6.196  1.00  0.00    -0.267 OA
ATOM     24  N   LIG     1      -3.260   7.053  -8.020  1.00  0.00    -0.323 N 
ATOM     25  H   LIG     1      -3.151   8.032  -8.259  1.00  0.00     0.169 HD
BRANCH  24  26
ATOM     26  C   LIG     1      -4.007   6.263  -8.909  1.00  0.00     0.035 A 
ATOM     27  C   LIG     1      -4.514   4.997  -8.609  1.00  0.00     0.047 A 
ATOM     28  C   LIG     1      -5.250   4.253  -9.556  1.00  0.00     0.071 A 
ATOM     29  C   LIG     1      -5.483   4.813 -10.816  1.00  0.00     0.049 A 
ATOM     30  C   LIG     1      -5.010   6.093 -11.114  1.00  0.00     0.027 A 
ATOM     31 CL   LIG     1      -6.355   3.978 -12.048  1.00  0.00    -0.083 Cl
ATOM     32  C   LIG     1      -4.288   6.815 -10.162  1.00  0.00     0.031 A 
BRANCH  28  33
ATOM     33  C   LIG     1      -5.769   2.888  -9.196  1.00  0.00     0.419 C 
ATOM     34  F   LIG     1      -5.477   2.524  -7.912  1.00  0.00    -0.166 F 
ATOM     35  F   LIG     1      -5.251   1.898  -9.974  1.00  0.00    -0.166 F 
ATOM     36  F   LIG     1      -7.123   2.787  -9.294  1.00  0.00    -0.166 F 
ENDBRANCH  28  33
ENDBRANCH  24  26
ENDBRANCH   5  22
BRANCH   6  37
ATOM     37  O   LIG     1      -0.882   5.207  -8.440  1.00  0.00    -0.350 OA
BRANCH  37  38
ATOM     38  C   LIG     1       0.347   4.684  -8.943  1.00  0.00     0.171 C 
ATOM     39  C   LIG     1       0.998   5.759  -9.793  1.00  0.00     0.034 C 
ENDBRANCH  37  38
ENDBRANCH   6  37
TORSDOF 19
