REMARK  30 active torsions:
REMARK  status: ('A' for Active; 'I' for Inactive)
REMARK    1  A    between atoms: C_6  and  N_10 
REMARK    2  A    between atoms: N_7  and  C_11 
REMARK    3  A    between atoms: C_13  and  C_18 
REMARK    4  A    between atoms: C_14  and  O_16 
REMARK    5  A    between atoms: C_15  and  O_17 
REMARK    6  A    between atoms: O_16  and  P_20 
REMARK    7  A    between atoms: C_18  and  O_19 
REMARK    8  A    between atoms: O_19  and  P_24 
REMARK    9  A    between atoms: P_24  and  O_25 
REMARK   10  A    between atoms: O_25  and  P_26 
REMARK   11  A    between atoms: P_26  and  O_27 
REMARK   12  A    between atoms: O_27  and  C_28 
REMARK   13  A    between atoms: C_28  and  C_29 
REMARK   14  A    between atoms: C_29  and  C_30 
REMARK   15  A    between atoms: C_30  and  C_31 
REMARK       I    between atoms: C_31  and  N_32 
REMARK   16  A    between atoms: N_32  and  C_33 
REMARK   17  A    between atoms: C_33  and  C_34 
REMARK   18  A    between atoms: C_34  and  C_43 
REMARK       I    between atoms: C_43  and  N_44 
REMARK   19  A    between atoms: N_44  and  C_45 
REMARK   20  A    between atoms: C_45  and  C_47 
REMARK   21  A    between atoms: C_47  and  S_48 
REMARK   22  A    between atoms: S_48  and  C_49 
REMARK   23  A    between atoms: C_49  and  C_51 
REMARK   24  A    between atoms: C_51  and  C_52 
REMARK   25  A    between atoms: C_52  and  C_53 
REMARK   26  A    between atoms: C_53  and  C_54 
REMARK   27  A    between atoms: C_54  and  C_55 
REMARK   28  A    between atoms: C_55  and  C_56 
REMARK   29  A    between atoms: C_56  and  C_57 
REMARK   30  A    between atoms: C_57  and  C_58 
ROOT
ATOM      1  P   LIG     1      -5.159   5.261   7.290  1.00  0.00     0.417 P 
ATOM      2  O   LIG     1      -4.095   5.692   8.285  1.00  0.00    -0.624 OA
ATOM      3  O   LIG     1      -6.333   4.431   7.767  1.00  0.00    -0.624 OA
ENDROOT
BRANCH   1   4
ATOM      4  O   LIG     1      -5.514   6.422   6.245  1.00  0.00    -0.180 OA
BRANCH   4   5
ATOM      5  P   LIG     1      -6.669   7.536   6.250  1.00  0.00     0.417 P 
ATOM      6  O   LIG     1      -7.932   6.978   5.620  1.00  0.00    -0.624 OA
ATOM      7  O   LIG     1      -6.749   8.284   7.561  1.00  0.00    -0.624 OA
BRANCH   5   8
ATOM      8  O   LIG     1      -6.044   8.606   5.156  1.00  0.00    -0.287 OA
BRANCH   8   9
ATOM      9  C   LIG     1      -7.011   9.462   4.555  1.00  0.00     0.216 C 
BRANCH   9  10
ATOM     10  C   LIG     1      -6.482  10.760   3.880  1.00  0.00     0.180 C 
ATOM     11  O   LIG     1      -7.677  11.319   3.198  1.00  0.00    -0.353 OA
ATOM     12  C   LIG     1      -7.847  12.669   3.692  1.00  0.00     0.262 C 
ATOM     13  C   LIG     1      -7.287  12.601   5.122  1.00  0.00     0.199 C 
ATOM     14  C   LIG     1      -5.991  11.827   4.895  1.00  0.00     0.199 C 
BRANCH  12  15
ATOM     15  N   LIG     1      -9.256  13.041   3.592  1.00  0.00    -0.294 N 
ATOM     16  C   LIG     1      -9.815  13.821   2.606  1.00  0.00     0.166 A 
ATOM     17  N   LIG     1      -9.269  14.254   1.459  1.00  0.00    -0.222 NA
ATOM     18  C   LIG     1     -11.083  14.130   3.067  1.00  0.00     0.144 A 
ATOM     19  C   LIG     1     -10.078  15.087   0.794  1.00  0.00     0.237 A 
ATOM     20  N   LIG     1     -11.318  15.508   1.137  1.00  0.00    -0.228 NA
ATOM     21  C   LIG     1     -11.842  15.022   2.285  1.00  0.00     0.135 A 
ATOM     22  N   LIG     1     -11.345  13.507   4.269  1.00  0.00    -0.236 NA
ATOM     23  C   LIG     1     -10.241  12.829   4.528  1.00  0.00     0.214 A 
BRANCH  21  24
ATOM     24  N   LIG     1     -13.097  15.506   2.682  1.00  0.00    -0.285 NA
ATOM     25  H   LIG     1     -13.198  16.443   2.314  1.00  0.00     0.125 HD
ATOM     26  H   LIG     1     -13.183  15.402   3.689  1.00  0.00     0.125 HD
ENDBRANCH  21  24
ENDBRANCH  12  15
BRANCH  13  27
ATOM     27  O   LIG     1      -7.275  13.753   5.956  1.00  0.00    -0.388 OA
ATOM     28  H   LIG     1      -7.570  14.497   5.404  1.00  0.00     0.210 HD
ENDBRANCH  13  27
BRANCH  14  29
ATOM     29  O   LIG     1      -4.845  12.581   4.507  1.00  0.00    -0.272 OA
BRANCH  29  30
ATOM     30  P   LIG     1      -4.743  13.636   3.270  1.00  0.00     0.422 P 
ATOM     31  O   LIG     1      -5.710  14.756   3.643  1.00  0.00    -0.617 OA
ATOM     32  O   LIG     1      -5.158  12.839   2.047  1.00  0.00    -0.617 OA
ATOM     33  O   LIG     1      -3.282  14.066   3.256  1.00  0.00    -0.617 OA
ENDBRANCH  29  30
ENDBRANCH  14  29
ENDBRANCH   9  10
ENDBRANCH   8   9
ENDBRANCH   5   8
ENDBRANCH   4   5
ENDBRANCH   1   4
BRANCH   1  34
ATOM     34  O   LIG     1      -4.369   4.237   6.264  1.00  0.00    -0.289 OA
BRANCH  34  35
ATOM     35  C   LIG     1      -3.470   3.357   6.914  1.00  0.00     0.191 C 
BRANCH  35  36
ATOM     36  C   LIG     1      -3.239   2.038   6.128  1.00  0.00    -0.014 C 
ATOM     37  C   LIG     1      -2.720   2.379   4.715  1.00  0.00     0.018 C 
ATOM     38  C   LIG     1      -2.087   1.306   6.862  1.00  0.00     0.018 C 
BRANCH  36  39
ATOM     39  C   LIG     1      -4.582   1.197   6.104  1.00  0.00     0.083 C 
ATOM     40  C   LIG     1      -5.342   1.211   4.772  1.00  0.00     0.020 C 
BRANCH  39  41
ATOM     41  C   LIG     1      -4.393  -0.269   6.524  1.00  0.00     0.222 C 
ATOM     42  O   LIG     1      -4.070  -1.166   5.746  1.00  0.00    -0.273 OA
ATOM     43  N   LIG     1      -4.535  -0.492   7.882  1.00  0.00    -0.360 N 
ATOM     44  H   LIG     1      -4.840   0.291   8.457  1.00  0.00     0.162 HD
BRANCH  43  45
ATOM     45  C   LIG     1      -4.211  -1.767   8.491  1.00  0.00     0.132 C 
BRANCH  45  46
ATOM     46  C   LIG     1      -5.413  -2.692   8.657  1.00  0.00     0.122 C 
BRANCH  46  47
ATOM     47  C   LIG     1      -4.988  -4.123   8.952  1.00  0.00     0.219 C 
ATOM     48  O   LIG     1      -5.367  -5.079   8.280  1.00  0.00    -0.274 OA
ATOM     49  N   LIG     1      -4.168  -4.285  10.050  1.00  0.00    -0.360 N 
ATOM     50  H   LIG     1      -3.917  -3.476  10.602  1.00  0.00     0.162 HD
BRANCH  49  51
ATOM     51  C   LIG     1      -3.476  -5.540  10.302  1.00  0.00     0.133 C 
BRANCH  51  52
ATOM     52  C   LIG     1      -4.314  -6.587  11.044  1.00  0.00     0.102 C 
BRANCH  52  53
ATOM     53  S   LIG     1      -3.252  -8.022  11.440  1.00  0.00    -0.091 SA
BRANCH  53  54
ATOM     54  C   LIG     1      -4.364  -8.993  12.398  1.00  0.00     0.186 C 
ATOM     55  O   LIG     1      -5.580  -8.817  12.373  1.00  0.00    -0.286 OA
BRANCH  54  56
ATOM     56  C   LIG     1      -3.705 -10.057  13.250  1.00  0.00     0.091 C 
BRANCH  56  57
ATOM     57  C   LIG     1      -3.436 -11.345  12.471  1.00  0.00     0.008 C 
BRANCH  57  58
ATOM     58  C   LIG     1      -2.745 -12.392  13.353  1.00  0.00     0.000 C 
BRANCH  58  59
ATOM     59  C   LIG     1      -2.326 -13.628  12.549  1.00  0.00     0.000 C 
BRANCH  59  60
ATOM     60  C   LIG     1      -1.507 -14.622  13.381  1.00  0.00     0.000 C 
BRANCH  60  61
ATOM     61  C   LIG     1      -2.365 -15.499  14.298  1.00  0.00     0.000 C 
BRANCH  61  62
ATOM     62  C   LIG     1      -1.490 -16.328  15.244  1.00  0.00    -0.000 C 
BRANCH  62  63
ATOM     63  C   LIG     1      -2.320 -17.328  16.048  1.00  0.00    -0.005 C 
ATOM     64  C   LIG     1      -1.476 -18.038  17.096  1.00  0.00     0.005 C 
ENDBRANCH  62  63
ENDBRANCH  61  62
ENDBRANCH  60  61
ENDBRANCH  59  60
ENDBRANCH  58  59
ENDBRANCH  57  58
ENDBRANCH  56  57
ENDBRANCH  54  56
ENDBRANCH  53  54
ENDBRANCH  52  53
ENDBRANCH  51  52
ENDBRANCH  49  51
ENDBRANCH  46  47
ENDBRANCH  45  46
ENDBRANCH  43  45
ENDBRANCH  39  41
ENDBRANCH  36  39
ENDBRANCH  35  36
ENDBRANCH  34  35
ENDBRANCH   1  34
TORSDOF 30
