REMARK  14 active torsions:
REMARK  status: ('A' for Active; 'I' for Inactive)
REMARK    1  A    between atoms: C_4  and  C_24 
REMARK    2  A    between atoms: C_5  and  C_7 
REMARK    3  A    between atoms: C_6  and  O_17 
REMARK       I    between atoms: C_7  and  N_8 
REMARK    4  A    between atoms: N_8  and  C_9 
REMARK    5  A    between atoms: C_15  and  C_20 
REMARK    6  A    between atoms: O_17  and  C_18 
REMARK    7  A    between atoms: C_24  and  C_25 
REMARK    8  A    between atoms: C_25  and  C_26 
REMARK    9  A    between atoms: C_26  and  C_27 
REMARK   10  A    between atoms: C_27  and  C_28 
REMARK   11  A    between atoms: C_28  and  C_29 
REMARK   12  A    between atoms: C_29  and  C_30 
REMARK   13  A    between atoms: C_30  and  C_31 
REMARK   14  A    between atoms: C_31  and  C_32 
ROOT
HETATM    1  C   LIG     1       0.342  -0.517   1.704  1.00  0.00     0.038 A 
HETATM    2  C   LIG     1      -0.690   0.387   1.905  1.00  0.00     0.003 A 
HETATM    3  C   LIG     1      -0.735   1.551   1.152  1.00  0.00     0.008 A 
HETATM    4  C   LIG     1       0.247   1.840   0.179  1.00  0.00    -0.040 A 
HETATM    5  C   LIG     1       1.320   0.923  -0.030  1.00  0.00     0.071 A 
HETATM    6  C   LIG     1       1.358  -0.252   0.773  1.00  0.00     0.085 A 
ENDROOT
BRANCH   5   7
HETATM    7  C   LIG     1       2.389   1.211  -1.081  1.00  0.00     0.259 C 
HETATM    8  O   LIG     1       2.458   2.313  -1.609  1.00  0.00    -0.267 OA
HETATM    9  N   LIG     1       3.253   0.174  -1.390  1.00  0.00    -0.323 N 
HETATM   10  H   LIG     1       3.083  -0.695  -0.895  1.00  0.00     0.169 HD
BRANCH   9  11
HETATM   11  C   LIG     1       4.332   0.166  -2.297  1.00  0.00     0.035 A 
HETATM   12  C   LIG     1       4.732   1.264  -3.064  1.00  0.00     0.047 A 
HETATM   13  C   LIG     1       5.815   1.178  -3.967  1.00  0.00     0.071 A 
HETATM   14  C   LIG     1       6.496  -0.038  -4.084  1.00  0.00     0.049 A 
HETATM   15  C   LIG     1       6.113  -1.136  -3.313  1.00  0.00     0.027 A 
HETATM   16 CL   LIG     1       7.820  -0.253  -5.171  1.00  0.00    -0.083 Cl
HETATM   17  C   LIG     1       5.040  -1.033  -2.426  1.00  0.00     0.031 A 
BRANCH  13  18
HETATM   18  C   LIG     1       6.209   2.377  -4.786  1.00  0.00     0.419 C 
HETATM   19  F   LIG     1       5.468   3.490  -4.516  1.00  0.00    -0.166 F 
HETATM   20  F   LIG     1       6.070   2.170  -6.126  1.00  0.00    -0.166 F 
HETATM   21  F   LIG     1       7.503   2.755  -4.590  1.00  0.00    -0.166 F 
ENDBRANCH  13  18
ENDBRANCH   9  11
ENDBRANCH   5   7
BRANCH   4  22
HETATM   22  C   LIG     1       0.001   3.106  -0.626  1.00  0.00     0.040 C 
BRANCH  22  23
HETATM   23  C   LIG     1      -0.741   2.801  -1.931  1.00  0.00     0.005 C 
BRANCH  23  24
HETATM   24  C   LIG     1      -1.037   4.074  -2.728  1.00  0.00     0.000 C 
BRANCH  24  25
HETATM   25  C   LIG     1      -1.870   3.757  -3.973  1.00  0.00     0.000 C 
BRANCH  25  26
HETATM   26  C   LIG     1      -2.198   5.019  -4.774  1.00  0.00     0.000 C 
BRANCH  26  27
HETATM   27  C   LIG     1      -2.948   4.727  -6.079  1.00  0.00     0.000 C 
BRANCH  27  28
HETATM   28  C   LIG     1      -4.342   4.133  -5.860  1.00  0.00     0.000 C 
BRANCH  28  29
HETATM   29  C   LIG     1      -5.068   3.903  -7.187  1.00  0.00    -0.000 C 
BRANCH  29  30
HETATM   30  C   LIG     1      -6.441   3.269  -6.962  1.00  0.00    -0.005 C 
HETATM   31  C   LIG     1      -7.163   3.014  -8.275  1.00  0.00     0.005 C 
ENDBRANCH  29  30
ENDBRANCH  28  29
ENDBRANCH  27  28
ENDBRANCH  26  27
ENDBRANCH  25  26
ENDBRANCH  24  25
ENDBRANCH  23  24
ENDBRANCH  22  23
ENDBRANCH   4  22
BRANCH   6  32
HETATM   32  O   LIG     1       2.323  -1.210   0.548  1.00  0.00    -0.350 OA
BRANCH  32  33
HETATM   33  C   LIG     1       2.969  -1.725   1.721  1.00  0.00     0.171 C 
HETATM   34  C   LIG     1       3.796  -2.927   1.296  1.00  0.00     0.034 C 
ENDBRANCH  32  33
ENDBRANCH   6  32
TORSDOF 14
