REMARK  16 active torsions:
REMARK  status: ('A' for Active; 'I' for Inactive)
REMARK    1  A    between atoms: C_4  and  C_24 
REMARK    2  A    between atoms: C_5  and  C_7 
REMARK    3  A    between atoms: C_6  and  O_17 
REMARK       I    between atoms: C_7  and  N_8 
REMARK    4  A    between atoms: N_8  and  C_9 
REMARK    5  A    between atoms: C_15  and  C_20 
REMARK    6  A    between atoms: O_17  and  C_18 
REMARK    7  A    between atoms: C_24  and  C_25 
REMARK    8  A    between atoms: C_25  and  C_26 
REMARK    9  A    between atoms: C_26  and  C_27 
REMARK   10  A    between atoms: C_27  and  C_28 
REMARK   11  A    between atoms: C_28  and  C_29 
REMARK   12  A    between atoms: C_29  and  C_30 
REMARK   13  A    between atoms: C_30  and  C_31 
REMARK   14  A    between atoms: C_31  and  C_32 
REMARK   15  A    between atoms: C_32  and  C_33 
REMARK   16  A    between atoms: C_33  and  C_34 
ROOT
ATOM      1  C   LIG     1       3.281  -0.685   6.378  1.00  0.00     0.038 A 
ATOM      2  C   LIG     1       3.423   0.547   5.751  1.00  0.00     0.003 A 
ATOM      3  C   LIG     1       2.709   0.827   4.582  1.00  0.00     0.008 A 
ATOM      4  C   LIG     1       1.846  -0.123   4.000  1.00  0.00    -0.040 A 
ATOM      5  C   LIG     1       1.696  -1.362   4.659  1.00  0.00     0.071 A 
ATOM      6  C   LIG     1       2.432  -1.640   5.826  1.00  0.00     0.085 A 
ENDROOT
BRANCH   5   7
ATOM      7  C   LIG     1       0.768  -2.407   4.156  1.00  0.00     0.259 C 
ATOM      8  O   LIG     1       0.989  -2.916   3.065  1.00  0.00    -0.267 OA
ATOM      9  N   LIG     1      -0.262  -2.693   5.031  1.00  0.00    -0.323 N 
ATOM     10  H   LIG     1      -0.273  -2.154   5.889  1.00  0.00     0.169 HD
BRANCH   9  11
ATOM     11  C   LIG     1      -1.230  -3.707   4.915  1.00  0.00     0.035 A 
ATOM     12  C   LIG     1      -2.178  -3.806   5.943  1.00  0.00     0.047 A 
ATOM     13  C   LIG     1      -3.174  -4.804   5.936  1.00  0.00     0.071 A 
ATOM     14  C   LIG     1      -3.196  -5.716   4.877  1.00  0.00     0.049 A 
ATOM     15  C   LIG     1      -2.255  -5.622   3.848  1.00  0.00     0.027 A 
ATOM     16 CL   LIG     1      -4.359  -6.987   4.784  1.00  0.00    -0.083 Cl
ATOM     17  C   LIG     1      -1.280  -4.621   3.865  1.00  0.00     0.031 A 
BRANCH  13  18
ATOM     18  C   LIG     1      -4.177  -4.871   7.055  1.00  0.00     0.419 C 
ATOM     19  F   LIG     1      -4.105  -6.027   7.768  1.00  0.00    -0.166 F 
ATOM     20  F   LIG     1      -5.464  -4.756   6.629  1.00  0.00    -0.166 F 
ATOM     21  F   LIG     1      -4.014  -3.872   7.973  1.00  0.00    -0.166 F 
ENDBRANCH  13  18
ENDBRANCH   9  11
ENDBRANCH   5   7
BRANCH   4  22
ATOM     22  C   LIG     1       1.051   0.249   2.760  1.00  0.00     0.040 C 
BRANCH  22  23
ATOM     23  C   LIG     1       1.892   0.918   1.663  1.00  0.00     0.005 C 
BRANCH  23  24
ATOM     24  C   LIG     1       1.167   1.037   0.318  1.00  0.00     0.000 C 
BRANCH  24  25
ATOM     25  C   LIG     1      -0.145   1.828   0.324  1.00  0.00     0.000 C 
BRANCH  25  26
ATOM     26  C   LIG     1      -0.006   3.251   0.869  1.00  0.00     0.000 C 
BRANCH  26  27
ATOM     27  C   LIG     1      -1.249   4.092   0.558  1.00  0.00     0.000 C 
BRANCH  27  28
ATOM     28  C   LIG     1      -1.186   5.451   1.259  1.00  0.00     0.000 C 
BRANCH  28  29
ATOM     29  C   LIG     1      -2.264   6.439   0.800  1.00  0.00     0.000 C 
BRANCH  29  30
ATOM     30  C   LIG     1      -3.703   5.968   1.047  1.00  0.00     0.000 C 
BRANCH  30  31
ATOM     31  C   LIG     1      -4.443   5.561  -0.233  1.00  0.00    -0.000 C 
BRANCH  31  32
ATOM     32  C   LIG     1      -4.832   6.766  -1.096  1.00  0.00    -0.005 C 
ATOM     33  C   LIG     1      -5.576   6.338  -2.351  1.00  0.00     0.005 C 
ENDBRANCH  31  32
ENDBRANCH  30  31
ENDBRANCH  29  30
ENDBRANCH  28  29
ENDBRANCH  27  28
ENDBRANCH  26  27
ENDBRANCH  25  26
ENDBRANCH  24  25
ENDBRANCH  23  24
ENDBRANCH  22  23
ENDBRANCH   4  22
BRANCH   6  34
ATOM     34  O   LIG     1       2.269  -2.816   6.514  1.00  0.00    -0.350 OA
BRANCH  34  35
ATOM     35  C   LIG     1       3.152  -3.826   6.004  1.00  0.00     0.171 C 
ATOM     36  C   LIG     1       2.696  -5.164   6.554  1.00  0.00     0.034 C 
ENDBRANCH  34  35
ENDBRANCH   6  34
TORSDOF 16
