REMARK  32 active torsions:
REMARK  status: ('A' for Active; 'I' for Inactive)
REMARK    1  A    between atoms: C_6  and  N_10 
REMARK    2  A    between atoms: N_7  and  C_11 
REMARK    3  A    between atoms: C_13  and  C_18 
REMARK    4  A    between atoms: C_14  and  O_16 
REMARK    5  A    between atoms: C_15  and  O_17 
REMARK    6  A    between atoms: O_16  and  P_20 
REMARK    7  A    between atoms: C_18  and  O_19 
REMARK    8  A    between atoms: O_19  and  P_24 
REMARK    9  A    between atoms: P_24  and  O_25 
REMARK   10  A    between atoms: O_25  and  P_26 
REMARK   11  A    between atoms: P_26  and  O_27 
REMARK   12  A    between atoms: O_27  and  C_28 
REMARK   13  A    between atoms: C_28  and  C_29 
REMARK   14  A    between atoms: C_29  and  C_30 
REMARK   15  A    between atoms: C_30  and  C_31 
REMARK       I    between atoms: C_31  and  N_32 
REMARK   16  A    between atoms: N_32  and  C_33 
REMARK   17  A    between atoms: C_33  and  C_34 
REMARK   18  A    between atoms: C_34  and  C_43 
REMARK       I    between atoms: C_43  and  N_44 
REMARK   19  A    between atoms: N_44  and  C_45 
REMARK   20  A    between atoms: C_45  and  C_47 
REMARK   21  A    between atoms: C_47  and  S_48 
REMARK   22  A    between atoms: S_48  and  C_49 
REMARK   23  A    between atoms: C_49  and  C_51 
REMARK   24  A    between atoms: C_51  and  C_52 
REMARK   25  A    between atoms: C_52  and  C_53 
REMARK   26  A    between atoms: C_53  and  C_54 
REMARK   27  A    between atoms: C_54  and  C_55 
REMARK   28  A    between atoms: C_55  and  C_56 
REMARK   29  A    between atoms: C_56  and  C_57 
REMARK   30  A    between atoms: C_57  and  C_58 
REMARK   31  A    between atoms: C_58  and  C_59 
REMARK   32  A    between atoms: C_59  and  C_60 
ROOT
HETATM    1  P   LIG     1      -4.236   8.564   1.211  1.00  0.00     0.417 P 
HETATM    2  O   LIG     1      -3.633   9.641   0.321  1.00  0.00    -0.624 OA
HETATM    3  O   LIG     1      -3.937   8.654   2.696  1.00  0.00    -0.624 OA
ENDROOT
BRANCH   1   4
HETATM    4  O   LIG     1      -5.804   8.441   0.914  1.00  0.00    -0.180 OA
BRANCH   4   5
HETATM    5  P   LIG     1      -6.798   7.183   0.961  1.00  0.00     0.417 P 
HETATM    6  O   LIG     1      -6.373   6.107  -0.020  1.00  0.00    -0.624 OA
HETATM    7  O   LIG     1      -7.123   6.788   2.389  1.00  0.00    -0.624 OA
BRANCH   5   8
HETATM    8  O   LIG     1      -8.126   7.892   0.312  1.00  0.00    -0.287 OA
BRANCH   8   9
HETATM    9  C   LIG     1      -9.174   8.308   1.173  1.00  0.00     0.216 C 
BRANCH   9  10
HETATM   10  C   LIG     1     -10.367   8.920   0.398  1.00  0.00     0.180 C 
HETATM   11  O   LIG     1     -11.480   9.086   1.347  1.00  0.00    -0.353 OA
HETATM   12  C   LIG     1     -12.074  10.368   1.048  1.00  0.00     0.262 C 
HETATM   13  C   LIG     1     -10.872  11.243   0.706  1.00  0.00     0.199 C 
HETATM   14  C   LIG     1     -10.064  10.314  -0.201  1.00  0.00     0.199 C 
BRANCH  12  15
HETATM   15  N   LIG     1     -12.861  10.884   2.169  1.00  0.00    -0.294 N 
HETATM   16  C   LIG     1     -13.033  10.412   3.444  1.00  0.00     0.166 A 
HETATM   17  N   LIG     1     -12.459   9.361   4.052  1.00  0.00    -0.222 NA
HETATM   18  C   LIG     1     -13.960  11.271   4.021  1.00  0.00     0.144 A 
HETATM   19  C   LIG     1     -12.882   9.214   5.316  1.00  0.00     0.237 A 
HETATM   20  N   LIG     1     -13.764   9.975   6.007  1.00  0.00    -0.228 NA
HETATM   21  C   LIG     1     -14.328  11.014   5.355  1.00  0.00     0.135 A 
HETATM   22  N   LIG     1     -14.345  12.267   3.151  1.00  0.00    -0.236 NA
HETATM   23  C   LIG     1     -13.681  11.993   2.044  1.00  0.00     0.214 A 
BRANCH  21  24
HETATM   24  N   LIG     1     -15.225  11.824   6.066  1.00  0.00    -0.285 NA
HETATM   25  H   LIG     1     -14.977  11.804   7.045  1.00  0.00     0.125 HD
HETATM   26  H   LIG     1     -15.279  12.735   5.618  1.00  0.00     0.125 HD
ENDBRANCH  21  24
ENDBRANCH  12  15
BRANCH  13  27
HETATM   27  O   LIG     1     -11.142  12.548   0.207  1.00  0.00    -0.388 OA
HETATM   28  H   LIG     1     -11.593  12.376  -0.679  1.00  0.00     0.210 HD
ENDBRANCH  13  27
BRANCH  14  29
HETATM   29  O   LIG     1     -10.311  10.416  -1.603  1.00  0.00    -0.272 OA
BRANCH  29  30
HETATM   30  P   LIG     1     -11.779  10.500  -2.301  1.00  0.00     0.422 P 
HETATM   31  O   LIG     1     -11.500  10.534  -3.793  1.00  0.00    -0.617 OA
HETATM   32  O   LIG     1     -12.356  11.802  -1.751  1.00  0.00    -0.617 OA
HETATM   33  O   LIG     1     -12.526   9.279  -1.814  1.00  0.00    -0.617 OA
ENDBRANCH  29  30
ENDBRANCH  14  29
ENDBRANCH   9  10
ENDBRANCH   8   9
ENDBRANCH   5   8
ENDBRANCH   4   5
ENDBRANCH   1   4
BRANCH   1  34
HETATM   34  O   LIG     1      -3.684   7.137   0.673  1.00  0.00    -0.289 OA
BRANCH  34  35
HETATM   35  C   LIG     1      -2.295   7.017   0.476  1.00  0.00     0.191 C 
BRANCH  35  36
HETATM   36  C   LIG     1      -1.974   5.681  -0.260  1.00  0.00    -0.014 C 
HETATM   37  C   LIG     1      -0.443   5.578  -0.448  1.00  0.00     0.018 C 
HETATM   38  C   LIG     1      -2.612   5.791  -1.668  1.00  0.00     0.018 C 
BRANCH  36  39
HETATM   39  C   LIG     1      -2.543   4.412   0.503  1.00  0.00     0.083 C 
HETATM   40  C   LIG     1      -2.531   3.144  -0.355  1.00  0.00     0.020 C 
BRANCH  39  41
HETATM   41  C   LIG     1      -1.796   4.206   1.817  1.00  0.00     0.222 C 
HETATM   42  O   LIG     1      -1.266   5.131   2.443  1.00  0.00    -0.273 OA
HETATM   43  N   LIG     1      -1.645   3.046   2.476  1.00  0.00    -0.360 N 
HETATM   44  H   LIG     1      -1.062   3.310   3.254  1.00  0.00     0.162 HD
BRANCH  43  45
HETATM   45  C   LIG     1      -1.740   1.618   2.293  1.00  0.00     0.132 C 
BRANCH  45  46
HETATM   46  C   LIG     1      -3.010   0.848   1.988  1.00  0.00     0.122 C 
BRANCH  46  47
HETATM   47  C   LIG     1      -4.463   1.220   2.218  1.00  0.00     0.219 C 
HETATM   48  O   LIG     1      -5.301   0.667   1.488  1.00  0.00    -0.274 OA
HETATM   49  N   LIG     1      -4.954   1.912   3.271  1.00  0.00    -0.360 N 
HETATM   50  H   LIG     1      -5.951   2.052   3.132  1.00  0.00     0.162 HD
BRANCH  49  51
HETATM   51  C   LIG     1      -4.332   2.931   4.090  1.00  0.00     0.133 C 
BRANCH  51  52
HETATM   52  C   LIG     1      -4.571   2.793   5.595  1.00  0.00     0.102 C 
BRANCH  52  53
HETATM   53  S   LIG     1      -4.129   1.192   6.366  1.00  0.00    -0.091 SA
BRANCH  53  54
HETATM   54  C   LIG     1      -2.409   1.041   6.060  1.00  0.00     0.186 C 
HETATM   55  O   LIG     1      -1.987   0.097   5.391  1.00  0.00    -0.286 OA
BRANCH  54  56
HETATM   56  C   LIG     1      -1.467   2.016   6.745  1.00  0.00     0.091 C 
BRANCH  56  57
HETATM   57  C   LIG     1      -0.834   2.916   5.697  1.00  0.00     0.008 C 
BRANCH  57  58
HETATM   58  C   LIG     1       0.324   3.812   6.141  1.00  0.00     0.000 C 
BRANCH  58  59
HETATM   59  C   LIG     1       0.569   4.862   5.042  1.00  0.00     0.000 C 
BRANCH  59  60
HETATM   60  C   LIG     1       1.796   5.759   5.208  1.00  0.00     0.000 C 
BRANCH  60  61
HETATM   61  C   LIG     1       1.521   7.090   5.912  1.00  0.00     0.000 C 
BRANCH  61  62
HETATM   62  C   LIG     1       1.156   6.989   7.389  1.00  0.00     0.000 C 
BRANCH  62  63
HETATM   63  C   LIG     1       2.345   6.612   8.276  1.00  0.00     0.000 C 
BRANCH  63  64
HETATM   64  C   LIG     1       1.930   6.211   9.695  1.00  0.00    -0.000 C 
BRANCH  64  65
HETATM   65  C   LIG     1       1.091   7.268  10.413  1.00  0.00    -0.005 C 
HETATM   66  C   LIG     1       0.668   6.799  11.795  1.00  0.00     0.005 C 
ENDBRANCH  64  65
ENDBRANCH  63  64
ENDBRANCH  62  63
ENDBRANCH  61  62
ENDBRANCH  60  61
ENDBRANCH  59  60
ENDBRANCH  58  59
ENDBRANCH  57  58
ENDBRANCH  56  57
ENDBRANCH  54  56
ENDBRANCH  53  54
ENDBRANCH  52  53
ENDBRANCH  51  52
ENDBRANCH  49  51
ENDBRANCH  46  47
ENDBRANCH  45  46
ENDBRANCH  43  45
ENDBRANCH  39  41
ENDBRANCH  36  39
ENDBRANCH  35  36
ENDBRANCH  34  35
ENDBRANCH   1  34
TORSDOF 32
