REMARK  6 active torsions:
REMARK  status: ('A' for Active; 'I' for Inactive)
REMARK    1  A    between atoms: C_4  and  C_24 
REMARK    2  A    between atoms: C_5  and  C_7 
REMARK    3  A    between atoms: C_6  and  O_17 
REMARK       I    between atoms: C_7  and  N_8 
REMARK    4  A    between atoms: N_8  and  C_9 
REMARK    5  A    between atoms: C_15  and  C_20 
REMARK    6  A    between atoms: O_17  and  C_18 
ROOT
HETATM    1  C   LIG     1      -2.465   0.716  -1.472  1.00  0.00     0.259 C 
HETATM    2  N   LIG     1      -2.217   1.885  -0.774  1.00  0.00    -0.323 N 
HETATM    3  O   LIG     1      -2.444   0.582  -2.690  1.00  0.00    -0.267 OA
HETATM    4  H   LIG     1      -2.258   1.798   0.236  1.00  0.00     0.169 HD
ENDROOT
BRANCH   1   5
HETATM    5  C   LIG     1      -2.814  -0.460  -0.593  1.00  0.00     0.071 A 
HETATM    6  C   LIG     1      -3.896  -1.315  -0.933  1.00  0.00    -0.040 A 
HETATM    7  C   LIG     1      -4.162  -2.412  -0.093  1.00  0.00     0.008 A 
HETATM    8  C   LIG     1      -3.414  -2.641   1.060  1.00  0.00     0.003 A 
HETATM    9  C   LIG     1      -2.366  -1.791   1.397  1.00  0.00     0.038 A 
HETATM   10  C   LIG     1      -2.048  -0.707   0.576  1.00  0.00     0.085 A 
BRANCH   6  11
HETATM   11  C   LIG     1      -4.730  -1.085  -2.182  1.00  0.00     0.035 C 
HETATM   12  C   LIG     1      -6.116  -1.729  -2.210  1.00  0.00     0.010 C 
ENDBRANCH   6  11
BRANCH  10  13
HETATM   13  O   LIG     1      -1.025   0.166   0.849  1.00  0.00    -0.350 OA
BRANCH  13  14
HETATM   14  C   LIG     1      -0.089  -0.184   1.867  1.00  0.00     0.171 C 
HETATM   15  C   LIG     1       1.050   0.819   1.808  1.00  0.00     0.034 C 
ENDBRANCH  13  14
ENDBRANCH  10  13
ENDBRANCH   1   5
BRANCH   2  16
HETATM   16  C   LIG     1      -1.798   3.135  -1.262  1.00  0.00     0.035 A 
HETATM   17  C   LIG     1      -1.542   3.412  -2.606  1.00  0.00     0.047 A 
HETATM   18  C   LIG     1      -1.106   4.691  -3.019  1.00  0.00     0.071 A 
HETATM   19  C   LIG     1      -0.949   5.693  -2.054  1.00  0.00     0.049 A 
HETATM   20  C   LIG     1      -1.199   5.422  -0.709  1.00  0.00     0.027 A 
HETATM   21 CL   LIG     1      -0.450   7.296  -2.459  1.00  0.00    -0.083 Cl
HETATM   22  C   LIG     1      -1.614   4.149  -0.316  1.00  0.00     0.031 A 
BRANCH  18  23
HETATM   23  C   LIG     1      -0.819   4.958  -4.472  1.00  0.00     0.419 C 
HETATM   24  F   LIG     1      -0.955   3.857  -5.265  1.00  0.00    -0.166 F 
HETATM   25  F   LIG     1       0.452   5.399  -4.690  1.00  0.00    -0.166 F 
HETATM   26  F   LIG     1      -1.647   5.895  -5.011  1.00  0.00    -0.166 F 
ENDBRANCH  18  23
ENDBRANCH   2  16
TORSDOF 6
