REMARK  22 active torsions:
REMARK  status: ('A' for Active; 'I' for Inactive)
REMARK    1  A    between atoms: C_6  and  N_10 
REMARK    2  A    between atoms: N_7  and  C_11 
REMARK    3  A    between atoms: C_13  and  C_18 
REMARK    4  A    between atoms: C_14  and  O_16 
REMARK    5  A    between atoms: C_15  and  O_17 
REMARK    6  A    between atoms: O_16  and  P_20 
REMARK    7  A    between atoms: C_18  and  O_19 
REMARK    8  A    between atoms: O_19  and  P_24 
REMARK    9  A    between atoms: P_24  and  O_25 
REMARK   10  A    between atoms: O_25  and  P_26 
REMARK   11  A    between atoms: P_26  and  O_27 
REMARK   12  A    between atoms: O_27  and  C_28 
REMARK   13  A    between atoms: C_28  and  C_29 
REMARK   14  A    between atoms: C_29  and  C_30 
REMARK   15  A    between atoms: C_30  and  C_31 
REMARK       I    between atoms: C_31  and  N_32 
REMARK   16  A    between atoms: N_32  and  C_33 
REMARK   17  A    between atoms: C_33  and  C_34 
REMARK   18  A    between atoms: C_34  and  C_43 
REMARK       I    between atoms: C_43  and  N_44 
REMARK   19  A    between atoms: N_44  and  C_45 
REMARK   20  A    between atoms: C_45  and  C_47 
REMARK   21  A    between atoms: C_47  and  S_48 
REMARK   22  A    between atoms: S_48  and  C_49 
ROOT
HETATM    1  P   LIG     1      -0.005   9.206   4.154  1.00  0.00     0.417 P 
HETATM    2  O   LIG     1       1.127   8.447   4.825  1.00  0.00    -0.624 OA
HETATM    3  O   LIG     1      -0.724   8.552   2.991  1.00  0.00    -0.624 OA
ENDROOT
BRANCH   1   4
HETATM    4  O   LIG     1      -1.072   9.699   5.280  1.00  0.00    -0.287 OA
BRANCH   4   5
HETATM    5  C   LIG     1      -1.250   9.002   6.521  1.00  0.00     0.216 C 
BRANCH   5   6
HETATM    6  C   LIG     1      -2.412   7.982   6.480  1.00  0.00     0.180 C 
HETATM    7  O   LIG     1      -1.971   6.789   5.774  1.00  0.00    -0.353 OA
HETATM    8  C   LIG     1      -2.034   5.685   6.686  1.00  0.00     0.262 C 
HETATM    9  C   LIG     1      -2.147   6.226   8.101  1.00  0.00     0.199 C 
HETATM   10  C   LIG     1      -2.938   7.514   7.873  1.00  0.00     0.199 C 
BRANCH   8  11
HETATM   11  N   LIG     1      -0.868   4.836   6.487  1.00  0.00    -0.294 N 
HETATM   12  C   LIG     1       0.446   5.171   6.665  1.00  0.00     0.166 A 
HETATM   13  N   LIG     1       0.956   6.327   7.103  1.00  0.00    -0.222 NA
HETATM   14  C   LIG     1       1.162   4.061   6.251  1.00  0.00     0.144 A 
HETATM   15  C   LIG     1       2.285   6.379   6.928  1.00  0.00     0.237 C 
HETATM   16  N   LIG     1       3.123   5.370   6.577  1.00  0.00    -0.228 NA
HETATM   17  C   LIG     1       2.563   4.185   6.254  1.00  0.00     0.135 C 
HETATM   18  N   LIG     1       0.316   3.025   5.892  1.00  0.00    -0.236 NA
HETATM   19  C   LIG     1      -0.894   3.532   6.053  1.00  0.00     0.214 A 
BRANCH  17  20
HETATM   20  N   LIG     1       3.426   3.157   5.836  1.00  0.00    -0.285 NA
HETATM   21  H   LIG     1       4.244   3.613   5.450  1.00  0.00     0.125 HD
HETATM   22  H   LIG     1       2.910   2.547   5.211  1.00  0.00     0.125 HD
ENDBRANCH  17  20
ENDBRANCH   8  11
BRANCH   9  23
HETATM   23  O   LIG     1      -2.614   5.217   8.994  1.00  0.00    -0.388 OA
HETATM   24  H   LIG     1      -3.614   5.291   9.046  1.00  0.00     0.210 HD
ENDBRANCH   9  23
BRANCH  10  25
HETATM   25  O   LIG     1      -4.347   7.316   7.748  1.00  0.00    -0.272 OA
BRANCH  25  26
HETATM   26  P   LIG     1      -5.232   6.957   9.074  1.00  0.00     0.422 P 
HETATM   27  O   LIG     1      -6.628   7.464   8.763  1.00  0.00    -0.617 OA
HETATM   28  O   LIG     1      -4.535   7.655  10.228  1.00  0.00    -0.617 OA
HETATM   29  O   LIG     1      -5.103   5.438   9.116  1.00  0.00    -0.617 OA
ENDBRANCH  25  26
ENDBRANCH  10  25
ENDBRANCH   5   6
ENDBRANCH   4   5
ENDBRANCH   1   4
BRANCH   1  30
HETATM   30  O   LIG     1       0.639  10.585   3.673  1.00  0.00    -0.180 OA
BRANCH  30  31
HETATM   31  P   LIG     1       0.221  11.928   2.932  1.00  0.00     0.417 P 
HETATM   32  O   LIG     1       1.421  12.861   2.965  1.00  0.00    -0.624 OA
HETATM   33  O   LIG     1      -1.104  12.480   3.405  1.00  0.00    -0.624 OA
BRANCH  31  34
HETATM   34  O   LIG     1       0.085  11.461   1.365  1.00  0.00    -0.289 OA
BRANCH  34  35
HETATM   35  C   LIG     1      -0.860  12.134   0.554  1.00  0.00     0.191 C 
BRANCH  35  36
HETATM   36  C   LIG     1      -0.268  13.180  -0.445  1.00  0.00    -0.014 C 
HETATM   37  C   LIG     1       0.460  14.293   0.329  1.00  0.00     0.018 C 
HETATM   38  C   LIG     1      -1.491  13.844  -1.140  1.00  0.00     0.018 C 
BRANCH  36  39
HETATM   39  C   LIG     1       0.649  12.537  -1.551  1.00  0.00     0.083 C 
HETATM   40  C   LIG     1       1.117  13.547  -2.623  1.00  0.00     0.020 C 
BRANCH  39  41
HETATM   41  C   LIG     1       1.926  11.846  -1.050  1.00  0.00     0.222 C 
HETATM   42  O   LIG     1       2.970  12.477  -0.857  1.00  0.00    -0.273 OA
HETATM   43  N   LIG     1       1.992  10.484  -0.986  1.00  0.00    -0.360 N 
HETATM   44  H   LIG     1       2.832  10.190  -0.502  1.00  0.00     0.162 HD
BRANCH  43  45
HETATM   45  C   LIG     1       0.930   9.503  -1.117  1.00  0.00     0.132 C 
BRANCH  45  46
HETATM   46  C   LIG     1       1.005   8.725  -2.430  1.00  0.00     0.122 C 
BRANCH  46  47
HETATM   47  C   LIG     1       2.101   7.675  -2.578  1.00  0.00     0.219 C 
HETATM   48  O   LIG     1       2.542   7.399  -3.703  1.00  0.00    -0.274 OA
HETATM   49  N   LIG     1       2.438   6.961  -1.463  1.00  0.00    -0.360 N 
HETATM   50  H   LIG     1       1.908   7.130  -0.612  1.00  0.00     0.162 HD
BRANCH  49  51
HETATM   51  C   LIG     1       3.182   5.717  -1.511  1.00  0.00     0.133 C 
BRANCH  51  52
HETATM   52  C   LIG     1       4.578   5.825  -2.130  1.00  0.00     0.101 C 
BRANCH  52  53
HETATM   53  S   LIG     1       5.514   4.268  -1.963  1.00  0.00    -0.100 SA
BRANCH  53  54
HETATM   54  C   LIG     1       6.057   4.457  -0.303  1.00  0.00     0.304 C 
HETATM   55  O   LIG     1       7.237   4.314  -0.010  1.00  0.00    -0.295 OA
ENDBRANCH  53  54
ENDBRANCH  52  53
ENDBRANCH  51  52
ENDBRANCH  49  51
ENDBRANCH  46  47
ENDBRANCH  45  46
ENDBRANCH  43  45
ENDBRANCH  39  41
ENDBRANCH  36  39
ENDBRANCH  35  36
ENDBRANCH  34  35
ENDBRANCH  31  34
ENDBRANCH  30  31
ENDBRANCH   1  30
TORSDOF 22
