REMARK  26 active torsions:
REMARK  status: ('A' for Active; 'I' for Inactive)
REMARK    1  A    between atoms: C_6  and  N_10 
REMARK    2  A    between atoms: N_7  and  C_11 
REMARK    3  A    between atoms: C_13  and  C_18 
REMARK    4  A    between atoms: C_14  and  O_16 
REMARK    5  A    between atoms: C_15  and  O_17 
REMARK    6  A    between atoms: O_16  and  P_20 
REMARK    7  A    between atoms: C_18  and  O_19 
REMARK    8  A    between atoms: O_19  and  P_24 
REMARK    9  A    between atoms: P_24  and  O_25 
REMARK   10  A    between atoms: O_25  and  P_26 
REMARK   11  A    between atoms: P_26  and  O_27 
REMARK   12  A    between atoms: O_27  and  C_28 
REMARK   13  A    between atoms: C_28  and  C_29 
REMARK   14  A    between atoms: C_29  and  C_30 
REMARK   15  A    between atoms: C_30  and  C_31 
REMARK       I    between atoms: C_31  and  N_32 
REMARK   16  A    between atoms: N_32  and  C_33 
REMARK   17  A    between atoms: C_33  and  C_34 
REMARK   18  A    between atoms: C_34  and  C_43 
REMARK       I    between atoms: C_43  and  N_44 
REMARK   19  A    between atoms: N_44  and  C_45 
REMARK   20  A    between atoms: C_45  and  C_47 
REMARK   21  A    between atoms: C_47  and  S_48 
REMARK   22  A    between atoms: S_48  and  C_49 
REMARK   23  A    between atoms: C_49  and  C_50 
REMARK   24  A    between atoms: C_50  and  C_51 
REMARK   25  A    between atoms: C_51  and  C_52 
REMARK   26  A    between atoms: C_52  and  C_54 
ROOT
HETATM    1  P   LIG     1      -0.250  10.059   6.790  1.00  0.00     0.417 P 
HETATM    2  O   LIG     1       0.886   9.602   5.903  1.00  0.00    -0.624 OA
HETATM    3  O   LIG     1      -1.361   9.087   7.150  1.00  0.00    -0.624 OA
ENDROOT
BRANCH   1   4
HETATM    4  O   LIG     1      -0.827  11.507   6.374  1.00  0.00    -0.180 OA
BRANCH   4   5
HETATM    5  P   LIG     1      -1.170  12.157   4.944  1.00  0.00     0.417 P 
HETATM    6  O   LIG     1       0.095  12.490   4.173  1.00  0.00    -0.624 OA
HETATM    7  O   LIG     1      -2.296  11.418   4.247  1.00  0.00    -0.624 OA
BRANCH   5   8
HETATM    8  O   LIG     1      -1.808  13.619   5.433  1.00  0.00    -0.287 OA
BRANCH   8   9
HETATM    9  C   LIG     1      -2.548  14.311   4.439  1.00  0.00     0.216 C 
BRANCH   9  10
HETATM   10  C   LIG     1      -2.901  15.800   4.733  1.00  0.00     0.180 C 
HETATM   11  O   LIG     1      -3.643  16.274   3.532  1.00  0.00    -0.353 OA
HETATM   12  C   LIG     1      -5.026  16.512   3.951  1.00  0.00     0.262 C 
HETATM   13  C   LIG     1      -5.181  15.779   5.294  1.00  0.00     0.199 C 
HETATM   14  C   LIG     1      -3.833  16.148   5.924  1.00  0.00     0.199 C 
BRANCH  12  15
HETATM   15  N   LIG     1      -5.920  16.121   2.861  1.00  0.00    -0.294 N 
HETATM   16  C   LIG     1      -7.041  16.810   2.459  1.00  0.00     0.166 A 
HETATM   17  N   LIG     1      -7.619  17.864   3.052  1.00  0.00    -0.222 NA
HETATM   18  C   LIG     1      -7.440  16.226   1.266  1.00  0.00     0.144 A 
HETATM   19  C   LIG     1      -8.681  18.312   2.366  1.00  0.00     0.237 A 
HETATM   20  N   LIG     1      -9.174  17.867   1.184  1.00  0.00    -0.228 NA
HETATM   21  C   LIG     1      -8.553  16.797   0.597  1.00  0.00     0.135 A 
HETATM   22  N   LIG     1      -6.599  15.181   0.928  1.00  0.00    -0.236 NA
HETATM   23  C   LIG     1      -5.706  15.144   1.911  1.00  0.00     0.214 A 
BRANCH  21  24
HETATM   24  N   LIG     1      -8.998  16.309  -0.648  1.00  0.00    -0.285 NA
HETATM   25  H   LIG     1      -9.378  17.020  -1.258  1.00  0.00     0.125 HD
HETATM   26  H   LIG     1      -8.297  15.690  -1.060  1.00  0.00     0.125 HD
ENDBRANCH  21  24
ENDBRANCH  12  15
BRANCH  13  27
HETATM   27  O   LIG     1      -6.354  16.084   6.031  1.00  0.00    -0.388 OA
HETATM   28  H   LIG     1      -6.126  16.856   6.641  1.00  0.00     0.210 HD
ENDBRANCH  13  27
BRANCH  14  29
HETATM   29  O   LIG     1      -3.734  17.582   6.093  1.00  0.00    -0.272 OA
BRANCH  29  30
HETATM   30  P   LIG     1      -4.309  18.365   7.412  1.00  0.00     0.422 P 
HETATM   31  O   LIG     1      -3.544  17.723   8.551  1.00  0.00    -0.617 OA
HETATM   32  O   LIG     1      -5.795  18.045   7.389  1.00  0.00    -0.617 OA
HETATM   33  O   LIG     1      -3.978  19.820   7.133  1.00  0.00    -0.617 OA
ENDBRANCH  29  30
ENDBRANCH  14  29
ENDBRANCH   9  10
ENDBRANCH   8   9
ENDBRANCH   5   8
ENDBRANCH   4   5
ENDBRANCH   1   4
BRANCH   1  34
HETATM   34  O   LIG     1       0.425  10.490   8.225  1.00  0.00    -0.289 OA
BRANCH  34  35
HETATM   35  C   LIG     1       1.651  11.212   8.173  1.00  0.00     0.191 C 
BRANCH  35  36
HETATM   36  C   LIG     1       2.085  11.662   9.604  1.00  0.00    -0.014 C 
HETATM   37  C   LIG     1       2.016  10.450  10.565  1.00  0.00     0.018 C 
HETATM   38  C   LIG     1       1.035  12.698  10.091  1.00  0.00     0.018 C 
BRANCH  36  39
HETATM   39  C   LIG     1       3.524  12.337   9.580  1.00  0.00     0.083 C 
HETATM   40  C   LIG     1       3.935  12.931  10.939  1.00  0.00     0.020 C 
BRANCH  39  41
HETATM   41  C   LIG     1       4.647  11.423   9.067  1.00  0.00     0.222 C 
HETATM   42  O   LIG     1       4.587  10.191   9.079  1.00  0.00    -0.273 OA
HETATM   43  N   LIG     1       5.810  11.944   8.554  1.00  0.00    -0.360 N 
HETATM   44  H   LIG     1       6.329  11.148   8.231  1.00  0.00     0.162 HD
BRANCH  43  45
HETATM   45  C   LIG     1       6.647  12.995   9.102  1.00  0.00     0.132 C 
BRANCH  45  46
HETATM   46  C   LIG     1       7.442  13.772   8.053  1.00  0.00     0.122 C 
BRANCH  46  47
HETATM   47  C   LIG     1       8.692  13.232   7.355  1.00  0.00     0.219 C 
HETATM   48  O   LIG     1       9.358  13.992   6.645  1.00  0.00    -0.274 OA
HETATM   49  N   LIG     1       9.048  11.918   7.508  1.00  0.00    -0.360 N 
HETATM   50  H   LIG     1       8.751  11.474   8.366  1.00  0.00     0.162 HD
BRANCH  49  51
HETATM   51  C   LIG     1      10.225  11.374   6.827  1.00  0.00     0.133 C 
BRANCH  51  52
HETATM   52  C   LIG     1      10.166   9.881   6.466  1.00  0.00     0.102 C 
BRANCH  52  53
HETATM   53  S   LIG     1       8.958   9.509   5.156  1.00  0.00    -0.091 SA
BRANCH  53  54
HETATM   54  C   LIG     1       7.850   8.433   6.024  1.00  0.00     0.186 C 
HETATM   55  O   LIG     1       7.617   7.316   5.577  1.00  0.00    -0.286 OA
BRANCH  54  56
HETATM   56  C   LIG     1       7.234   8.989   7.284  1.00  0.00     0.091 C 
BRANCH  56  57
HETATM   57  C   LIG     1       7.704   8.284   8.564  1.00  0.00     0.019 C 
BRANCH  57  58
HETATM   58  C   LIG     1       8.192   9.262   9.637  1.00  0.00     0.113 C 
BRANCH  58  59
HETATM   59  C   LIG     1       8.622   8.727  11.001  1.00  0.00     0.172 C 
HETATM   60  O   LIG     1       8.725   7.475  11.107  1.00  0.00    -0.648 OA
HETATM   61  O   LIG     1       8.924   9.632  11.833  1.00  0.00    -0.648 OA
ENDBRANCH  58  59
ENDBRANCH  57  58
ENDBRANCH  56  57
ENDBRANCH  54  56
ENDBRANCH  53  54
ENDBRANCH  52  53
ENDBRANCH  51  52
ENDBRANCH  49  51
ENDBRANCH  46  47
ENDBRANCH  45  46
ENDBRANCH  43  45
ENDBRANCH  39  41
ENDBRANCH  36  39
ENDBRANCH  35  36
ENDBRANCH  34  35
ENDBRANCH   1  34
TORSDOF 26
