REMARK  10 active torsions:
REMARK  status: ('A' for Active; 'I' for Inactive)
REMARK    1  A    between atoms: C_4  and  C_24 
REMARK    2  A    between atoms: C_5  and  C_7 
REMARK    3  A    between atoms: C_6  and  O_17 
REMARK       I    between atoms: C_7  and  N_8 
REMARK    4  A    between atoms: N_8  and  C_9 
REMARK    5  A    between atoms: C_15  and  C_20 
REMARK    6  A    between atoms: O_17  and  C_18 
REMARK    7  A    between atoms: C_24  and  C_25 
REMARK    8  A    between atoms: C_25  and  C_26 
REMARK    9  A    between atoms: C_26  and  C_27 
REMARK   10  A    between atoms: C_27  and  C_28 
ROOT
ATOM      1  C   LIG     1       0.217  -0.602   1.458  1.00  0.00     0.038 A 
ATOM      2  C   LIG     1      -0.908   0.207   1.587  1.00  0.00     0.003 A 
ATOM      3  C   LIG     1      -0.977   1.425   0.907  1.00  0.00     0.008 A 
ATOM      4  C   LIG     1       0.076   1.853   0.079  1.00  0.00    -0.040 A 
ATOM      5  C   LIG     1       1.209   1.022  -0.054  1.00  0.00     0.071 A 
ATOM      6  C   LIG     1       1.281  -0.187   0.658  1.00  0.00     0.085 A 
ENDROOT
BRANCH   5   7
ATOM      7  C   LIG     1       2.323   1.403  -0.959  1.00  0.00     0.259 C 
ATOM      8  O   LIG     1       2.938   2.436  -0.735  1.00  0.00    -0.267 OA
ATOM      9  N   LIG     1       2.532   0.508  -1.990  1.00  0.00    -0.323 N 
ATOM     10  H   LIG     1       1.951  -0.324  -1.979  1.00  0.00     0.169 HD
BRANCH   9  11
ATOM     11  C   LIG     1       3.471   0.603  -3.034  1.00  0.00     0.035 A 
ATOM     12  C   LIG     1       4.360   1.670  -3.192  1.00  0.00     0.047 A 
ATOM     13  C   LIG     1       5.276   1.710  -4.265  1.00  0.00     0.071 A 
ATOM     14  C   LIG     1       5.279   0.657  -5.185  1.00  0.00     0.049 A 
ATOM     15  C   LIG     1       4.393  -0.412  -5.035  1.00  0.00     0.027 A 
ATOM     16 CL   LIG     1       6.356   0.615  -6.533  1.00  0.00    -0.083 Cl
ATOM     17  C   LIG     1       3.496  -0.438  -3.966  1.00  0.00     0.031 A 
BRANCH  13  18
ATOM     18  C   LIG     1       6.224   2.872  -4.399  1.00  0.00     0.419 C 
ATOM     19  F   LIG     1       6.088   3.802  -3.411  1.00  0.00    -0.166 F 
ATOM     20  F   LIG     1       6.058   3.560  -5.563  1.00  0.00    -0.166 F 
ATOM     21  F   LIG     1       7.533   2.497  -4.359  1.00  0.00    -0.166 F 
ENDBRANCH  13  18
ENDBRANCH   9  11
ENDBRANCH   5   7
BRANCH   4  22
ATOM     22  C   LIG     1      -0.078   3.160  -0.669  1.00  0.00     0.040 C 
BRANCH  22  23
ATOM     23  C   LIG     1      -0.526   2.942  -2.117  1.00  0.00     0.005 C 
BRANCH  23  24
ATOM     24  C   LIG     1      -0.782   4.250  -2.873  1.00  0.00     0.000 C 
BRANCH  24  25
ATOM     25  C   LIG     1       0.490   5.074  -3.095  1.00  0.00    -0.000 C 
BRANCH  25  26
ATOM     26  C   LIG     1       0.275   6.274  -4.021  1.00  0.00    -0.005 C 
ATOM     27  C   LIG     1      -0.669   7.320  -3.447  1.00  0.00     0.005 C 
ENDBRANCH  25  26
ENDBRANCH  24  25
ENDBRANCH  23  24
ENDBRANCH  22  23
ENDBRANCH   4  22
BRANCH   6  28
ATOM     28  O   LIG     1       2.348  -1.042   0.562  1.00  0.00    -0.350 OA
BRANCH  28  29
ATOM     29  C   LIG     1       3.486  -0.549   1.287  1.00  0.00     0.171 C 
ATOM     30  C   LIG     1       3.867  -1.574   2.340  1.00  0.00     0.034 C 
ENDBRANCH  28  29
ENDBRANCH   6  28
TORSDOF 10
