REMARK  21 active torsions:
REMARK  status: ('A' for Active; 'I' for Inactive)
REMARK    1  A    between atoms: C_6  and  N_10 
REMARK    2  A    between atoms: N_7  and  C_11 
REMARK    3  A    between atoms: C_13  and  C_18 
REMARK    4  A    between atoms: C_14  and  O_16 
REMARK    5  A    between atoms: C_15  and  O_17 
REMARK    6  A    between atoms: O_16  and  P_20 
REMARK    7  A    between atoms: C_18  and  O_19 
REMARK    8  A    between atoms: O_19  and  P_24 
REMARK    9  A    between atoms: P_24  and  O_25 
REMARK   10  A    between atoms: O_25  and  P_26 
REMARK   11  A    between atoms: P_26  and  O_27 
REMARK   12  A    between atoms: O_27  and  C_28 
REMARK   13  A    between atoms: C_28  and  C_29 
REMARK   14  A    between atoms: C_29  and  C_30 
REMARK   15  A    between atoms: C_30  and  C_31 
REMARK       I    between atoms: C_31  and  N_32 
REMARK   16  A    between atoms: N_32  and  C_33 
REMARK   17  A    between atoms: C_33  and  C_34 
REMARK   18  A    between atoms: C_34  and  C_43 
REMARK       I    between atoms: C_43  and  N_44 
REMARK   19  A    between atoms: N_44  and  C_45 
REMARK   20  A    between atoms: C_45  and  C_47 
REMARK   21  A    between atoms: C_47  and  S_48 
ROOT
HETATM    1  P   LIG     1      -3.418  10.498  10.976  1.00  0.00     0.417 P 
HETATM    2  O   LIG     1      -3.916  11.927  11.064  1.00  0.00    -0.624 OA
HETATM    3  O   LIG     1      -3.084   9.737  12.244  1.00  0.00    -0.624 OA
ENDROOT
BRANCH   1   4
HETATM    4  O   LIG     1      -4.391   9.607  10.051  1.00  0.00    -0.287 OA
BRANCH   4   5
HETATM    5  C   LIG     1      -5.789   9.628  10.224  1.00  0.00     0.216 C 
BRANCH   5   6
HETATM    6  C   LIG     1      -6.453   9.788   8.841  1.00  0.00     0.180 C 
HETATM    7  O   LIG     1      -6.098   8.641   7.971  1.00  0.00    -0.353 OA
HETATM    8  C   LIG     1      -7.358   8.032   7.588  1.00  0.00     0.262 C 
HETATM    9  C   LIG     1      -8.256   8.308   8.794  1.00  0.00     0.199 C 
HETATM   10  C   LIG     1      -7.995   9.803   8.924  1.00  0.00     0.199 C 
BRANCH   8  11
HETATM   11  N   LIG     1      -7.195   6.623   7.312  1.00  0.00    -0.294 N 
HETATM   12  C   LIG     1      -8.191   5.887   6.736  1.00  0.00     0.166 A 
HETATM   13  N   LIG     1      -9.285   6.349   6.118  1.00  0.00    -0.222 NA
HETATM   14  C   LIG     1      -7.910   4.586   7.082  1.00  0.00     0.144 A 
HETATM   15  C   LIG     1     -10.217   5.407   5.969  1.00  0.00     0.237 A 
HETATM   16  N   LIG     1     -10.101   4.088   6.242  1.00  0.00    -0.228 NA
HETATM   17  C   LIG     1      -8.939   3.663   6.816  1.00  0.00     0.135 A 
HETATM   18  N   LIG     1      -6.642   4.494   7.650  1.00  0.00    -0.236 NA
HETATM   19  C   LIG     1      -6.246   5.752   7.772  1.00  0.00     0.214 C 
BRANCH  17  20
HETATM   20  N   LIG     1      -8.839   2.308   7.132  1.00  0.00    -0.285 NA
HETATM   21  H   LIG     1      -9.497   1.780   6.574  1.00  0.00     0.125 HD
HETATM   22  H   LIG     1      -7.876   1.988   7.229  1.00  0.00     0.125 HD
ENDBRANCH  17  20
ENDBRANCH   8  11
BRANCH   9  23
HETATM   23  O   LIG     1      -9.598   7.865   8.735  1.00  0.00    -0.388 OA
HETATM   24  H   LIG     1     -10.096   8.539   8.175  1.00  0.00     0.210 HD
ENDBRANCH   9  23
BRANCH  10  25
HETATM   25  O   LIG     1      -8.451  10.535   7.784  1.00  0.00    -0.272 OA
BRANCH  25  26
HETATM   26  P   LIG     1     -10.025  10.931   7.630  1.00  0.00     0.422 P 
HETATM   27  O   LIG     1     -10.071  11.835   6.411  1.00  0.00    -0.617 OA
HETATM   28  O   LIG     1     -10.381  11.598   8.945  1.00  0.00    -0.617 OA
HETATM   29  O   LIG     1     -10.705   9.585   7.414  1.00  0.00    -0.617 OA
ENDBRANCH  25  26
ENDBRANCH  10  25
ENDBRANCH   5   6
ENDBRANCH   4   5
ENDBRANCH   1   4
BRANCH   1  30
HETATM   30  O   LIG     1      -2.114  10.450  10.017  1.00  0.00    -0.180 OA
BRANCH  30  31
HETATM   31  P   LIG     1      -0.957   9.480  10.861  1.00  0.00     0.417 P 
HETATM   32  O   LIG     1       0.077   8.615  11.614  1.00  0.00    -0.624 OA
HETATM   33  O   LIG     1      -1.089   8.473   9.676  1.00  0.00    -0.624 OA
BRANCH  31  34
HETATM   34  O   LIG     1       0.146  10.628  10.352  1.00  0.00    -0.289 OA
BRANCH  34  35
HETATM   35  C   LIG     1       1.500  10.592  10.750  1.00  0.00     0.191 C 
BRANCH  35  36
HETATM   36  C   LIG     1       2.443   9.964   9.681  1.00  0.00    -0.014 C 
HETATM   37  C   LIG     1       2.180  10.711   8.350  1.00  0.00     0.018 C 
HETATM   38  C   LIG     1       2.141   8.473   9.433  1.00  0.00     0.018 C 
BRANCH  36  39
HETATM   39  C   LIG     1       3.932  10.146  10.139  1.00  0.00     0.083 C 
HETATM   40  C   LIG     1       4.225   9.648  11.566  1.00  0.00     0.020 C 
BRANCH  39  41
HETATM   41  C   LIG     1       4.930   9.598   9.107  1.00  0.00     0.222 C 
HETATM   42  O   LIG     1       5.158  10.198   8.056  1.00  0.00    -0.273 OA
HETATM   43  N   LIG     1       5.534   8.399   9.416  1.00  0.00    -0.360 N 
HETATM   44  H   LIG     1       5.110   7.873  10.169  1.00  0.00     0.162 HD
BRANCH  43  45
HETATM   45  C   LIG     1       6.379   7.655   8.511  1.00  0.00     0.132 C 
BRANCH  45  46
HETATM   46  C   LIG     1       7.381   8.423   7.656  1.00  0.00     0.122 C 
BRANCH  46  47
HETATM   47  C   LIG     1       8.385   9.226   8.461  1.00  0.00     0.219 C 
HETATM   48  O   LIG     1       8.154   9.770   9.536  1.00  0.00    -0.274 OA
HETATM   49  N   LIG     1       9.631   9.294   7.842  1.00  0.00    -0.360 N 
HETATM   50  H   LIG     1       9.679   9.056   6.856  1.00  0.00     0.162 HD
BRANCH  49  51
HETATM   51  C   LIG     1      10.620  10.221   8.358  1.00  0.00     0.132 C 
BRANCH  51  52
HETATM   52  C   LIG     1      12.055   9.851   7.997  1.00  0.00     0.090 C 
BRANCH  52  53
HETATM   53  S   LIG     1      12.372   9.866   6.201  1.00  0.00    -0.181 SA
HETATM   54  H   LIG     1      11.781   8.695   5.924  1.00  0.00     0.101 HD
ENDBRANCH  52  53
ENDBRANCH  51  52
ENDBRANCH  49  51
ENDBRANCH  46  47
ENDBRANCH  45  46
ENDBRANCH  43  45
ENDBRANCH  39  41
ENDBRANCH  36  39
ENDBRANCH  35  36
ENDBRANCH  34  35
ENDBRANCH  31  34
ENDBRANCH  30  31
ENDBRANCH   1  30
TORSDOF 21
