REMARK  0 active torsions:
REMARK  status: ('A' for Active; 'I' for Inactive)
ROOT
HETATM    1  C   LIG     1      -0.342  -1.444   0.489  1.00  0.00     0.038 A 
HETATM    2  C   LIG     1      -1.625  -0.913   0.387  1.00  0.00     0.003 A 
HETATM    3  C   LIG     1      -1.802   0.459   0.235  1.00  0.00     0.008 A 
HETATM    4  C   LIG     1      -0.698   1.326   0.171  1.00  0.00    -0.043 A 
HETATM    5  C   LIG     1       0.609   0.794   0.296  1.00  0.00     0.071 A 
HETATM    6  C   LIG     1       0.776  -0.602   0.463  1.00  0.00     0.085 A 
HETATM    7  C   LIG     1       1.799   1.721   0.290  1.00  0.00     0.259 C 
HETATM    8  N   LIG     1       2.942   1.214  -0.305  1.00  0.00    -0.323 N 
HETATM    9  C   LIG     1       4.198   1.831  -0.448  1.00  0.00     0.035 A 
HETATM   10  C   LIG     1       5.221   1.061  -1.008  1.00  0.00     0.031 A 
HETATM   11  C   LIG     1       4.476   3.146  -0.068  1.00  0.00     0.047 A 
HETATM   12  C   LIG     1       6.499   1.596  -1.182  1.00  0.00     0.027 A 
HETATM   13  C   LIG     1       6.769   2.910  -0.797  1.00  0.00     0.049 A 
HETATM   14 CL   LIG     1       8.373   3.497  -1.046  1.00  0.00    -0.083 Cl
HETATM   15  C   LIG     1       5.763   3.702  -0.235  1.00  0.00     0.071 A 
HETATM   16  O   LIG     1       1.696   2.835   0.789  1.00  0.00    -0.267 OA
HETATM   17  O   LIG     1       2.057  -1.092   0.543  1.00  0.00    -0.350 OA
HETATM   18  C   LIG     1       2.241  -2.285   1.310  1.00  0.00     0.171 C 
HETATM   19  C   LIG     1       3.708  -2.363   1.691  1.00  0.00     0.034 C 
HETATM   20  C   LIG     1       6.028   5.121   0.190  1.00  0.00     0.419 C 
HETATM   21  F   LIG     1       6.998   5.218   1.142  1.00  0.00    -0.166 F 
HETATM   22  F   LIG     1       6.423   5.918  -0.841  1.00  0.00    -0.166 F 
HETATM   23  F   LIG     1       4.938   5.743   0.726  1.00  0.00    -0.166 F 
HETATM   24  C   LIG     1      -0.967   2.796  -0.019  1.00  0.00     0.049 C 
HETATM   25  H   LIG     1       2.883   0.242  -0.591  1.00  0.00     0.169 HD
ENDROOT
TORSDOF 0
