REMARK  16 active torsions:
REMARK  status: ('A' for Active; 'I' for Inactive)
REMARK    1  A    between atoms: N_1  and  C_2 
REMARK    2  A    between atoms: C_4  and  C_9 
REMARK    3  A    between atoms: C_5  and  O_7 
REMARK    4  A    between atoms: C_6  and  O_8 
REMARK    5  A    between atoms: C_9  and  O_35 
REMARK    6  A    between atoms: C_11  and  C_15 
REMARK       I    between atoms: C_15  and  N_16 
REMARK    7  A    between atoms: C_23  and  N_27 
REMARK    8  A    between atoms: N_24  and  C_28 
REMARK    9  A    between atoms: C_30  and  C_44 
REMARK   10  A    between atoms: C_31  and  O_33 
REMARK   11  A    between atoms: C_32  and  O_34 
REMARK   12  A    between atoms: O_35  and  P_36 
REMARK   13  A    between atoms: P_36  and  O_37 
REMARK   14  A    between atoms: O_37  and  P_40 
REMARK   15  A    between atoms: P_40  and  O_41 
REMARK   16  A    between atoms: O_41  and  C_44 
ROOT
ATOM      1  O   LIG     1      -5.614   3.803  -2.621  1.00  0.00    -0.180 OA
ENDROOT
BRANCH   1   2
ATOM      2  P   LIG     1      -6.001   3.708  -4.169  1.00  0.00     0.417 P 
ATOM      3  O   LIG     1      -6.346   2.260  -4.504  1.00  0.00    -0.624 OA
ATOM      4  O   LIG     1      -5.021   4.453  -5.035  1.00  0.00    -0.624 OA
BRANCH   2   5
ATOM      5  O   LIG     1      -7.405   4.519  -4.184  1.00  0.00    -0.287 OA
BRANCH   5   6
ATOM      6  C   LIG     1      -8.550   3.810  -4.580  1.00  0.00     0.216 C 
BRANCH   6   7
ATOM      7  C   LIG     1      -9.269   3.064  -3.450  1.00  0.00     0.180 C 
ATOM      8  O   LIG     1     -10.190   2.125  -4.087  1.00  0.00    -0.353 OA
ATOM      9  C   LIG     1      -9.900   0.826  -3.565  1.00  0.00     0.259 C 
ATOM     10  C   LIG     1      -8.554   0.824  -2.875  1.00  0.00     0.198 C 
ATOM     11  C   LIG     1      -8.466   2.259  -2.418  1.00  0.00     0.182 C 
BRANCH   9  12
ATOM     12  N   LIG     1      -9.895  -0.178  -4.662  1.00  0.00    -0.336 N 
ATOM     13  C   LIG     1     -10.510  -1.367  -4.468  1.00  0.00     0.110 A 
ATOM     14  C   LIG     1     -10.542  -2.326  -5.481  1.00  0.00     0.047 A 
ATOM     15  C   LIG     1      -9.931  -2.047  -6.702  1.00  0.00     0.020 A 
ATOM     16  C   LIG     1      -9.275  -0.830  -6.868  1.00  0.00     0.018 A 
ATOM     17  C   LIG     1      -9.258   0.092  -5.825  1.00  0.00     0.093 A 
BRANCH  14  18
ATOM     18  C   LIG     1     -11.267  -3.584  -5.199  1.00  0.00     0.250 C 
ATOM     19  O   LIG     1     -12.028  -3.653  -4.243  1.00  0.00    -0.268 OA
ATOM     20  N   LIG     1     -11.053  -4.658  -6.013  1.00  0.00    -0.366 N 
ATOM     21  H   LIG     1     -10.311  -4.722  -6.695  1.00  0.00     0.159 HD
ATOM     22  H   LIG     1     -11.507  -5.524  -5.747  1.00  0.00     0.159 HD
ENDBRANCH  14  18
ENDBRANCH   9  12
BRANCH  10  23
ATOM     23  O   LIG     1      -8.518  -0.136  -1.811  1.00  0.00    -0.388 OA
ATOM     24  H   LIG     1      -8.277   0.388  -1.014  1.00  0.00     0.210 HD
ENDBRANCH  10  23
BRANCH  11  25
ATOM     25  O   LIG     1      -9.104   2.369  -1.130  1.00  0.00    -0.390 OA
ATOM     26  H   LIG     1      -8.770   3.248  -0.805  1.00  0.00     0.210 HD
ENDBRANCH  11  25
ENDBRANCH   6   7
ENDBRANCH   5   6
ENDBRANCH   2   5
ENDBRANCH   1   2
BRANCH   1  27
ATOM     27  P   LIG     1      -6.082   4.803  -1.465  1.00  0.00     0.417 P 
ATOM     28  O   LIG     1      -5.350   4.472  -0.188  1.00  0.00    -0.624 OA
ATOM     29  O   LIG     1      -7.604   4.889  -1.383  1.00  0.00    -0.624 OA
BRANCH  27  30
ATOM     30  O   LIG     1      -5.508   6.210  -2.022  1.00  0.00    -0.287 OA
BRANCH  30  31
ATOM     31  C   LIG     1      -5.447   7.302  -1.126  1.00  0.00     0.216 C 
BRANCH  31  32
ATOM     32  C   LIG     1      -6.828   7.722  -0.633  1.00  0.00     0.180 C 
ATOM     33  O   LIG     1      -6.738   8.993   0.054  1.00  0.00    -0.353 OA
ATOM     34  C   LIG     1      -7.882   9.769  -0.349  1.00  0.00     0.262 C 
ATOM     35  C   LIG     1      -8.171   9.358  -1.790  1.00  0.00     0.198 C 
ATOM     36  C   LIG     1      -7.846   7.872  -1.772  1.00  0.00     0.182 C 
BRANCH  34  37
ATOM     37  N   LIG     1      -7.550  11.171  -0.188  1.00  0.00    -0.294 N 
ATOM     38  C   LIG     1      -8.269  12.102   0.513  1.00  0.00     0.166 A 
ATOM     39  N   LIG     1      -9.426  11.934   1.175  1.00  0.00    -0.222 NA
ATOM     40  C   LIG     1      -7.528  13.270   0.416  1.00  0.00     0.144 A 
ATOM     41  C   LIG     1      -9.809  13.078   1.775  1.00  0.00     0.237 A 
ATOM     42  N   LIG     1      -9.189  14.280   1.778  1.00  0.00    -0.228 NA
ATOM     43  C   LIG     1      -8.036  14.400   1.081  1.00  0.00     0.135 A 
ATOM     44  N   LIG     1      -6.378  13.069  -0.319  1.00  0.00    -0.236 NA
ATOM     45  C   LIG     1      -6.420  11.796  -0.655  1.00  0.00     0.214 A 
BRANCH  43  46
ATOM     46  N   LIG     1      -7.386  15.632   1.093  1.00  0.00    -0.285 NA
ATOM     47  H   LIG     1      -7.631  16.163   1.917  1.00  0.00     0.125 HD
ATOM     48  H   LIG     1      -6.400  15.541   0.871  1.00  0.00     0.125 HD
ENDBRANCH  43  46
ENDBRANCH  34  37
BRANCH  35  49
ATOM     49  O   LIG     1      -9.519   9.595  -2.196  1.00  0.00    -0.388 OA
ATOM     50  H   LIG     1      -9.970   8.734  -2.042  1.00  0.00     0.210 HD
ENDBRANCH  35  49
BRANCH  36  51
ATOM     51  O   LIG     1      -9.041   7.127  -1.471  1.00  0.00    -0.390 OA
ATOM     52  H   LIG     1      -8.705   6.184  -1.432  1.00  0.00     0.210 HD
ENDBRANCH  36  51
ENDBRANCH  31  32
ENDBRANCH  30  31
ENDBRANCH  27  30
ENDBRANCH   1  27
TORSDOF 16
