REMARK  16 active torsions:
REMARK  status: ('A' for Active; 'I' for Inactive)
REMARK    1  A    between atoms: N_1  and  C_2 
REMARK    2  A    between atoms: C_4  and  C_9 
REMARK    3  A    between atoms: C_5  and  O_7 
REMARK    4  A    between atoms: C_6  and  O_8 
REMARK    5  A    between atoms: C_9  and  O_35 
REMARK    6  A    between atoms: C_11  and  C_15 
REMARK       I    between atoms: C_15  and  N_16 
REMARK    7  A    between atoms: C_23  and  N_27 
REMARK    8  A    between atoms: N_24  and  C_28 
REMARK    9  A    between atoms: C_30  and  C_44 
REMARK   10  A    between atoms: C_31  and  O_33 
REMARK   11  A    between atoms: C_32  and  O_34 
REMARK   12  A    between atoms: O_35  and  P_36 
REMARK   13  A    between atoms: P_36  and  O_37 
REMARK   14  A    between atoms: O_37  and  P_40 
REMARK   15  A    between atoms: P_40  and  O_41 
REMARK   16  A    between atoms: O_41  and  C_44 
ROOT
HETATM    1  O   LIG     1       8.977  -2.478   4.179  1.00  0.00    -0.180 OA
ENDROOT
BRANCH   1   2
HETATM    2  P   LIG     1       9.394  -1.751   2.829  1.00  0.00     0.417 P 
HETATM    3  O   LIG     1       8.200  -0.903   2.435  1.00  0.00    -0.624 OA
HETATM    4  O   LIG     1      10.785  -1.169   2.857  1.00  0.00    -0.624 OA
BRANCH   2   5
HETATM    5  O   LIG     1       9.357  -2.981   1.792  1.00  0.00    -0.287 OA
BRANCH   5   6
HETATM    6  C   LIG     1      10.410  -3.274   0.918  1.00  0.00     0.216 C 
BRANCH   6   7
HETATM    7  C   LIG     1      11.208  -4.455   1.458  1.00  0.00     0.180 C 
HETATM    8  O   LIG     1      11.910  -5.062   0.347  1.00  0.00    -0.353 OA
HETATM    9  C   LIG     1      13.311  -4.834   0.542  1.00  0.00     0.259 C 
HETATM   10  C   LIG     1      13.475  -3.755   1.626  1.00  0.00     0.198 C 
HETATM   11  C   LIG     1      12.264  -4.048   2.485  1.00  0.00     0.182 C 
BRANCH   9  12
HETATM   12  N   LIG     1      13.925  -4.488  -0.762  1.00  0.00    -0.337 N 
HETATM   13  C   LIG     1      13.642  -3.283  -1.414  1.00  0.00     0.106 A 
HETATM   14  C   LIG     1      14.180  -2.922  -2.593  1.00  0.00     0.028 A 
HETATM   15  C   LIG     1      15.107  -3.872  -3.318  1.00  0.00     0.074 A 
HETATM   16  C   LIG     1      15.267  -5.204  -2.625  1.00  0.00    -0.005 A 
HETATM   17  C   LIG     1      14.693  -5.431  -1.435  1.00  0.00     0.089 A 
BRANCH  14  18
HETATM   18  C   LIG     1      13.924  -1.624  -3.272  1.00  0.00     0.247 C 
HETATM   19  O   LIG     1      14.409  -1.368  -4.372  1.00  0.00    -0.268 OA
HETATM   20  N   LIG     1      13.157  -0.704  -2.633  1.00  0.00    -0.366 N 
HETATM   21  H   LIG     1      12.755  -0.824  -1.713  1.00  0.00     0.159 HD
HETATM   22  H   LIG     1      13.009   0.184  -3.090  1.00  0.00     0.159 HD
ENDBRANCH  14  18
ENDBRANCH   9  12
BRANCH  10  23
HETATM   23  O   LIG     1      14.694  -3.863   2.371  1.00  0.00    -0.388 OA
HETATM   24  H   LIG     1      14.415  -4.309   3.201  1.00  0.00     0.210 HD
ENDBRANCH  10  23
BRANCH  11  25
HETATM   25  O   LIG     1      12.582  -5.159   3.352  1.00  0.00    -0.390 OA
HETATM   26  H   LIG     1      11.750  -5.204   3.911  1.00  0.00     0.210 HD
ENDBRANCH  11  25
ENDBRANCH   6   7
ENDBRANCH   5   6
ENDBRANCH   2   5
ENDBRANCH   1   2
BRANCH   1  27
HETATM   27  P   LIG     1       9.386  -3.735   5.059  1.00  0.00     0.417 P 
HETATM   28  O   LIG     1       9.750  -3.295   6.456  1.00  0.00    -0.624 OA
HETATM   29  O   LIG     1      10.268  -4.721   4.330  1.00  0.00    -0.624 OA
BRANCH  27  30
HETATM   30  O   LIG     1       7.907  -4.425   5.185  1.00  0.00    -0.287 OA
BRANCH  30  31
HETATM   31  C   LIG     1       7.459  -5.274   4.147  1.00  0.00     0.216 C 
BRANCH  31  32
HETATM   32  C   LIG     1       6.919  -4.515   2.939  1.00  0.00     0.180 C 
HETATM   33  O   LIG     1       6.417  -5.461   1.966  1.00  0.00    -0.353 OA
HETATM   34  C   LIG     1       5.024  -5.175   1.750  1.00  0.00     0.262 C 
HETATM   35  C   LIG     1       4.561  -4.372   2.970  1.00  0.00     0.198 C 
HETATM   36  C   LIG     1       5.800  -3.529   3.256  1.00  0.00     0.182 C 
BRANCH  34  37
HETATM   37  N   LIG     1       4.347  -6.442   1.560  1.00  0.00    -0.294 N 
HETATM   38  C   LIG     1       3.225  -6.657   0.806  1.00  0.00     0.166 A 
HETATM   39  N   LIG     1       2.466  -5.754   0.164  1.00  0.00    -0.222 NA
HETATM   40  C   LIG     1       3.039  -8.030   0.831  1.00  0.00     0.144 A 
HETATM   41  C   LIG     1       1.435  -6.349  -0.465  1.00  0.00     0.237 A 
HETATM   42  N   LIG     1       1.127  -7.665  -0.525  1.00  0.00    -0.228 NA
HETATM   43  C   LIG     1       1.947  -8.535   0.107  1.00  0.00     0.135 A 
HETATM   44  N   LIG     1       3.998  -8.652   1.601  1.00  0.00    -0.236 NA
HETATM   45  C   LIG     1       4.778  -7.670   2.004  1.00  0.00     0.214 A 
BRANCH  43  46
HETATM   46  N   LIG     1       1.654  -9.895   0.035  1.00  0.00    -0.285 NA
HETATM   47  H   LIG     1       0.667 -10.050  -0.113  1.00  0.00     0.125 HD
HETATM   48  H   LIG     1       2.109 -10.416   0.779  1.00  0.00     0.125 HD
ENDBRANCH  43  46
ENDBRANCH  34  37
BRANCH  35  49
HETATM   49  O   LIG     1       3.427  -3.542   2.719  1.00  0.00    -0.388 OA
HETATM   50  H   LIG     1       3.817  -2.725   2.332  1.00  0.00     0.210 HD
ENDBRANCH  35  49
BRANCH  36  51
HETATM   51  O   LIG     1       5.775  -2.426   2.323  1.00  0.00    -0.390 OA
HETATM   52  H   LIG     1       6.623  -1.910   2.437  1.00  0.00     0.210 HD
ENDBRANCH  36  51
ENDBRANCH  31  32
ENDBRANCH  30  31
ENDBRANCH  27  30
ENDBRANCH   1  27
TORSDOF 16
