REMARK  17 active torsions:
REMARK  status: ('A' for Active; 'I' for Inactive)
REMARK    1  A    between atoms: N_1  and  C_2 
REMARK    2  A    between atoms: C_4  and  C_9 
REMARK    3  A    between atoms: C_5  and  O_7 
REMARK    4  A    between atoms: C_6  and  O_8 
REMARK    5  A    between atoms: C_9  and  O_35 
REMARK    6  A    between atoms: C_11  and  C_15 
REMARK       I    between atoms: C_15  and  N_16 
REMARK    7  A    between atoms: C_23  and  N_27 
REMARK    8  A    between atoms: N_24  and  C_28 
REMARK    9  A    between atoms: C_30  and  C_44 
REMARK   10  A    between atoms: C_31  and  O_33 
REMARK   11  A    between atoms: C_32  and  O_34 
REMARK   12  A    between atoms: O_34  and  P_45 
REMARK   13  A    between atoms: O_35  and  P_36 
REMARK   14  A    between atoms: P_36  and  O_37 
REMARK   15  A    between atoms: O_37  and  P_40 
REMARK   16  A    between atoms: P_40  and  O_41 
REMARK   17  A    between atoms: O_41  and  C_44 
ROOT
ATOM      1  P   LIG     1      -3.855  -3.785   7.791  1.00  0.00     0.417 P 
ATOM      2  O   LIG     1      -3.827  -3.499   9.276  1.00  0.00    -0.624 OA
ATOM      3  O   LIG     1      -3.095  -2.914   6.819  1.00  0.00    -0.624 OA
ENDROOT
BRANCH   1   4
ATOM      4  O   LIG     1      -5.341  -4.047   7.291  1.00  0.00    -0.180 OA
BRANCH   4   5
ATOM      5  P   LIG     1      -6.648  -3.231   6.917  1.00  0.00     0.417 P 
ATOM      6  O   LIG     1      -7.220  -2.388   8.030  1.00  0.00    -0.624 OA
ATOM      7  O   LIG     1      -6.678  -2.719   5.486  1.00  0.00    -0.624 OA
BRANCH   5   8
ATOM      8  O   LIG     1      -7.655  -4.531   6.846  1.00  0.00    -0.287 OA
BRANCH   8   9
ATOM      9  C   LIG     1      -7.264  -5.574   5.982  1.00  0.00     0.216 C 
BRANCH   9  10
ATOM     10  C   LIG     1      -7.459  -5.223   4.506  1.00  0.00     0.180 C 
ATOM     11  O   LIG     1      -7.484  -6.479   3.763  1.00  0.00    -0.353 OA
ATOM     12  C   LIG     1      -8.776  -6.594   3.193  1.00  0.00     0.259 C 
ATOM     13  C   LIG     1      -9.724  -5.691   3.977  1.00  0.00     0.198 C 
ATOM     14  C   LIG     1      -8.799  -4.517   4.233  1.00  0.00     0.182 C 
BRANCH  12  15
ATOM     15  N   LIG     1      -9.236  -8.004   3.242  1.00  0.00    -0.336 N 
ATOM     16  C   LIG     1      -9.109  -8.731   4.382  1.00  0.00     0.110 A 
ATOM     17  C   LIG     1      -9.621 -10.021   4.456  1.00  0.00     0.047 A 
ATOM     18  C   LIG     1     -10.229 -10.577   3.330  1.00  0.00     0.020 A 
ATOM     19  C   LIG     1     -10.301  -9.838   2.156  1.00  0.00     0.018 A 
ATOM     20  C   LIG     1      -9.801  -8.542   2.138  1.00  0.00     0.093 A 
BRANCH  17  21
ATOM     21  C   LIG     1      -9.643 -10.777   5.726  1.00  0.00     0.250 C 
ATOM     22  O   LIG     1     -10.528 -11.593   5.931  1.00  0.00    -0.268 OA
ATOM     23  N   LIG     1      -8.664 -10.522   6.643  1.00  0.00    -0.366 N 
ATOM     24  H   LIG     1      -7.771 -10.086   6.436  1.00  0.00     0.159 HD
ATOM     25  H   LIG     1      -8.650 -11.117   7.465  1.00  0.00     0.159 HD
ENDBRANCH  17  21
ENDBRANCH  12  15
BRANCH  13  26
ATOM     26  O   LIG     1     -10.899  -5.357   3.233  1.00  0.00    -0.388 OA
ATOM     27  H   LIG     1     -10.780  -4.413   2.987  1.00  0.00     0.210 HD
ENDBRANCH  13  26
BRANCH  14  28
ATOM     28  O   LIG     1      -8.745  -3.744   3.019  1.00  0.00    -0.390 OA
ATOM     29  H   LIG     1      -8.096  -3.031   3.244  1.00  0.00     0.210 HD
ENDBRANCH  14  28
ENDBRANCH   9  10
ENDBRANCH   8   9
ENDBRANCH   5   8
ENDBRANCH   4   5
ENDBRANCH   1   4
BRANCH   1  30
ATOM     30  O   LIG     1      -3.293  -5.315   7.598  1.00  0.00    -0.287 OA
BRANCH  30  31
ATOM     31  C   LIG     1      -2.076  -5.644   8.253  1.00  0.00     0.216 C 
BRANCH  31  32
ATOM     32  C   LIG     1      -1.408  -6.917   7.694  1.00  0.00     0.180 C 
ATOM     33  O   LIG     1      -0.219  -7.221   8.473  1.00  0.00    -0.353 OA
ATOM     34  C   LIG     1       0.019  -8.647   8.281  1.00  0.00     0.263 C 
ATOM     35  C   LIG     1      -1.372  -9.289   8.261  1.00  0.00     0.216 C 
ATOM     36  C   LIG     1      -2.290  -8.178   7.718  1.00  0.00     0.183 C 
BRANCH  34  37
ATOM     37  N   LIG     1       0.880  -9.114   9.363  1.00  0.00    -0.294 N 
ATOM     38  C   LIG     1       0.668  -9.029  10.717  1.00  0.00     0.166 A 
ATOM     39  N   LIG     1      -0.378  -8.500  11.378  1.00  0.00    -0.222 NA
ATOM     40  C   LIG     1       1.781  -9.625  11.292  1.00  0.00     0.144 A 
ATOM     41  C   LIG     1      -0.222  -8.602  12.709  1.00  0.00     0.237 A 
ATOM     42  N   LIG     1       0.800  -9.152  13.407  1.00  0.00    -0.228 NA
ATOM     43  C   LIG     1       1.813  -9.697  12.697  1.00  0.00     0.135 A 
ATOM     44  N   LIG     1       2.689 -10.028  10.340  1.00  0.00    -0.236 NA
ATOM     45  C   LIG     1       2.092  -9.748   9.194  1.00  0.00     0.214 A 
BRANCH  43  46
ATOM     46  N   LIG     1       2.876 -10.272  13.403  1.00  0.00    -0.285 NA
ATOM     47  H   LIG     1       2.978  -9.820  14.300  1.00  0.00     0.125 HD
ATOM     48  H   LIG     1       3.694 -10.338  12.805  1.00  0.00     0.125 HD
ENDBRANCH  43  46
ENDBRANCH  34  37
BRANCH  35  49
ATOM     49  O   LIG     1      -1.525 -10.554   7.637  1.00  0.00    -0.270 OA
BRANCH  49  50
ATOM     50  P   LIG     1      -0.668 -10.880   6.287  1.00  0.00     0.422 P 
ATOM     51  O   LIG     1       0.750 -11.045   6.798  1.00  0.00    -0.617 OA
ATOM     52  O   LIG     1      -0.883  -9.626   5.455  1.00  0.00    -0.617 OA
ATOM     53  O   LIG     1      -1.308 -12.137   5.733  1.00  0.00    -0.617 OA
ENDBRANCH  49  50
ENDBRANCH  35  49
BRANCH  36  54
ATOM     54  O   LIG     1      -2.871  -8.453   6.441  1.00  0.00    -0.390 OA
ATOM     55  H   LIG     1      -2.140  -8.906   5.918  1.00  0.00     0.210 HD
ENDBRANCH  36  54
ENDBRANCH  31  32
ENDBRANCH  30  31
ENDBRANCH   1  30
TORSDOF 17
