REMARK  17 active torsions:
REMARK  status: ('A' for Active; 'I' for Inactive)
REMARK    1  A    between atoms: N_1  and  C_2 
REMARK    2  A    between atoms: C_4  and  C_9 
REMARK    3  A    between atoms: C_5  and  O_7 
REMARK    4  A    between atoms: C_6  and  O_8 
REMARK    5  A    between atoms: C_9  and  O_35 
REMARK    6  A    between atoms: C_11  and  C_15 
REMARK       I    between atoms: C_15  and  N_16 
REMARK    7  A    between atoms: C_23  and  N_27 
REMARK    8  A    between atoms: N_24  and  C_28 
REMARK    9  A    between atoms: C_30  and  C_44 
REMARK   10  A    between atoms: C_31  and  O_33 
REMARK   11  A    between atoms: C_32  and  O_34 
REMARK   12  A    between atoms: O_34  and  P_45 
REMARK   13  A    between atoms: O_35  and  P_36 
REMARK   14  A    between atoms: P_36  and  O_37 
REMARK   15  A    between atoms: O_37  and  P_40 
REMARK   16  A    between atoms: P_40  and  O_41 
REMARK   17  A    between atoms: O_41  and  C_44 
ROOT
HETATM    1  P   LIG     1      -1.763   3.097   0.187  1.00  0.00     0.417 P 
HETATM    2  O   LIG     1      -0.385   3.237   0.795  1.00  0.00    -0.624 OA
HETATM    3  O   LIG     1      -2.605   1.880   0.521  1.00  0.00    -0.624 OA
ENDROOT
BRANCH   1   4
HETATM    4  O   LIG     1      -2.641   4.421   0.305  1.00  0.00    -0.180 OA
BRANCH   4   5
HETATM    5  P   LIG     1      -2.703   5.700   1.251  1.00  0.00     0.417 P 
HETATM    6  O   LIG     1      -3.072   5.377   2.683  1.00  0.00    -0.624 OA
HETATM    7  O   LIG     1      -1.622   6.719   0.949  1.00  0.00    -0.624 OA
BRANCH   5   8
HETATM    8  O   LIG     1      -4.065   6.379   0.617  1.00  0.00    -0.287 OA
BRANCH   8   9
HETATM    9  C   LIG     1      -4.035   6.596  -0.786  1.00  0.00     0.216 C 
BRANCH   9  10
HETATM   10  C   LIG     1      -5.054   7.655  -1.195  1.00  0.00     0.180 C 
HETATM   11  O   LIG     1      -6.419   7.155  -1.107  1.00  0.00    -0.353 OA
HETATM   12  C   LIG     1      -7.203   8.218  -0.558  1.00  0.00     0.259 C 
HETATM   13  C   LIG     1      -6.282   8.939   0.433  1.00  0.00     0.198 C 
HETATM   14  C   LIG     1      -4.976   8.937  -0.352  1.00  0.00     0.182 C 
BRANCH  12  15
HETATM   15  N   LIG     1      -8.522   7.745  -0.053  1.00  0.00    -0.337 N 
HETATM   16  C   LIG     1      -9.556   7.510  -0.969  1.00  0.00     0.106 C 
HETATM   17  C   LIG     1     -10.824   7.237  -0.612  1.00  0.00     0.028 C 
HETATM   18  C   LIG     1     -11.217   7.202   0.842  1.00  0.00     0.074 C 
HETATM   19  C   LIG     1     -10.033   7.288   1.770  1.00  0.00    -0.005 C 
HETATM   20  C   LIG     1      -8.799   7.537   1.295  1.00  0.00     0.089 C 
BRANCH  17  21
HETATM   21  C   LIG     1     -11.906   6.980  -1.597  1.00  0.00     0.247 C 
HETATM   22  O   LIG     1     -13.075   7.255  -1.372  1.00  0.00    -0.268 OA
HETATM   23  N   LIG     1     -11.533   6.331  -2.732  1.00  0.00    -0.366 N 
HETATM   24  H   LIG     1     -10.607   5.934  -2.844  1.00  0.00     0.159 HD
HETATM   25  H   LIG     1     -12.258   6.044  -3.375  1.00  0.00     0.159 HD
ENDBRANCH  17  21
ENDBRANCH  12  15
BRANCH  13  26
HETATM   26  O   LIG     1      -6.702  10.282   0.730  1.00  0.00    -0.388 OA
HETATM   27  H   LIG     1      -6.310  10.807   0.001  1.00  0.00     0.210 HD
ENDBRANCH  13  26
BRANCH  14  28
HETATM   28  O   LIG     1      -4.981  10.111  -1.208  1.00  0.00    -0.390 OA
HETATM   29  H   LIG     1      -4.123  10.079  -1.676  1.00  0.00     0.210 HD
ENDBRANCH  14  28
ENDBRANCH   9  10
ENDBRANCH   8   9
ENDBRANCH   5   8
ENDBRANCH   4   5
ENDBRANCH   1   4
BRANCH   1  30
HETATM   30  O   LIG     1      -1.588   3.101  -1.439  1.00  0.00    -0.287 OA
BRANCH  30  31
HETATM   31  C   LIG     1      -0.570   2.294  -2.004  1.00  0.00     0.216 C 
BRANCH  31  32
HETATM   32  C   LIG     1      -0.429   2.548  -3.511  1.00  0.00     0.180 C 
HETATM   33  O   LIG     1       0.743   1.876  -4.053  1.00  0.00    -0.353 OA
HETATM   34  C   LIG     1       0.562   1.908  -5.512  1.00  0.00     0.263 C 
HETATM   35  C   LIG     1      -0.917   2.207  -5.790  1.00  0.00     0.216 C 
HETATM   36  C   LIG     1      -1.548   2.022  -4.407  1.00  0.00     0.183 C 
BRANCH  34  37
HETATM   37  N   LIG     1       1.078   0.660  -6.055  1.00  0.00    -0.294 N 
HETATM   38  C   LIG     1       0.433  -0.533  -6.248  1.00  0.00     0.166 A 
HETATM   39  N   LIG     1      -0.826  -0.873  -5.924  1.00  0.00    -0.222 NA
HETATM   40  C   LIG     1       1.357  -1.341  -6.893  1.00  0.00     0.144 A 
HETATM   41  C   LIG     1      -1.134  -2.107  -6.353  1.00  0.00     0.237 A 
HETATM   42  N   LIG     1      -0.342  -3.006  -6.983  1.00  0.00    -0.228 NA
HETATM   43  C   LIG     1       0.919  -2.623  -7.278  1.00  0.00     0.135 A 
HETATM   44  N   LIG     1       2.580  -0.713  -7.013  1.00  0.00    -0.236 NA
HETATM   45  C   LIG     1       2.360   0.500  -6.537  1.00  0.00     0.214 A 
BRANCH  43  46
HETATM   46  N   LIG     1       1.744  -3.553  -7.921  1.00  0.00    -0.285 NA
HETATM   47  H   LIG     1       1.429  -4.487  -7.707  1.00  0.00     0.125 HD
HETATM   48  H   LIG     1       2.719  -3.322  -7.762  1.00  0.00     0.125 HD
ENDBRANCH  43  46
ENDBRANCH  34  37
BRANCH  35  49
HETATM   49  O   LIG     1      -1.139   3.567  -6.182  1.00  0.00    -0.270 OA
BRANCH  49  50
HETATM   50  P   LIG     1      -0.615   4.003  -7.671  1.00  0.00     0.422 P 
HETATM   51  O   LIG     1      -1.354   5.301  -7.943  1.00  0.00    -0.617 OA
HETATM   52  O   LIG     1      -1.012   2.836  -8.560  1.00  0.00    -0.617 OA
HETATM   53  O   LIG     1       0.888   4.145  -7.498  1.00  0.00    -0.617 OA
ENDBRANCH  49  50
ENDBRANCH  35  49
BRANCH  36  54
HETATM   54  O   LIG     1      -2.794   2.700  -4.313  1.00  0.00    -0.390 OA
HETATM   55  H   LIG     1      -2.667   3.500  -4.869  1.00  0.00     0.210 HD
ENDBRANCH  36  54
ENDBRANCH  31  32
ENDBRANCH  30  31
ENDBRANCH   1  30
TORSDOF 17
