REMARK  28 active torsions:
REMARK  status: ('A' for Active; 'I' for Inactive)
REMARK    1  A    between atoms: C_6  and  N_10 
REMARK    2  A    between atoms: N_7  and  C_11 
REMARK    3  A    between atoms: C_13  and  C_18 
REMARK    4  A    between atoms: C_14  and  O_16 
REMARK    5  A    between atoms: C_15  and  O_17 
REMARK    6  A    between atoms: O_16  and  P_20 
REMARK    7  A    between atoms: C_18  and  O_19 
REMARK    8  A    between atoms: O_19  and  P_24 
REMARK    9  A    between atoms: P_24  and  O_25 
REMARK   10  A    between atoms: O_25  and  P_26 
REMARK   11  A    between atoms: P_26  and  O_27 
REMARK   12  A    between atoms: O_27  and  C_28 
REMARK   13  A    between atoms: C_28  and  C_29 
REMARK   14  A    between atoms: C_29  and  C_30 
REMARK   15  A    between atoms: C_30  and  C_31 
REMARK       I    between atoms: C_31  and  N_32 
REMARK   16  A    between atoms: N_32  and  C_33 
REMARK   17  A    between atoms: C_33  and  C_34 
REMARK   18  A    between atoms: C_34  and  C_43 
REMARK       I    between atoms: C_43  and  N_44 
REMARK   19  A    between atoms: N_44  and  C_45 
REMARK   20  A    between atoms: C_45  and  C_47 
REMARK   21  A    between atoms: C_47  and  S_48 
REMARK   22  A    between atoms: S_48  and  C_49 
REMARK   23  A    between atoms: C_49  and  C_51 
REMARK   24  A    between atoms: C_51  and  C_52 
REMARK   25  A    between atoms: C_52  and  C_53 
REMARK   26  A    between atoms: C_53  and  C_54 
REMARK   27  A    between atoms: C_54  and  C_55 
REMARK   28  A    between atoms: C_55  and  C_56 
ROOT
HETATM    1  P   LIG     1       4.220   1.128   2.842  1.00  0.00     0.417 P 
HETATM    2  O   LIG     1       5.138   0.830   3.998  1.00  0.00    -0.624 OA
HETATM    3  O   LIG     1       4.607   0.733   1.437  1.00  0.00    -0.624 OA
ENDROOT
BRANCH   1   4
HETATM    4  O   LIG     1       2.733   0.614   3.117  1.00  0.00    -0.180 OA
BRANCH   4   5
HETATM    5  P   LIG     1       2.763  -0.716   3.992  1.00  0.00     0.417 P 
HETATM    6  O   LIG     1       3.911  -1.487   3.402  1.00  0.00    -0.624 OA
HETATM    7  O   LIG     1       2.646  -0.337   5.451  1.00  0.00    -0.624 OA
BRANCH   5   8
HETATM    8  O   LIG     1       1.336  -1.271   3.453  1.00  0.00    -0.287 OA
BRANCH   8   9
HETATM    9  C   LIG     1       0.901  -2.532   3.892  1.00  0.00     0.216 C 
BRANCH   9  10
HETATM   10  C   LIG     1       0.731  -2.553   5.397  1.00  0.00     0.180 C 
HETATM   11  O   LIG     1      -0.109  -1.472   5.811  1.00  0.00    -0.353 OA
HETATM   12  C   LIG     1      -1.401  -1.965   6.161  1.00  0.00     0.262 C 
HETATM   13  C   LIG     1      -1.452  -3.450   5.816  1.00  0.00     0.199 C 
HETATM   14  C   LIG     1       0.035  -3.791   5.854  1.00  0.00     0.199 C 
BRANCH  12  15
HETATM   15  N   LIG     1      -2.307  -1.007   5.558  1.00  0.00    -0.294 N 
HETATM   16  C   LIG     1      -2.741  -0.897   4.260  1.00  0.00     0.166 A 
HETATM   17  N   LIG     1      -2.735  -1.829   3.292  1.00  0.00    -0.222 NA
HETATM   18  C   LIG     1      -3.146   0.428   4.123  1.00  0.00     0.144 A 
HETATM   19  C   LIG     1      -3.129  -1.309   2.111  1.00  0.00     0.237 A 
HETATM   20  N   LIG     1      -3.564  -0.052   1.834  1.00  0.00    -0.228 NA
HETATM   21  C   LIG     1      -3.574   0.846   2.847  1.00  0.00     0.135 A 
HETATM   22  N   LIG     1      -3.015   1.119   5.306  1.00  0.00    -0.236 NA
HETATM   23  C   LIG     1      -2.506   0.236   6.137  1.00  0.00     0.214 A 
BRANCH  21  24
HETATM   24  N   LIG     1      -4.007   2.153   2.569  1.00  0.00    -0.285 NA
HETATM   25  H   LIG     1      -3.761   2.364   1.610  1.00  0.00     0.125 HD
HETATM   26  H   LIG     1      -3.611   2.778   3.267  1.00  0.00     0.125 HD
ENDBRANCH  21  24
ENDBRANCH  12  15
BRANCH  13  27
HETATM   27  O   LIG     1      -2.201  -4.207   6.790  1.00  0.00    -0.388 OA
HETATM   28  H   LIG     1      -1.819  -5.118   6.811  1.00  0.00     0.210 HD
ENDBRANCH  13  27
BRANCH  14  29
HETATM   29  O   LIG     1       0.395  -3.969   7.208  1.00  0.00    -0.272 OA
BRANCH  29  30
HETATM   30  P   LIG     1       0.288  -5.522   7.655  1.00  0.00     0.422 P 
HETATM   31  O   LIG     1       0.062  -5.460   9.146  1.00  0.00    -0.617 OA
HETATM   32  O   LIG     1      -0.959  -6.030   6.917  1.00  0.00    -0.617 OA
HETATM   33  O   LIG     1       1.565  -6.146   7.155  1.00  0.00    -0.617 OA
ENDBRANCH  29  30
ENDBRANCH  14  29
ENDBRANCH   9  10
ENDBRANCH   8   9
ENDBRANCH   5   8
ENDBRANCH   4   5
ENDBRANCH   1   4
BRANCH   1  34
HETATM   34  O   LIG     1       3.839   2.724   2.864  1.00  0.00    -0.289 OA
BRANCH  34  35
HETATM   35  C   LIG     1       3.024   3.159   3.947  1.00  0.00     0.191 C 
BRANCH  35  36
HETATM   36  C   LIG     1       2.306   4.483   3.593  1.00  0.00    -0.014 C 
HETATM   37  C   LIG     1       1.221   4.709   4.679  1.00  0.00     0.018 C 
HETATM   38  C   LIG     1       1.557   4.332   2.247  1.00  0.00     0.018 C 
BRANCH  36  39
HETATM   39  C   LIG     1       3.263   5.724   3.554  1.00  0.00     0.078 C 
HETATM   40  C   LIG     1       4.049   5.918   4.856  1.00  0.00     0.020 C 
BRANCH  39  41
HETATM   41  C   LIG     1       4.242   5.776   2.368  1.00  0.00     0.202 C 
HETATM   42  O   LIG     1       5.237   5.066   2.237  1.00  0.00    -0.279 OA
HETATM   43  N   LIG     1       4.056   6.742   1.408  1.00  0.00    -0.262 NA
HETATM   44  H   LIG     1       4.732   6.557   0.677  1.00  0.00     0.130 HD
BRANCH  43  45
HETATM   45  C   LIG     1       3.994   8.139   1.762  1.00  0.00     0.104 C 
BRANCH  45  46
HETATM   46  C   LIG     1       5.289   8.595   2.415  1.00  0.00     0.117 C 
BRANCH  46  47
HETATM   47  C   LIG     1       5.241  10.071   2.663  1.00  0.00     0.218 C 
HETATM   48  O   LIG     1       5.789  10.873   1.915  1.00  0.00    -0.274 OA
HETATM   49  N   LIG     1       4.519  10.429   3.781  1.00  0.00    -0.360 N 
HETATM   50  H   LIG     1       4.211   9.693   4.406  1.00  0.00     0.162 HD
BRANCH  49  51
HETATM   51  C   LIG     1       4.293  11.796   4.195  1.00  0.00     0.133 C 
BRANCH  51  52
HETATM   52  C   LIG     1       3.305  12.522   3.286  1.00  0.00     0.102 C 
BRANCH  52  53
HETATM   53  S   LIG     1       4.156  13.471   1.985  1.00  0.00    -0.091 SA
BRANCH  53  54
HETATM   54  C   LIG     1       2.805  13.642   0.871  1.00  0.00     0.186 C 
HETATM   55  O   LIG     1       2.122  12.685   0.536  1.00  0.00    -0.286 OA
BRANCH  54  56
HETATM   56  C   LIG     1       2.469  15.064   0.520  1.00  0.00     0.091 C 
BRANCH  56  57
HETATM   57  C   LIG     1       1.590  15.629   1.630  1.00  0.00     0.008 C 
BRANCH  57  58
HETATM   58  C   LIG     1       1.570  17.149   1.622  1.00  0.00     0.000 C 
BRANCH  58  59
HETATM   59  C   LIG     1       0.760  17.664   2.810  1.00  0.00     0.000 C 
BRANCH  59  60
HETATM   60  C   LIG     1       0.701  19.186   2.811  1.00  0.00    -0.000 C 
BRANCH  60  61
HETATM   61  C   LIG     1      -0.137  19.700   3.979  1.00  0.00    -0.005 C 
HETATM   62  C   LIG     1      -0.235  21.215   3.952  1.00  0.00     0.005 C 
ENDBRANCH  60  61
ENDBRANCH  59  60
ENDBRANCH  58  59
ENDBRANCH  57  58
ENDBRANCH  56  57
ENDBRANCH  54  56
ENDBRANCH  53  54
ENDBRANCH  52  53
ENDBRANCH  51  52
ENDBRANCH  49  51
ENDBRANCH  46  47
ENDBRANCH  45  46
ENDBRANCH  43  45
ENDBRANCH  39  41
ENDBRANCH  36  39
ENDBRANCH  35  36
ENDBRANCH  34  35
ENDBRANCH   1  34
TORSDOF 28
