REMARK  12 active torsions:
REMARK  status: ('A' for Active; 'I' for Inactive)
REMARK    1  A    between atoms: C_4  and  C_24 
REMARK    2  A    between atoms: C_5  and  C_7 
REMARK    3  A    between atoms: C_6  and  O_17 
REMARK       I    between atoms: C_7  and  N_8 
REMARK    4  A    between atoms: N_8  and  C_9 
REMARK    5  A    between atoms: C_15  and  C_20 
REMARK    6  A    between atoms: O_17  and  C_18 
REMARK    7  A    between atoms: C_24  and  C_25 
REMARK    8  A    between atoms: C_25  and  C_26 
REMARK    9  A    between atoms: C_26  and  C_27 
REMARK   10  A    between atoms: C_27  and  C_28 
REMARK   11  A    between atoms: C_28  and  C_29 
REMARK   12  A    between atoms: C_29  and  C_30 
ROOT
HETATM    1  C   LIG     1      -0.133  -0.492   1.511  1.00  0.00     0.038 A 
HETATM    2  C   LIG     1      -1.133   0.474   1.552  1.00  0.00     0.003 A 
HETATM    3  C   LIG     1      -1.018   1.620   0.777  1.00  0.00     0.008 A 
HETATM    4  C   LIG     1       0.106   1.835  -0.043  1.00  0.00    -0.040 A 
HETATM    5  C   LIG     1       1.156   0.873  -0.054  1.00  0.00     0.071 A 
HETATM    6  C   LIG     1       1.007  -0.316   0.712  1.00  0.00     0.085 A 
ENDROOT
BRANCH   5   7
HETATM    7  C   LIG     1       2.422   1.159  -0.836  1.00  0.00     0.259 C 
HETATM    8  O   LIG     1       2.738   2.323  -1.060  1.00  0.00    -0.267 OA
HETATM    9  N   LIG     1       3.189   0.072  -1.221  1.00  0.00    -0.323 N 
HETATM   10  H   LIG     1       2.917  -0.818  -0.816  1.00  0.00     0.169 HD
BRANCH   9  11
HETATM   11  C   LIG     1       4.404   0.103  -1.934  1.00  0.00     0.035 A 
HETATM   12  C   LIG     1       4.873   1.226  -2.624  1.00  0.00     0.047 A 
HETATM   13  C   LIG     1       6.110   1.216  -3.301  1.00  0.00     0.071 A 
HETATM   14  C   LIG     1       6.877   0.049  -3.272  1.00  0.00     0.049 A 
HETATM   15  C   LIG     1       6.409  -1.086  -2.604  1.00  0.00     0.027 A 
HETATM   16 CL   LIG     1       8.419  -0.058  -4.040  1.00  0.00    -0.083 Cl
HETATM   17  C   LIG     1       5.176  -1.061  -1.948  1.00  0.00     0.031 A 
BRANCH  13  18
HETATM   18  C   LIG     1       6.577   2.452  -4.022  1.00  0.00     0.419 C 
HETATM   19  F   LIG     1       5.663   3.465  -4.015  1.00  0.00    -0.166 F 
HETATM   20  F   LIG     1       6.848   2.230  -5.339  1.00  0.00    -0.166 F 
HETATM   21  F   LIG     1       7.709   2.984  -3.483  1.00  0.00    -0.166 F 
ENDBRANCH  13  18
ENDBRANCH   9  11
ENDBRANCH   5   7
BRANCH   4  22
HETATM   22  C   LIG     1       0.087   3.104  -0.879  1.00  0.00     0.040 C 
BRANCH  22  23
HETATM   23  C   LIG     1       0.608   4.327  -0.116  1.00  0.00     0.005 C 
BRANCH  23  24
HETATM   24  C   LIG     1       0.536   5.594  -0.973  1.00  0.00     0.000 C 
BRANCH  24  25
HETATM   25  C   LIG     1       1.107   6.800  -0.222  1.00  0.00     0.000 C 
BRANCH  25  26
HETATM   26  C   LIG     1       0.984   8.092  -1.036  1.00  0.00     0.000 C 
BRANCH  26  27
HETATM   27  C   LIG     1       1.552   9.281  -0.256  1.00  0.00    -0.000 C 
BRANCH  27  28
HETATM   28  C   LIG     1       1.539  10.595  -1.041  1.00  0.00    -0.005 C 
HETATM   29  C   LIG     1       0.140  11.104  -1.352  1.00  0.00     0.005 C 
ENDBRANCH  27  28
ENDBRANCH  26  27
ENDBRANCH  25  26
ENDBRANCH  24  25
ENDBRANCH  23  24
ENDBRANCH  22  23
ENDBRANCH   4  22
BRANCH   6  30
HETATM   30  O   LIG     1       2.010  -1.258   0.649  1.00  0.00    -0.350 OA
BRANCH  30  31
HETATM   31  C   LIG     1       1.792  -2.515   1.297  1.00  0.00     0.171 C 
HETATM   32  C   LIG     1       2.954  -3.431   0.956  1.00  0.00     0.034 C 
ENDBRANCH  30  31
ENDBRANCH   6  30
TORSDOF 12
