REMARK  7 active torsions:
REMARK  status: ('A' for Active; 'I' for Inactive)
REMARK    1  A    between atoms: C_4  and  C_24 
REMARK    2  A    between atoms: C_5  and  C_7 
REMARK    3  A    between atoms: C_6  and  O_17 
REMARK       I    between atoms: C_7  and  N_8 
REMARK    4  A    between atoms: N_8  and  C_9 
REMARK    5  A    between atoms: C_15  and  C_20 
REMARK    6  A    between atoms: O_17  and  C_18 
REMARK    7  A    between atoms: C_24  and  C_25 
ROOT
ATOM      1  C   LIG     1      -0.940  -2.765  -0.224  1.00  0.00     0.259 C 
ATOM      2  N   LIG     1       0.208  -3.165  -0.880  1.00  0.00    -0.323 N 
ATOM      3  O   LIG     1      -1.656  -3.429   0.514  1.00  0.00    -0.267 OA
ATOM      4  H   LIG     1       0.653  -2.466  -1.465  1.00  0.00     0.169 HD
ENDROOT
BRANCH   1   5
ATOM      5  C   LIG     1      -1.332  -1.369  -0.521  1.00  0.00     0.071 A 
ATOM      6  C   LIG     1      -1.910  -1.029  -1.764  1.00  0.00    -0.040 A 
ATOM      7  C   LIG     1      -2.232   0.320  -2.000  1.00  0.00     0.008 A 
ATOM      8  C   LIG     1      -1.984   1.300  -1.037  1.00  0.00     0.003 A 
ATOM      9  C   LIG     1      -1.417   0.950   0.186  1.00  0.00     0.038 A 
ATOM     10  C   LIG     1      -1.109  -0.385   0.451  1.00  0.00     0.085 A 
BRANCH   6  11
ATOM     11  C   LIG     1      -2.215  -2.047  -2.841  1.00  0.00     0.039 C 
BRANCH  11  12
ATOM     12  C   LIG     1      -3.432  -2.932  -2.556  1.00  0.00     0.000 C 
ATOM     13  C   LIG     1      -4.744  -2.161  -2.534  1.00  0.00     0.005 C 
ENDBRANCH  11  12
ENDBRANCH   6  11
BRANCH  10  14
ATOM     14  O   LIG     1      -0.504  -0.665   1.647  1.00  0.00    -0.350 OA
BRANCH  14  15
ATOM     15  C   LIG     1      -1.475  -1.026   2.641  1.00  0.00     0.171 C 
ATOM     16  C   LIG     1      -1.070  -0.380   3.954  1.00  0.00     0.034 C 
ENDBRANCH  14  15
ENDBRANCH  10  14
ENDBRANCH   1   5
BRANCH   2  17
ATOM     17  C   LIG     1       0.797  -4.444  -0.862  1.00  0.00     0.035 A 
ATOM     18  C   LIG     1       1.881  -4.664  -1.721  1.00  0.00     0.047 A 
ATOM     19  C   LIG     1       2.520  -5.920  -1.796  1.00  0.00     0.071 A 
ATOM     20  C   LIG     1       2.060  -6.953  -0.973  1.00  0.00     0.049 A 
ATOM     21  C   LIG     1       0.987  -6.737  -0.106  1.00  0.00     0.027 A 
ATOM     22 CL   LIG     1       2.777  -8.523  -0.983  1.00  0.00    -0.083 Cl
ATOM     23  C   LIG     1       0.356  -5.490  -0.055  1.00  0.00     0.031 A 
BRANCH  19  24
ATOM     24  C   LIG     1       3.660  -6.127  -2.755  1.00  0.00     0.419 C 
ATOM     25  F   LIG     1       3.950  -5.007  -3.481  1.00  0.00    -0.166 F 
ATOM     26  F   LIG     1       4.825  -6.466  -2.140  1.00  0.00    -0.166 F 
ATOM     27  F   LIG     1       3.412  -7.095  -3.679  1.00  0.00    -0.166 F 
ENDBRANCH  19  24
ENDBRANCH   2  17
TORSDOF 7
