REMARK  25 active torsions:
REMARK  status: ('A' for Active; 'I' for Inactive)
REMARK    1  A    between atoms: C_6  and  N_10 
REMARK    2  A    between atoms: N_7  and  C_11 
REMARK    3  A    between atoms: C_13  and  C_18 
REMARK    4  A    between atoms: C_14  and  O_16 
REMARK    5  A    between atoms: C_15  and  O_17 
REMARK    6  A    between atoms: O_16  and  P_20 
REMARK    7  A    between atoms: C_18  and  O_19 
REMARK    8  A    between atoms: O_19  and  P_24 
REMARK    9  A    between atoms: P_24  and  O_25 
REMARK   10  A    between atoms: O_25  and  P_26 
REMARK   11  A    between atoms: P_26  and  O_27 
REMARK   12  A    between atoms: O_27  and  C_28 
REMARK   13  A    between atoms: C_28  and  C_29 
REMARK   14  A    between atoms: C_29  and  C_30 
REMARK   15  A    between atoms: C_30  and  C_31 
REMARK       I    between atoms: C_31  and  N_32 
REMARK   16  A    between atoms: N_32  and  C_33 
REMARK   17  A    between atoms: C_33  and  C_34 
REMARK   18  A    between atoms: C_34  and  C_43 
REMARK       I    between atoms: C_43  and  N_44 
REMARK   19  A    between atoms: N_44  and  C_45 
REMARK   20  A    between atoms: C_45  and  C_47 
REMARK   21  A    between atoms: C_47  and  S_48 
REMARK   22  A    between atoms: S_48  and  C_49 
REMARK   23  A    between atoms: C_49  and  C_50 
REMARK   24  A    between atoms: C_50  and  C_51 
REMARK   25  A    between atoms: C_51  and  C_52 
ROOT
HETATM    1  O   LIG     1       3.230  11.716   3.908  1.00  0.00    -0.180 OA
ENDROOT
BRANCH   1   2
HETATM    2  P   LIG     1       3.704  12.587   2.649  1.00  0.00     0.417 P 
HETATM    3  O   LIG     1       3.392  11.859   1.361  1.00  0.00    -0.624 OA
HETATM    4  O   LIG     1       3.312  14.069   2.703  1.00  0.00    -0.624 OA
BRANCH   2   5
HETATM    5  O   LIG     1       5.308  12.513   2.839  1.00  0.00    -0.287 OA
BRANCH   5   6
HETATM    6  C   LIG     1       5.980  13.453   2.005  1.00  0.00     0.216 C 
BRANCH   6   7
HETATM    7  C   LIG     1       5.467  13.548   0.541  1.00  0.00     0.180 C 
HETATM    8  O   LIG     1       5.976  14.813   0.045  1.00  0.00    -0.353 OA
HETATM    9  C   LIG     1       7.066  14.496  -0.848  1.00  0.00     0.262 C 
HETATM   10  C   LIG     1       7.367  13.009  -0.670  1.00  0.00     0.199 C 
HETATM   11  C   LIG     1       5.978  12.443  -0.427  1.00  0.00     0.199 C 
BRANCH   9  12
HETATM   12  N   LIG     1       8.180  15.333  -0.452  1.00  0.00    -0.294 N 
HETATM   13  C   LIG     1       8.904  16.155  -1.262  1.00  0.00     0.166 A 
HETATM   14  N   LIG     1       8.689  16.481  -2.545  1.00  0.00    -0.222 NA
HETATM   15  C   LIG     1       9.979  16.534  -0.482  1.00  0.00     0.144 A 
HETATM   16  C   LIG     1       9.704  17.217  -3.041  1.00  0.00     0.237 A 
HETATM   17  N   LIG     1      10.831  17.629  -2.420  1.00  0.00    -0.228 NA
HETATM   18  C   LIG     1      10.988  17.269  -1.112  1.00  0.00     0.135 A 
HETATM   19  N   LIG     1       9.882  16.052   0.805  1.00  0.00    -0.236 NA
HETATM   20  C   LIG     1       8.761  15.367   0.792  1.00  0.00     0.214 A 
BRANCH  18  21
HETATM   21  N   LIG     1      12.157  17.585  -0.401  1.00  0.00    -0.285 NA
HETATM   22  H   LIG     1      12.987  17.507  -0.973  1.00  0.00     0.125 HD
HETATM   23  H   LIG     1      12.191  17.038   0.464  1.00  0.00     0.125 HD
ENDBRANCH  18  21
ENDBRANCH   9  12
BRANCH  10  24
HETATM   24  O   LIG     1       8.194  12.484  -1.678  1.00  0.00    -0.388 OA
HETATM   25  H   LIG     1       7.593  11.929  -2.267  1.00  0.00     0.210 HD
ENDBRANCH  10  24
BRANCH  11  26
HETATM   26  O   LIG     1       5.096  12.487  -1.536  1.00  0.00    -0.272 OA
BRANCH  26  27
HETATM   27  P   LIG     1       5.200  11.445  -2.801  1.00  0.00     0.422 P 
HETATM   28  O   LIG     1       4.568  12.202  -3.964  1.00  0.00    -0.617 OA
HETATM   29  O   LIG     1       4.463  10.181  -2.399  1.00  0.00    -0.617 OA
HETATM   30  O   LIG     1       6.690  11.212  -3.013  1.00  0.00    -0.617 OA
ENDBRANCH  26  27
ENDBRANCH  11  26
ENDBRANCH   6   7
ENDBRANCH   5   6
ENDBRANCH   2   5
ENDBRANCH   1   2
BRANCH   1  31
HETATM   31  P   LIG     1       4.030  10.957   5.089  1.00  0.00     0.417 P 
HETATM   32  O   LIG     1       3.227  11.222   6.347  1.00  0.00    -0.624 OA
HETATM   33  O   LIG     1       5.514  11.234   5.091  1.00  0.00    -0.624 OA
BRANCH  31  34
HETATM   34  O   LIG     1       3.815   9.384   4.672  1.00  0.00    -0.289 OA
BRANCH  34  35
HETATM   35  C   LIG     1       4.633   8.938   3.597  1.00  0.00     0.191 C 
BRANCH  35  36
HETATM   36  C   LIG     1       4.831   7.398   3.612  1.00  0.00    -0.014 C 
HETATM   37  C   LIG     1       5.566   7.014   2.305  1.00  0.00     0.018 C 
HETATM   38  C   LIG     1       3.449   6.710   3.574  1.00  0.00     0.018 C 
BRANCH  36  39
HETATM   39  C   LIG     1       5.666   6.877   4.835  1.00  0.00     0.083 C 
HETATM   40  C   LIG     1       7.144   7.297   4.851  1.00  0.00     0.020 C 
BRANCH  39  41
HETATM   41  C   LIG     1       5.089   7.227   6.207  1.00  0.00     0.222 C 
HETATM   42  O   LIG     1       5.423   8.230   6.830  1.00  0.00    -0.273 OA
HETATM   43  N   LIG     1       4.232   6.242   6.686  1.00  0.00    -0.360 N 
HETATM   44  H   LIG     1       3.848   5.609   6.000  1.00  0.00     0.162 HD
BRANCH  43  45
HETATM   45  C   LIG     1       3.629   6.340   7.998  1.00  0.00     0.132 C 
BRANCH  45  46
HETATM   46  C   LIG     1       3.397   4.991   8.688  1.00  0.00     0.122 C 
BRANCH  46  47
HETATM   47  C   LIG     1       4.693   4.298   9.067  1.00  0.00     0.219 C 
HETATM   48  O   LIG     1       5.730   4.384   8.411  1.00  0.00    -0.274 OA
HETATM   49  N   LIG     1       4.734   3.476  10.151  1.00  0.00    -0.360 N 
HETATM   50  H   LIG     1       5.647   3.039  10.215  1.00  0.00     0.162 HD
BRANCH  49  51
HETATM   51  C   LIG     1       3.667   2.934  10.979  1.00  0.00     0.133 C 
BRANCH  51  52
HETATM   52  C   LIG     1       4.189   2.593  12.379  1.00  0.00     0.102 C 
BRANCH  52  53
HETATM   53  S   LIG     1       2.883   1.897  13.430  1.00  0.00    -0.091 SA
BRANCH  53  54
HETATM   54  C   LIG     1       3.857   1.742  14.903  1.00  0.00     0.186 C 
HETATM   55  O   LIG     1       4.537   0.739  15.080  1.00  0.00    -0.286 OA
BRANCH  54  56
HETATM   56  C   LIG     1       3.762   2.936  15.827  1.00  0.00     0.101 C 
BRANCH  56  57
HETATM   57  C   LIG     1       4.614   2.774  17.077  1.00  0.00     0.121 C 
BRANCH  57  58
HETATM   58  C   LIG     1       4.541   3.988  18.001  1.00  0.00     0.172 C 
HETATM   59  O   LIG     1       3.729   4.895  17.671  1.00  0.00    -0.648 OA
HETATM   60  O   LIG     1       5.308   3.924  19.004  1.00  0.00    -0.648 OA
ENDBRANCH  57  58
ENDBRANCH  56  57
ENDBRANCH  54  56
ENDBRANCH  53  54
ENDBRANCH  52  53
ENDBRANCH  51  52
ENDBRANCH  49  51
ENDBRANCH  46  47
ENDBRANCH  45  46
ENDBRANCH  43  45
ENDBRANCH  39  41
ENDBRANCH  36  39
ENDBRANCH  35  36
ENDBRANCH  34  35
ENDBRANCH  31  34
ENDBRANCH   1  31
TORSDOF 25
