2HOIsobutyrylSCoA.mol
  ChemDraw10271516032D

 54 56  0  0  0  0  0  0  0  0999 V2000
    9.4400    1.5523    0.0000 N   0  0  0  0  0  0  0  0  0  0  0  0
    9.2286    0.7548    0.0000 C   0  0  0  0  0  0  0  0  0  0  0  0
    8.4329    0.5371    0.0000 N   0  0  0  0  0  0  0  0  0  0  0  0
    7.8462    1.1198    0.0000 C   0  0  0  0  0  0  0  0  0  0  0  0
    8.0564    1.9178    0.0000 C   0  0  0  0  0  0  0  0  0  0  0  0
    8.8545    2.1344    0.0000 C   0  0  0  0  0  0  0  0  0  0  0  0
    7.0192    1.0679    0.0000 N   0  0  0  0  0  0  0  0  0  0  0  0
    6.7233    1.8422    0.0000 C   0  0  0  0  0  0  0  0  0  0  0  0
    7.3632    2.3647    0.0000 N   0  0  0  0  0  0  0  0  0  0  0  0
    9.0648    2.9319    0.0000 N   0  0  0  0  0  0  0  0  0  0  0  0
    6.5755    0.3796    0.0000 C   0  0  0  0  0  0  0  0  0  0  0  0
    5.7522    0.3320    0.0000 O   0  0  0  0  0  0  0  0  0  0  0  0
    5.5413   -0.4655    0.0000 C   0  0  0  0  0  0  0  0  0  0  0  0
    6.2346   -0.9118    0.0000 C   0  0  0  0  0  0  0  0  0  0  0  0
    6.8745   -0.3904    0.0000 C   0  0  0  0  0  0  0  0  0  0  0  0
    6.2816   -1.7357    0.0000 O   0  0  0  0  0  0  0  0  0  0  0  0
    7.6720   -0.6007    0.0000 O   0  0  0  0  0  0  0  0  0  0  0  0
    4.7725   -0.7640    0.0000 C   0  0  0  0  0  0  0  0  0  0  0  0
    4.1285   -0.2472    0.0000 O   0  0  0  0  0  0  0  0  0  0  0  0
    7.0177   -2.1075    0.0000 P   0  0  0  0  0  0  0  0  0  0  0  0
    7.0212   -2.9319    0.0000 O   0  5  0  0  0  0  0  0  0  0  0  0
    7.5998   -1.5214    0.0000 O   0  5  0  0  0  0  0  0  0  0  0  0
    7.4337   -2.8208    0.0000 O   0  0  0  0  0  0  0  0  0  0  0  0
    3.4152   -0.6632    0.0000 P   0  0  0  0  0  0  0  0  0  0  0  0
    2.6991   -0.2524    0.0000 O   0  0  0  0  0  0  0  0  0  0  0  0
    1.9858   -0.6677    0.0000 P   0  0  0  0  0  0  0  0  0  0  0  0
    1.2697   -0.2581    0.0000 O   0  0  0  0  0  0  0  0  0  0  0  0
    0.5564   -0.6729    0.0000 C   0  0  0  0  0  0  0  0  0  0  0  0
   -0.1598   -0.2633    0.0000 C   0  0  0  0  0  0  0  0  0  0  0  0
   -0.8725   -0.6786    0.0000 C   0  0  0  0  0  0  0  0  0  0  0  0
   -1.5886   -0.2690    0.0000 C   0  0  0  0  0  0  0  0  0  0  0  0
   -2.3019   -0.6838    0.0000 N   0  0  0  0  0  0  0  0  0  0  0  0
   -3.0180   -0.2736    0.0000 C   0  0  0  0  0  0  0  0  0  0  0  0
   -3.7313   -0.6884    0.0000 C   0  0  0  0  0  0  0  0  0  0  0  0
    3.2050   -1.4607    0.0000 O   0  5  0  0  0  0  0  0  0  0  0  0
    3.6318   -1.4589    0.0000 O   0  0  0  0  0  0  0  0  0  0  0  0
    1.7756   -1.4664    0.0000 O   0  5  0  0  0  0  0  0  0  0  0  0
    2.2024   -1.4647    0.0000 O   0  0  0  0  0  0  0  0  0  0  0  0
   -0.3757    0.5337    0.0000 C   0  0  0  0  0  0  0  0  0  0  0  0
    0.0517    0.5342    0.0000 C   0  0  0  0  0  0  0  0  0  0  0  0
   -0.8696   -1.5036    0.0000 C   0  0  0  0  0  0  0  0  0  0  0  0
   -1.5909    0.5572    0.0000 O   0  0  0  0  0  0  0  0  0  0  0  0
   -4.4475   -0.2787    0.0000 C   0  0  0  0  0  0  0  0  0  0  0  0
   -5.1607   -0.6941    0.0000 N   0  0  0  0  0  0  0  0  0  0  0  0
   -5.8769   -0.2845    0.0000 C   0  0  0  0  0  0  0  0  0  0  0  0
   -4.4503    0.5463    0.0000 O   0  0  0  0  0  0  0  0  0  0  0  0
   -6.5896   -0.6992    0.0000 C   0  0  0  0  0  0  0  0  0  0  0  0
   -7.3016   -0.2882    0.0000 S   0  0  0  0  0  0  0  0  0  0  0  0
   -8.0136   -0.6992    0.0000 C   0  0  0  0  0  0  0  0  0  0  0  0
   -8.7256   -0.2882    0.0000 C   0  0  0  0  0  0  0  0  0  0  0  0
   -9.4400   -0.7007    0.0000 C   0  0  0  0  0  0  0  0  0  0  0  0
   -8.0136   -1.5242    0.0000 O   0  0  0  0  0  0  0  0  0  0  0  0
   -8.3131    0.4263    0.0000 C   0  0  0  0  0  0  0  0  0  0  0  0
   -9.1381    0.4263    0.0000 O   0  0  0  0  0  0  0  0  0  0  0  0
  1  2  1  0      
  2  3  2  0      
  3  4  1  0      
  4  5  2  0      
  5  6  1  0      
  1  6  2  0      
  4  7  1  0      
  7  8  1  0      
  8  9  2  0      
  5  9  1  0      
  6 10  1  0      
 11  7  1  1      
 11 12  1  0      
 12 13  1  0      
 13 14  1  0      
 14 15  1  0      
 15 11  1  0      
 14 16  1  6      
 15 17  1  6      
 13 18  1  1      
 18 19  1  0      
 16 20  1  0      
 20 21  1  0      
 20 22  1  0      
 20 23  2  0      
 19 24  1  0      
 24 25  1  0      
 25 26  1  0      
 26 27  1  0      
 27 28  1  0      
 28 29  1  0      
 29 30  1  0      
 30 31  1  0      
 31 32  1  0      
 32 33  1  0      
 33 34  1  0      
 24 35  1  0      
 24 36  2  0      
 26 37  1  0      
 26 38  2  0      
 29 39  1  6      
 29 40  1  1      
 30 41  1  1      
 31 42  2  0      
 34 43  1  0      
 43 44  1  0      
 44 45  1  0      
 43 46  2  0      
 45 47  1  0      
 47 48  1  0      
 48 49  1  0      
 49 50  1  0      
 50 51  1  0      
 49 52  2  0      
 50 53  1  6      
 50 54  1  1      
M  CHG  4  21  -1  22  -1  35  -1  37  -1
M  END
