ATP.mol
  ChemDraw10281522082D

 31 33  0  0  0  0  0  0  0  0999 V2000
    4.7993    0.9541    0.0000 N   0  0  0  0  0  0  0  0  0  0  0  0
    4.5879    0.1567    0.0000 C   0  0  0  0  0  0  0  0  0  0  0  0
    3.7922   -0.0610    0.0000 N   0  0  0  0  0  0  0  0  0  0  0  0
    3.2055    0.5217    0.0000 C   0  0  0  0  0  0  0  0  0  0  0  0
    3.4158    1.3196    0.0000 C   0  0  0  0  0  0  0  0  0  0  0  0
    4.2138    1.5362    0.0000 C   0  0  0  0  0  0  0  0  0  0  0  0
    2.3817    0.4747    0.0000 N   0  0  0  0  0  0  0  0  0  0  0  0
    2.0827    1.2440    0.0000 C   0  0  0  0  0  0  0  0  0  0  0  0
    2.7226    1.7665    0.0000 N   0  0  0  0  0  0  0  0  0  0  0  0
    4.4240    2.3336    0.0000 N   0  0  0  0  0  0  0  0  0  0  0  0
    1.9349   -0.2185    0.0000 C   0  0  0  0  0  0  0  0  0  0  0  0
    1.1116   -0.2661    0.0000 O   0  0  0  0  0  0  0  0  0  0  0  0
    0.9008   -1.0635    0.0000 C   0  0  0  0  0  0  0  0  0  0  0  0
    1.5940   -1.5098    0.0000 C   0  0  0  0  0  0  0  0  0  0  0  0
    2.2340   -0.9884    0.0000 C   0  0  0  0  0  0  0  0  0  0  0  0
    1.6410   -2.3336    0.0000 O   0  0  0  0  0  0  0  0  0  0  0  0
    3.0314   -1.1987    0.0000 O   0  0  0  0  0  0  0  0  0  0  0  0
    0.1320   -1.3620    0.0000 C   0  0  0  0  0  0  0  0  0  0  0  0
   -0.5119   -0.8452    0.0000 O   0  0  0  0  0  0  0  0  0  0  0  0
   -1.2251   -1.2612    0.0000 P   0  0  0  0  0  0  0  0  0  0  0  0
   -1.9413   -0.8504    0.0000 O   0  0  0  0  0  0  0  0  0  0  0  0
   -2.6544   -1.2657    0.0000 P   0  0  0  0  0  0  0  0  0  0  0  0
   -3.3706   -0.8561    0.0000 O   0  0  0  0  0  0  0  0  0  0  0  0
   -1.4354   -2.0587    0.0000 O   0  5  0  0  0  0  0  0  0  0  0  0
   -1.0085   -2.0569    0.0000 O   0  0  0  0  0  0  0  0  0  0  0  0
   -2.8647   -2.0644    0.0000 O   0  5  0  0  0  0  0  0  0  0  0  0
   -2.4379   -2.0627    0.0000 O   0  0  0  0  0  0  0  0  0  0  0  0
   -4.0832   -1.2715    0.0000 P   0  0  0  0  0  0  0  0  0  0  0  0
   -4.2969   -2.0678    0.0000 O   0  5  0  0  0  0  0  0  0  0  0  0
   -4.7993   -0.8613    0.0000 O   0  5  0  0  0  0  0  0  0  0  0  0
   -3.8695   -2.0678    0.0000 O   0  0  0  0  0  0  0  0  0  0  0  0
  1  2  1  0      
  2  3  2  0      
  3  4  1  0      
  4  5  2  0      
  5  6  1  0      
  1  6  2  0      
  4  7  1  0      
  7  8  1  0      
  8  9  2  0      
  5  9  1  0      
  6 10  1  0      
 11  7  1  1      
 11 12  1  0      
 12 13  1  0      
 13 14  1  0      
 14 15  1  0      
 15 11  1  0      
 14 16  1  6      
 15 17  1  6      
 13 18  1  1      
 18 19  1  0      
 19 20  1  0      
 20 21  1  0      
 21 22  1  0      
 22 23  1  0      
 20 24  1  0      
 20 25  2  0      
 22 26  1  0      
 22 27  2  0      
 23 28  1  0      
 28 29  1  0      
 28 30  1  0      
 28 31  2  0      
M  CHG  4  24  -1  26  -1  29  -1  30  -1
M  END
