ButyrylSCoA.mol
  ChemDraw10271515592D

 53 55  0  0  0  0  0  0  0  0999 V2000
    9.8024    1.5523    0.0000 N   0  0  0  0  0  0  0  0  0  0  0  0
    9.5910    0.7548    0.0000 C   0  0  0  0  0  0  0  0  0  0  0  0
    8.7952    0.5371    0.0000 N   0  0  0  0  0  0  0  0  0  0  0  0
    8.2085    1.1198    0.0000 C   0  0  0  0  0  0  0  0  0  0  0  0
    8.4188    1.9178    0.0000 C   0  0  0  0  0  0  0  0  0  0  0  0
    9.2169    2.1344    0.0000 C   0  0  0  0  0  0  0  0  0  0  0  0
    7.3847    1.0728    0.0000 N   0  0  0  0  0  0  0  0  0  0  0  0
    7.0856    1.8422    0.0000 C   0  0  0  0  0  0  0  0  0  0  0  0
    7.7256    2.3647    0.0000 N   0  0  0  0  0  0  0  0  0  0  0  0
    9.4271    2.9319    0.0000 N   0  0  0  0  0  0  0  0  0  0  0  0
    6.9378    0.3796    0.0000 C   0  0  0  0  0  0  0  0  0  0  0  0
    6.1145    0.3320    0.0000 O   0  0  0  0  0  0  0  0  0  0  0  0
    5.9037   -0.4655    0.0000 C   0  0  0  0  0  0  0  0  0  0  0  0
    6.5969   -0.9118    0.0000 C   0  0  0  0  0  0  0  0  0  0  0  0
    7.2369   -0.3904    0.0000 C   0  0  0  0  0  0  0  0  0  0  0  0
    6.6439   -1.7357    0.0000 O   0  0  0  0  0  0  0  0  0  0  0  0
    8.0344   -0.6007    0.0000 O   0  0  0  0  0  0  0  0  0  0  0  0
    5.1348   -0.7640    0.0000 C   0  0  0  0  0  0  0  0  0  0  0  0
    4.4909   -0.2472    0.0000 O   0  0  0  0  0  0  0  0  0  0  0  0
    7.3801   -2.1075    0.0000 P   0  0  0  0  0  0  0  0  0  0  0  0
    7.3835   -2.9319    0.0000 O   0  5  0  0  0  0  0  0  0  0  0  0
    7.9622   -1.5214    0.0000 O   0  5  0  0  0  0  0  0  0  0  0  0
    7.7960   -2.8208    0.0000 O   0  0  0  0  0  0  0  0  0  0  0  0
    3.7776   -0.6632    0.0000 P   0  0  0  0  0  0  0  0  0  0  0  0
    3.0615   -0.2524    0.0000 O   0  0  0  0  0  0  0  0  0  0  0  0
    2.3482   -0.6677    0.0000 P   0  0  0  0  0  0  0  0  0  0  0  0
    1.6320   -0.2581    0.0000 O   0  0  0  0  0  0  0  0  0  0  0  0
    0.9187   -0.6729    0.0000 C   0  0  0  0  0  0  0  0  0  0  0  0
    0.2026   -0.2633    0.0000 C   0  0  0  0  0  0  0  0  0  0  0  0
   -0.5101   -0.6786    0.0000 C   0  0  0  0  0  0  0  0  0  0  0  0
   -1.2263   -0.2690    0.0000 C   0  0  0  0  0  0  0  0  0  0  0  0
   -1.9395   -0.6838    0.0000 N   0  0  0  0  0  0  0  0  0  0  0  0
   -2.6557   -0.2736    0.0000 C   0  0  0  0  0  0  0  0  0  0  0  0
   -3.3690   -0.6884    0.0000 C   0  0  0  0  0  0  0  0  0  0  0  0
    3.5673   -1.4607    0.0000 O   0  5  0  0  0  0  0  0  0  0  0  0
    3.9942   -1.4589    0.0000 O   0  0  0  0  0  0  0  0  0  0  0  0
    2.1379   -1.4664    0.0000 O   0  5  0  0  0  0  0  0  0  0  0  0
    2.5647   -1.4647    0.0000 O   0  0  0  0  0  0  0  0  0  0  0  0
   -0.0134    0.5337    0.0000 C   0  0  0  0  0  0  0  0  0  0  0  0
    0.4140    0.5342    0.0000 C   0  0  0  0  0  0  0  0  0  0  0  0
   -0.5072   -1.5036    0.0000 C   0  0  0  0  0  0  0  0  0  0  0  0
   -1.2285    0.5572    0.0000 O   0  0  0  0  0  0  0  0  0  0  0  0
   -4.0851   -0.2787    0.0000 C   0  0  0  0  0  0  0  0  0  0  0  0
   -4.7984   -0.6941    0.0000 N   0  0  0  0  0  0  0  0  0  0  0  0
   -5.5145   -0.2845    0.0000 C   0  0  0  0  0  0  0  0  0  0  0  0
   -4.0880    0.5463    0.0000 O   0  0  0  0  0  0  0  0  0  0  0  0
   -6.2272   -0.6992    0.0000 C   0  0  0  0  0  0  0  0  0  0  0  0
   -6.9445   -0.2896    0.0000 S   0  0  0  0  0  0  0  0  0  0  0  0
   -7.6571   -0.7055    0.0000 C   0  0  0  0  0  0  0  0  0  0  0  0
   -7.6532   -1.5305    0.0000 O   0  0  0  0  0  0  0  0  0  0  0  0
   -8.3735   -0.2963    0.0000 C   0  0  0  0  0  0  0  0  0  0  0  0
   -9.0860   -0.7122    0.0000 C   0  0  0  0  0  0  0  0  0  0  0  0
   -9.8024   -0.3031    0.0000 C   0  0  0  0  0  0  0  0  0  0  0  0
  1  2  1  0      
  2  3  2  0      
  3  4  1  0      
  4  5  2  0      
  5  6  1  0      
  1  6  2  0      
  4  7  1  0      
  7  8  1  0      
  8  9  2  0      
  5  9  1  0      
  6 10  1  0      
 11  7  1  1      
 11 12  1  0      
 12 13  1  0      
 13 14  1  0      
 14 15  1  0      
 15 11  1  0      
 14 16  1  6      
 15 17  1  6      
 13 18  1  1      
 18 19  1  0      
 16 20  1  0      
 20 21  1  0      
 20 22  1  0      
 20 23  2  0      
 19 24  1  0      
 24 25  1  0      
 25 26  1  0      
 26 27  1  0      
 27 28  1  0      
 28 29  1  0      
 29 30  1  0      
 30 31  1  0      
 31 32  1  0      
 32 33  1  0      
 33 34  1  0      
 24 35  1  0      
 24 36  2  0      
 26 37  1  0      
 26 38  2  0      
 29 39  1  6      
 29 40  1  1      
 30 41  1  1      
 31 42  2  0      
 34 43  1  0      
 43 44  1  0      
 44 45  1  0      
 43 46  2  0      
 45 47  1  0      
 47 48  1  0      
 48 49  1  0      
 49 50  2  0      
 49 51  1  0      
 51 52  1  0      
 52 53  1  0      
M  CHG  4  21  -1  22  -1  35  -1  37  -1
M  END
