CrotonylSCoA.mol
  ChemDraw10271516022D

 53 55  0  0  0  0  0  0  0  0999 V2000
    9.7973    1.5523    0.0000 N   0  0  0  0  0  0  0  0  0  0  0  0
    9.5859    0.7548    0.0000 C   0  0  0  0  0  0  0  0  0  0  0  0
    8.7901    0.5371    0.0000 N   0  0  0  0  0  0  0  0  0  0  0  0
    8.2034    1.1198    0.0000 C   0  0  0  0  0  0  0  0  0  0  0  0
    8.4137    1.9178    0.0000 C   0  0  0  0  0  0  0  0  0  0  0  0
    9.2118    2.1344    0.0000 C   0  0  0  0  0  0  0  0  0  0  0  0
    7.3764    1.0679    0.0000 N   0  0  0  0  0  0  0  0  0  0  0  0
    7.0805    1.8422    0.0000 C   0  0  0  0  0  0  0  0  0  0  0  0
    7.7205    2.3647    0.0000 N   0  0  0  0  0  0  0  0  0  0  0  0
    9.4220    2.9319    0.0000 N   0  0  0  0  0  0  0  0  0  0  0  0
    6.9327    0.3796    0.0000 C   0  0  0  0  0  0  0  0  0  0  0  0
    6.1094    0.3320    0.0000 O   0  0  0  0  0  0  0  0  0  0  0  0
    5.8986   -0.4655    0.0000 C   0  0  0  0  0  0  0  0  0  0  0  0
    6.5918   -0.9118    0.0000 C   0  0  0  0  0  0  0  0  0  0  0  0
    7.2318   -0.3904    0.0000 C   0  0  0  0  0  0  0  0  0  0  0  0
    6.6388   -1.7357    0.0000 O   0  0  0  0  0  0  0  0  0  0  0  0
    8.0293   -0.6007    0.0000 O   0  0  0  0  0  0  0  0  0  0  0  0
    5.1297   -0.7640    0.0000 C   0  0  0  0  0  0  0  0  0  0  0  0
    4.4858   -0.2472    0.0000 O   0  0  0  0  0  0  0  0  0  0  0  0
    7.3750   -2.1075    0.0000 P   0  0  0  0  0  0  0  0  0  0  0  0
    7.3784   -2.9319    0.0000 O   0  5  0  0  0  0  0  0  0  0  0  0
    7.9571   -1.5214    0.0000 O   0  5  0  0  0  0  0  0  0  0  0  0
    7.7909   -2.8208    0.0000 O   0  0  0  0  0  0  0  0  0  0  0  0
    3.7725   -0.6632    0.0000 P   0  0  0  0  0  0  0  0  0  0  0  0
    3.0563   -0.2524    0.0000 O   0  0  0  0  0  0  0  0  0  0  0  0
    2.3431   -0.6677    0.0000 P   0  0  0  0  0  0  0  0  0  0  0  0
    1.6269   -0.2581    0.0000 O   0  0  0  0  0  0  0  0  0  0  0  0
    0.9136   -0.6729    0.0000 C   0  0  0  0  0  0  0  0  0  0  0  0
    0.1975   -0.2633    0.0000 C   0  0  0  0  0  0  0  0  0  0  0  0
   -0.5152   -0.6786    0.0000 C   0  0  0  0  0  0  0  0  0  0  0  0
   -1.2314   -0.2690    0.0000 C   0  0  0  0  0  0  0  0  0  0  0  0
   -1.9447   -0.6838    0.0000 N   0  0  0  0  0  0  0  0  0  0  0  0
   -2.6608   -0.2736    0.0000 C   0  0  0  0  0  0  0  0  0  0  0  0
   -3.3741   -0.6884    0.0000 C   0  0  0  0  0  0  0  0  0  0  0  0
    3.5622   -1.4607    0.0000 O   0  5  0  0  0  0  0  0  0  0  0  0
    3.9890   -1.4589    0.0000 O   0  0  0  0  0  0  0  0  0  0  0  0
    2.1328   -1.4664    0.0000 O   0  5  0  0  0  0  0  0  0  0  0  0
    2.5596   -1.4647    0.0000 O   0  0  0  0  0  0  0  0  0  0  0  0
   -0.0185    0.5337    0.0000 C   0  0  0  0  0  0  0  0  0  0  0  0
    0.4089    0.5342    0.0000 C   0  0  0  0  0  0  0  0  0  0  0  0
   -0.5124   -1.5036    0.0000 C   0  0  0  0  0  0  0  0  0  0  0  0
   -1.2337    0.5572    0.0000 O   0  0  0  0  0  0  0  0  0  0  0  0
   -4.0902   -0.2787    0.0000 C   0  0  0  0  0  0  0  0  0  0  0  0
   -4.8035   -0.6941    0.0000 N   0  0  0  0  0  0  0  0  0  0  0  0
   -5.5197   -0.2845    0.0000 C   0  0  0  0  0  0  0  0  0  0  0  0
   -4.0931    0.5463    0.0000 O   0  0  0  0  0  0  0  0  0  0  0  0
   -6.2324   -0.6992    0.0000 C   0  0  0  0  0  0  0  0  0  0  0  0
   -6.9444   -0.2882    0.0000 S   0  0  0  0  0  0  0  0  0  0  0  0
   -7.6563   -0.6992    0.0000 C   0  0  0  0  0  0  0  0  0  0  0  0
   -8.3683   -0.2882    0.0000 C   0  0  0  0  0  0  0  0  0  0  0  0
   -9.0828   -0.7007    0.0000 C   0  0  0  0  0  0  0  0  0  0  0  0
   -9.7973   -0.2882    0.0000 C   0  0  0  0  0  0  0  0  0  0  0  0
   -7.6563   -1.5242    0.0000 O   0  0  0  0  0  0  0  0  0  0  0  0
  1  2  1  0      
  2  3  2  0      
  3  4  1  0      
  4  5  2  0      
  5  6  1  0      
  1  6  2  0      
  4  7  1  0      
  7  8  1  0      
  8  9  2  0      
  5  9  1  0      
  6 10  1  0      
 11  7  1  1      
 11 12  1  0      
 12 13  1  0      
 13 14  1  0      
 14 15  1  0      
 15 11  1  0      
 14 16  1  6      
 15 17  1  6      
 13 18  1  1      
 18 19  1  0      
 16 20  1  0      
 20 21  1  0      
 20 22  1  0      
 20 23  2  0      
 19 24  1  0      
 24 25  1  0      
 25 26  1  0      
 26 27  1  0      
 27 28  1  0      
 28 29  1  0      
 29 30  1  0      
 30 31  1  0      
 31 32  1  0      
 32 33  1  0      
 33 34  1  0      
 24 35  1  0      
 24 36  2  0      
 26 37  1  0      
 26 38  2  0      
 29 39  1  6      
 29 40  1  1      
 30 41  1  1      
 31 42  2  0      
 34 43  1  0      
 43 44  1  0      
 44 45  1  0      
 43 46  2  0      
 45 47  1  0      
 47 48  1  0      
 48 49  1  0      
 49 50  1  0      
 50 51  2  0      
 51 52  1  0      
 49 53  2  0      
M  CHG  4  21  -1  22  -1  35  -1  37  -1
M  END
