CTB.mol
  ChemDraw10271515542D

 24 25  0  0  0  0  0  0  0  0999 V2000
   -2.5029   -0.9106    0.0000 C   0  0  0  0  0  0  0  0  0  0  0  0
   -2.5029   -1.7356    0.0000 C   0  0  0  0  0  0  0  0  0  0  0  0
   -1.7885   -2.1481    0.0000 C   0  0  0  0  0  0  0  0  0  0  0  0
   -1.0735   -1.7356    0.0000 C   0  0  0  0  0  0  0  0  0  0  0  0
   -1.0735   -0.9106    0.0000 C   0  0  0  0  0  0  0  0  0  0  0  0
   -1.7885   -0.4981    0.0000 C   0  0  0  0  0  0  0  0  0  0  0  0
   -0.3591   -0.4981    0.0000 C   0  0  0  0  0  0  0  0  0  0  0  0
    0.3553   -0.9106    0.0000 N   0  0  0  0  0  0  0  0  0  0  0  0
    1.0698   -0.4981    0.0000 C   0  0  0  0  0  0  0  0  0  0  0  0
    1.7842   -0.9106    0.0000 C   0  0  0  0  0  0  0  0  0  0  0  0
    1.0698    0.3275    0.0000 C   0  0  0  0  0  0  0  0  0  0  0  0
    2.4981   -0.4981    0.0000 C   0  0  0  0  0  0  0  0  0  0  0  0
    2.4981    0.3275    0.0000 C   0  0  0  0  0  0  0  0  0  0  0  0
    3.2125    0.7400    0.0000 Cl  0  0  0  0  0  0  0  0  0  0  0  0
    1.7842    0.7400    0.0000 C   0  0  0  0  0  0  0  0  0  0  0  0
   -0.3591    0.3275    0.0000 O   0  0  0  0  0  0  0  0  0  0  0  0
   -1.7885    0.3275    0.0000 O   0  0  0  0  0  0  0  0  0  0  0  0
   -2.5005    0.7385    0.0000 C   0  0  0  0  0  0  0  0  0  0  0  0
   -3.2125    0.3275    0.0000 C   0  0  0  0  0  0  0  0  0  0  0  0
    1.7842    1.5622    0.0000 C   0  0  0  0  0  0  0  0  0  0  0  0
    2.4981    1.9775    0.0000 F   0  0  0  0  0  0  0  0  0  0  0  0
    0.9873    1.7781    0.0000 F   0  0  0  0  0  0  0  0  0  0  0  0
    1.2010    2.1482    0.0000 F   0  0  0  0  0  0  0  0  0  0  0  0
   -0.3591   -2.1482    0.0000 H   0  0  0  0  0  0  0  0  0  0  0  0
  1  2  2  0      
  2  3  1  0      
  3  4  2  0      
  4  5  1  0      
  5  6  2  0      
  6  1  1  0      
  5  7  1  0      
  7  8  1  0      
  8  9  1  0      
  9 10  1  0      
  9 11  2  0      
 10 12  2  0      
 12 13  1  0      
 13 14  1  0      
 13 15  2  0      
 11 15  1  0      
  7 16  2  0      
  6 17  1  0      
 17 18  1  0      
 18 19  1  0      
 15 20  1  0      
 20 21  1  0      
 20 22  1  0      
 20 23  1  0      
  4 24  1  0      
M  END
