DecanoylSCoA.mol
  ChemDraw10271516012D

 59 61  0  0  0  0  0  0  0  0999 V2000
   11.9314    1.5523    0.0000 N   0  0  0  0  0  0  0  0  0  0  0  0
   11.7200    0.7548    0.0000 C   0  0  0  0  0  0  0  0  0  0  0  0
   10.9242    0.5371    0.0000 N   0  0  0  0  0  0  0  0  0  0  0  0
   10.3375    1.1198    0.0000 C   0  0  0  0  0  0  0  0  0  0  0  0
   10.5478    1.9178    0.0000 C   0  0  0  0  0  0  0  0  0  0  0  0
   11.3458    2.1344    0.0000 C   0  0  0  0  0  0  0  0  0  0  0  0
    9.5120    1.0703    0.0000 N   0  0  0  0  0  0  0  0  0  0  0  0
    9.2146    1.8422    0.0000 C   0  0  0  0  0  0  0  0  0  0  0  0
    9.8545    2.3647    0.0000 N   0  0  0  0  0  0  0  0  0  0  0  0
   11.5561    2.9319    0.0000 N   0  0  0  0  0  0  0  0  0  0  0  0
    9.0668    0.3796    0.0000 C   0  0  0  0  0  0  0  0  0  0  0  0
    8.2435    0.3320    0.0000 O   0  0  0  0  0  0  0  0  0  0  0  0
    8.0327   -0.4655    0.0000 C   0  0  0  0  0  0  0  0  0  0  0  0
    8.7259   -0.9118    0.0000 C   0  0  0  0  0  0  0  0  0  0  0  0
    9.3658   -0.3904    0.0000 C   0  0  0  0  0  0  0  0  0  0  0  0
    8.7729   -1.7357    0.0000 O   0  0  0  0  0  0  0  0  0  0  0  0
   10.1633   -0.6007    0.0000 O   0  0  0  0  0  0  0  0  0  0  0  0
    7.2638   -0.7640    0.0000 C   0  0  0  0  0  0  0  0  0  0  0  0
    6.6198   -0.2472    0.0000 O   0  0  0  0  0  0  0  0  0  0  0  0
    9.5091   -2.1075    0.0000 P   0  0  0  0  0  0  0  0  0  0  0  0
    9.5125   -2.9319    0.0000 O   0  5  0  0  0  0  0  0  0  0  0  0
   10.0912   -1.5214    0.0000 O   0  5  0  0  0  0  0  0  0  0  0  0
    9.9250   -2.8208    0.0000 O   0  0  0  0  0  0  0  0  0  0  0  0
    5.9066   -0.6632    0.0000 P   0  0  0  0  0  0  0  0  0  0  0  0
    5.1904   -0.2524    0.0000 O   0  0  0  0  0  0  0  0  0  0  0  0
    4.4771   -0.6677    0.0000 P   0  0  0  0  0  0  0  0  0  0  0  0
    3.7610   -0.2581    0.0000 O   0  0  0  0  0  0  0  0  0  0  0  0
    3.0477   -0.6729    0.0000 C   0  0  0  0  0  0  0  0  0  0  0  0
    2.3316   -0.2633    0.0000 C   0  0  0  0  0  0  0  0  0  0  0  0
    1.6189   -0.6786    0.0000 C   0  0  0  0  0  0  0  0  0  0  0  0
    0.9027   -0.2690    0.0000 C   0  0  0  0  0  0  0  0  0  0  0  0
    0.1894   -0.6838    0.0000 N   0  0  0  0  0  0  0  0  0  0  0  0
   -0.5267   -0.2736    0.0000 C   0  0  0  0  0  0  0  0  0  0  0  0
   -1.2400   -0.6884    0.0000 C   0  0  0  0  0  0  0  0  0  0  0  0
    5.6963   -1.4607    0.0000 O   0  5  0  0  0  0  0  0  0  0  0  0
    6.1231   -1.4589    0.0000 O   0  0  0  0  0  0  0  0  0  0  0  0
    4.2669   -1.4664    0.0000 O   0  5  0  0  0  0  0  0  0  0  0  0
    4.6937   -1.4647    0.0000 O   0  0  0  0  0  0  0  0  0  0  0  0
    2.1156    0.5337    0.0000 C   0  0  0  0  0  0  0  0  0  0  0  0
    2.5430    0.5342    0.0000 C   0  0  0  0  0  0  0  0  0  0  0  0
    1.6217   -1.5036    0.0000 C   0  0  0  0  0  0  0  0  0  0  0  0
    0.9004    0.5572    0.0000 O   0  0  0  0  0  0  0  0  0  0  0  0
   -1.9561   -0.2787    0.0000 C   0  0  0  0  0  0  0  0  0  0  0  0
   -2.6694   -0.6941    0.0000 N   0  0  0  0  0  0  0  0  0  0  0  0
   -3.3856   -0.2845    0.0000 C   0  0  0  0  0  0  0  0  0  0  0  0
   -1.9590    0.5463    0.0000 O   0  0  0  0  0  0  0  0  0  0  0  0
   -4.0983   -0.6992    0.0000 C   0  0  0  0  0  0  0  0  0  0  0  0
   -4.8103   -0.2882    0.0000 S   0  0  0  0  0  0  0  0  0  0  0  0
   -5.5223   -0.6992    0.0000 C   0  0  0  0  0  0  0  0  0  0  0  0
   -5.5223   -1.5214    0.0000 O   0  0  0  0  0  0  0  0  0  0  0  0
   -6.2343   -0.2882    0.0000 C   0  0  0  0  0  0  0  0  0  0  0  0
   -6.9462   -0.6992    0.0000 C   0  0  0  0  0  0  0  0  0  0  0  0
   -7.6582   -0.2882    0.0000 C   0  0  0  0  0  0  0  0  0  0  0  0
   -8.3702   -0.6992    0.0000 C   0  0  0  0  0  0  0  0  0  0  0  0
   -9.0822   -0.2882    0.0000 C   0  0  0  0  0  0  0  0  0  0  0  0
   -9.7942   -0.6992    0.0000 C   0  0  0  0  0  0  0  0  0  0  0  0
  -10.5062   -0.2882    0.0000 C   0  0  0  0  0  0  0  0  0  0  0  0
  -11.1888   -0.7515    0.0000 C   0  0  0  0  0  0  0  0  0  0  0  0
  -11.9314   -0.3920    0.0000 C   0  0  0  0  0  0  0  0  0  0  0  0
  1  2  1  0      
  2  3  2  0      
  3  4  1  0      
  4  5  2  0      
  5  6  1  0      
  1  6  2  0      
  4  7  1  0      
  7  8  1  0      
  8  9  2  0      
  5  9  1  0      
  6 10  1  0      
 11  7  1  1      
 11 12  1  0      
 12 13  1  0      
 13 14  1  0      
 14 15  1  0      
 15 11  1  0      
 14 16  1  6      
 15 17  1  6      
 13 18  1  1      
 18 19  1  0      
 16 20  1  0      
 20 21  1  0      
 20 22  1  0      
 20 23  2  0      
 19 24  1  0      
 24 25  1  0      
 25 26  1  0      
 26 27  1  0      
 27 28  1  0      
 28 29  1  0      
 29 30  1  0      
 30 31  1  0      
 31 32  1  0      
 32 33  1  0      
 33 34  1  0      
 24 35  1  0      
 24 36  2  0      
 26 37  1  0      
 26 38  2  0      
 29 39  1  6      
 29 40  1  1      
 30 41  1  1      
 31 42  2  0      
 34 43  1  0      
 43 44  1  0      
 44 45  1  0      
 43 46  2  0      
 45 47  1  0      
 47 48  1  0      
 48 49  1  0      
 49 50  2  0      
 49 51  1  0      
 51 52  1  0      
 52 53  1  0      
 53 54  1  0      
 54 55  1  0      
 55 56  1  0      
 56 57  1  0      
 57 58  1  0      
 58 59  1  0      
M  CHG  4  21  -1  22  -1  35  -1  37  -1
M  END
