DecylCTB.mol
  ChemDraw10271515562D

 33 34  0  0  0  0  0  0  0  0999 V2000
   -3.2040   -2.2139    0.0000 C   0  0  0  0  0  0  0  0  0  0  0  0
   -3.2040   -1.3918    0.0000 C   0  0  0  0  0  0  0  0  0  0  0  0
   -2.4920   -0.9807    0.0000 C   0  0  0  0  0  0  0  0  0  0  0  0
   -1.7800   -1.3918    0.0000 C   0  0  0  0  0  0  0  0  0  0  0  0
   -1.7800   -2.2139    0.0000 C   0  0  0  0  0  0  0  0  0  0  0  0
   -2.4920   -2.6250    0.0000 C   0  0  0  0  0  0  0  0  0  0  0  0
   -1.0680   -2.6250    0.0000 C   0  0  0  0  0  0  0  0  0  0  0  0
   -0.3560   -2.2139    0.0000 N   0  0  0  0  0  0  0  0  0  0  0  0
    0.3560   -2.6250    0.0000 C   0  0  0  0  0  0  0  0  0  0  0  0
    0.3560   -3.4471    0.0000 C   0  0  0  0  0  0  0  0  0  0  0  0
    1.0680   -2.2139    0.0000 C   0  0  0  0  0  0  0  0  0  0  0  0
    1.0680   -3.8582    0.0000 C   0  0  0  0  0  0  0  0  0  0  0  0
    1.7800   -3.4471    0.0000 C   0  0  0  0  0  0  0  0  0  0  0  0
    2.4920   -3.8582    0.0000 Cl  0  0  0  0  0  0  0  0  0  0  0  0
    1.7800   -2.6250    0.0000 C   0  0  0  0  0  0  0  0  0  0  0  0
   -1.0680   -3.4471    0.0000 O   0  0  0  0  0  0  0  0  0  0  0  0
   -2.4920   -3.4471    0.0000 O   0  0  0  0  0  0  0  0  0  0  0  0
   -3.2040   -3.8582    0.0000 C   0  0  0  0  0  0  0  0  0  0  0  0
   -3.2040   -4.6803    0.0000 C   0  0  0  0  0  0  0  0  0  0  0  0
    2.4920   -2.2139    0.0000 C   0  0  0  0  0  0  0  0  0  0  0  0
    2.4920   -1.3918    0.0000 F   0  0  0  0  0  0  0  0  0  0  0  0
    3.2040   -1.8029    0.0000 F   0  0  0  0  0  0  0  0  0  0  0  0
    3.2040   -2.6250    0.0000 F   0  0  0  0  0  0  0  0  0  0  0  0
   -1.0680   -0.9807    0.0000 C   0  0  0  0  0  0  0  0  0  0  0  0
   -1.0680   -0.1586    0.0000 C   0  0  0  0  0  0  0  0  0  0  0  0
   -0.3560    0.2525    0.0000 C   0  0  0  0  0  0  0  0  0  0  0  0
   -0.3560    1.0746    0.0000 C   0  0  0  0  0  0  0  0  0  0  0  0
    0.3560    1.4857    0.0000 C   0  0  0  0  0  0  0  0  0  0  0  0
    0.3560    2.3078    0.0000 C   0  0  0  0  0  0  0  0  0  0  0  0
    1.0680    2.7189    0.0000 C   0  0  0  0  0  0  0  0  0  0  0  0
    1.0680    3.5410    0.0000 C   0  0  0  0  0  0  0  0  0  0  0  0
    1.8281    3.8617    0.0000 C   0  0  0  0  0  0  0  0  0  0  0  0
    1.9305    4.6803    0.0000 C   0  0  0  0  0  0  0  0  0  0  0  0
  1  2  2  0      
  2  3  1  0      
  3  4  2  0      
  4  5  1  0      
  5  6  2  0      
  6  1  1  0      
  5  7  1  0      
  7  8  1  0      
  8  9  1  0      
  9 10  1  0      
  9 11  2  0      
 10 12  2  0      
 12 13  1  0      
 13 14  1  0      
 13 15  2  0      
 11 15  1  0      
  7 16  2  0      
  6 17  1  0      
 17 18  1  0      
 18 19  1  0      
 15 20  1  0      
 20 21  1  0      
 20 22  1  0      
 20 23  1  0      
  4 24  1  0      
 24 25  1  0      
 25 26  1  0      
 26 27  1  0      
 27 28  1  0      
 28 29  1  0      
 29 30  1  0      
 30 31  1  0      
 31 32  1  0      
 32 33  1  0      
M  END
