DodecanoylSCoA.mol
  ChemDraw10271516012D

 61 63  0  0  0  0  0  0  0  0999 V2000
   12.6428    1.5523    0.0000 N   0  0  0  0  0  0  0  0  0  0  0  0
   12.4314    0.7548    0.0000 C   0  0  0  0  0  0  0  0  0  0  0  0
   11.6356    0.5371    0.0000 N   0  0  0  0  0  0  0  0  0  0  0  0
   11.0489    1.1198    0.0000 C   0  0  0  0  0  0  0  0  0  0  0  0
   11.2592    1.9178    0.0000 C   0  0  0  0  0  0  0  0  0  0  0  0
   12.0572    2.1344    0.0000 C   0  0  0  0  0  0  0  0  0  0  0  0
   10.2219    1.0679    0.0000 N   0  0  0  0  0  0  0  0  0  0  0  0
    9.9260    1.8422    0.0000 C   0  0  0  0  0  0  0  0  0  0  0  0
   10.5659    2.3647    0.0000 N   0  0  0  0  0  0  0  0  0  0  0  0
   12.2675    2.9319    0.0000 N   0  0  0  0  0  0  0  0  0  0  0  0
    9.7782    0.3796    0.0000 C   0  0  0  0  0  0  0  0  0  0  0  0
    8.9549    0.3320    0.0000 O   0  0  0  0  0  0  0  0  0  0  0  0
    8.7441   -0.4655    0.0000 C   0  0  0  0  0  0  0  0  0  0  0  0
    9.4373   -0.9118    0.0000 C   0  0  0  0  0  0  0  0  0  0  0  0
   10.0772   -0.3904    0.0000 C   0  0  0  0  0  0  0  0  0  0  0  0
    9.4843   -1.7357    0.0000 O   0  0  0  0  0  0  0  0  0  0  0  0
   10.8747   -0.6007    0.0000 O   0  0  0  0  0  0  0  0  0  0  0  0
    7.9752   -0.7640    0.0000 C   0  0  0  0  0  0  0  0  0  0  0  0
    7.3312   -0.2472    0.0000 O   0  0  0  0  0  0  0  0  0  0  0  0
   10.2205   -2.1075    0.0000 P   0  0  0  0  0  0  0  0  0  0  0  0
   10.2239   -2.9319    0.0000 O   0  5  0  0  0  0  0  0  0  0  0  0
   10.8026   -1.5214    0.0000 O   0  5  0  0  0  0  0  0  0  0  0  0
   10.6364   -2.8208    0.0000 O   0  0  0  0  0  0  0  0  0  0  0  0
    6.6180   -0.6632    0.0000 P   0  0  0  0  0  0  0  0  0  0  0  0
    5.9018   -0.2524    0.0000 O   0  0  0  0  0  0  0  0  0  0  0  0
    5.1885   -0.6677    0.0000 P   0  0  0  0  0  0  0  0  0  0  0  0
    4.4724   -0.2581    0.0000 O   0  0  0  0  0  0  0  0  0  0  0  0
    3.7591   -0.6729    0.0000 C   0  0  0  0  0  0  0  0  0  0  0  0
    3.0430   -0.2633    0.0000 C   0  0  0  0  0  0  0  0  0  0  0  0
    2.3303   -0.6786    0.0000 C   0  0  0  0  0  0  0  0  0  0  0  0
    1.6141   -0.2690    0.0000 C   0  0  0  0  0  0  0  0  0  0  0  0
    0.9008   -0.6838    0.0000 N   0  0  0  0  0  0  0  0  0  0  0  0
    0.1847   -0.2736    0.0000 C   0  0  0  0  0  0  0  0  0  0  0  0
   -0.5286   -0.6884    0.0000 C   0  0  0  0  0  0  0  0  0  0  0  0
    6.4077   -1.4607    0.0000 O   0  5  0  0  0  0  0  0  0  0  0  0
    6.8345   -1.4589    0.0000 O   0  0  0  0  0  0  0  0  0  0  0  0
    4.9783   -1.4664    0.0000 O   0  5  0  0  0  0  0  0  0  0  0  0
    5.4051   -1.4647    0.0000 O   0  0  0  0  0  0  0  0  0  0  0  0
    2.8270    0.5337    0.0000 C   0  0  0  0  0  0  0  0  0  0  0  0
    3.2544    0.5342    0.0000 C   0  0  0  0  0  0  0  0  0  0  0  0
    2.3331   -1.5036    0.0000 C   0  0  0  0  0  0  0  0  0  0  0  0
    1.6118    0.5572    0.0000 O   0  0  0  0  0  0  0  0  0  0  0  0
   -1.2447   -0.2787    0.0000 C   0  0  0  0  0  0  0  0  0  0  0  0
   -1.9580   -0.6941    0.0000 N   0  0  0  0  0  0  0  0  0  0  0  0
   -2.6742   -0.2845    0.0000 C   0  0  0  0  0  0  0  0  0  0  0  0
   -1.2476    0.5463    0.0000 O   0  0  0  0  0  0  0  0  0  0  0  0
   -3.3869   -0.6992    0.0000 C   0  0  0  0  0  0  0  0  0  0  0  0
   -4.0989   -0.2882    0.0000 S   0  0  0  0  0  0  0  0  0  0  0  0
   -4.8109   -0.6992    0.0000 C   0  0  0  0  0  0  0  0  0  0  0  0
   -4.8109   -1.5214    0.0000 O   0  0  0  0  0  0  0  0  0  0  0  0
   -5.5229   -0.2882    0.0000 C   0  0  0  0  0  0  0  0  0  0  0  0
   -6.2348   -0.6992    0.0000 C   0  0  0  0  0  0  0  0  0  0  0  0
   -6.9468   -0.2882    0.0000 C   0  0  0  0  0  0  0  0  0  0  0  0
   -7.6588   -0.6992    0.0000 C   0  0  0  0  0  0  0  0  0  0  0  0
   -8.3708   -0.2882    0.0000 C   0  0  0  0  0  0  0  0  0  0  0  0
   -9.0828   -0.6992    0.0000 C   0  0  0  0  0  0  0  0  0  0  0  0
   -9.7948   -0.2882    0.0000 C   0  0  0  0  0  0  0  0  0  0  0  0
  -10.5068   -0.6992    0.0000 C   0  0  0  0  0  0  0  0  0  0  0  0
  -11.2188   -0.2882    0.0000 C   0  0  0  0  0  0  0  0  0  0  0  0
  -11.9308   -0.6992    0.0000 C   0  0  0  0  0  0  0  0  0  0  0  0
  -12.6428   -0.2882    0.0000 C   0  0  0  0  0  0  0  0  0  0  0  0
  1  2  1  0      
  2  3  2  0      
  3  4  1  0      
  4  5  2  0      
  5  6  1  0      
  1  6  2  0      
  4  7  1  0      
  7  8  1  0      
  8  9  2  0      
  5  9  1  0      
  6 10  1  0      
 11  7  1  1      
 11 12  1  0      
 12 13  1  0      
 13 14  1  0      
 14 15  1  0      
 15 11  1  0      
 14 16  1  6      
 15 17  1  6      
 13 18  1  1      
 18 19  1  0      
 16 20  1  0      
 20 21  1  0      
 20 22  1  0      
 20 23  2  0      
 19 24  1  0      
 24 25  1  0      
 25 26  1  0      
 26 27  1  0      
 27 28  1  0      
 28 29  1  0      
 29 30  1  0      
 30 31  1  0      
 31 32  1  0      
 32 33  1  0      
 33 34  1  0      
 24 35  1  0      
 24 36  2  0      
 26 37  1  0      
 26 38  2  0      
 29 39  1  6      
 29 40  1  1      
 30 41  1  1      
 31 42  2  0      
 34 43  1  0      
 43 44  1  0      
 44 45  1  0      
 43 46  2  0      
 45 47  1  0      
 47 48  1  0      
 48 49  1  0      
 49 50  2  0      
 49 51  1  0      
 51 52  1  0      
 52 53  1  0      
 53 54  1  0      
 54 55  1  0      
 55 56  1  0      
 56 57  1  0      
 57 58  1  0      
 58 59  1  0      
 59 60  1  0      
 60 61  1  0      
M  CHG  4  21  -1  22  -1  35  -1  37  -1
M  END
