FormylSCoA.mol
  ChemDraw10271515592D

 50 52  0  0  0  0  0  0  0  0999 V2000
    8.7297    1.5523    0.0000 N   0  0  0  0  0  0  0  0  0  0  0  0
    8.5183    0.7548    0.0000 C   0  0  0  0  0  0  0  0  0  0  0  0
    7.7225    0.5371    0.0000 N   0  0  0  0  0  0  0  0  0  0  0  0
    7.1359    1.1198    0.0000 C   0  0  0  0  0  0  0  0  0  0  0  0
    7.3461    1.9178    0.0000 C   0  0  0  0  0  0  0  0  0  0  0  0
    8.1442    2.1344    0.0000 C   0  0  0  0  0  0  0  0  0  0  0  0
    6.3120    1.0728    0.0000 N   0  0  0  0  0  0  0  0  0  0  0  0
    6.0130    1.8422    0.0000 C   0  0  0  0  0  0  0  0  0  0  0  0
    6.6529    2.3647    0.0000 N   0  0  0  0  0  0  0  0  0  0  0  0
    8.3545    2.9319    0.0000 N   0  0  0  0  0  0  0  0  0  0  0  0
    5.8651    0.3796    0.0000 C   0  0  0  0  0  0  0  0  0  0  0  0
    5.0419    0.3320    0.0000 O   0  0  0  0  0  0  0  0  0  0  0  0
    4.8310   -0.4655    0.0000 C   0  0  0  0  0  0  0  0  0  0  0  0
    5.5243   -0.9118    0.0000 C   0  0  0  0  0  0  0  0  0  0  0  0
    6.1642   -0.3904    0.0000 C   0  0  0  0  0  0  0  0  0  0  0  0
    5.5712   -1.7357    0.0000 O   0  0  0  0  0  0  0  0  0  0  0  0
    6.9617   -0.6007    0.0000 O   0  0  0  0  0  0  0  0  0  0  0  0
    4.0622   -0.7640    0.0000 C   0  0  0  0  0  0  0  0  0  0  0  0
    3.4182   -0.2472    0.0000 O   0  0  0  0  0  0  0  0  0  0  0  0
    6.3074   -2.1075    0.0000 P   0  0  0  0  0  0  0  0  0  0  0  0
    6.3109   -2.9319    0.0000 O   0  5  0  0  0  0  0  0  0  0  0  0
    6.8895   -1.5214    0.0000 O   0  5  0  0  0  0  0  0  0  0  0  0
    6.7234   -2.8208    0.0000 O   0  0  0  0  0  0  0  0  0  0  0  0
    2.7049   -0.6632    0.0000 P   0  0  0  0  0  0  0  0  0  0  0  0
    1.9888   -0.2524    0.0000 O   0  0  0  0  0  0  0  0  0  0  0  0
    1.2755   -0.6677    0.0000 P   0  0  0  0  0  0  0  0  0  0  0  0
    0.5594   -0.2581    0.0000 O   0  0  0  0  0  0  0  0  0  0  0  0
   -0.1539   -0.6729    0.0000 C   0  0  0  0  0  0  0  0  0  0  0  0
   -0.8701   -0.2633    0.0000 C   0  0  0  0  0  0  0  0  0  0  0  0
   -1.5828   -0.6786    0.0000 C   0  0  0  0  0  0  0  0  0  0  0  0
   -2.2989   -0.2690    0.0000 C   0  0  0  0  0  0  0  0  0  0  0  0
   -3.0122   -0.6838    0.0000 N   0  0  0  0  0  0  0  0  0  0  0  0
   -3.7284   -0.2736    0.0000 C   0  0  0  0  0  0  0  0  0  0  0  0
   -4.4416   -0.6884    0.0000 C   0  0  0  0  0  0  0  0  0  0  0  0
    2.4947   -1.4607    0.0000 O   0  5  0  0  0  0  0  0  0  0  0  0
    2.9215   -1.4589    0.0000 O   0  0  0  0  0  0  0  0  0  0  0  0
    1.0652   -1.4664    0.0000 O   0  5  0  0  0  0  0  0  0  0  0  0
    1.4921   -1.4647    0.0000 O   0  0  0  0  0  0  0  0  0  0  0  0
   -1.0861    0.5337    0.0000 C   0  0  0  0  0  0  0  0  0  0  0  0
   -0.6587    0.5342    0.0000 C   0  0  0  0  0  0  0  0  0  0  0  0
   -1.5799   -1.5036    0.0000 C   0  0  0  0  0  0  0  0  0  0  0  0
   -2.3012    0.5572    0.0000 O   0  0  0  0  0  0  0  0  0  0  0  0
   -5.1578   -0.2787    0.0000 C   0  0  0  0  0  0  0  0  0  0  0  0
   -5.8711   -0.6941    0.0000 N   0  0  0  0  0  0  0  0  0  0  0  0
   -6.5872   -0.2845    0.0000 C   0  0  0  0  0  0  0  0  0  0  0  0
   -5.1606    0.5463    0.0000 O   0  0  0  0  0  0  0  0  0  0  0  0
   -7.2999   -0.6992    0.0000 C   0  0  0  0  0  0  0  0  0  0  0  0
   -8.0172   -0.2896    0.0000 S   0  0  0  0  0  0  0  0  0  0  0  0
   -8.7297   -0.7055    0.0000 C   0  0  0  0  0  0  0  0  0  0  0  0
   -8.7258   -1.5305    0.0000 O   0  0  0  0  0  0  0  0  0  0  0  0
  1  2  1  0      
  2  3  2  0      
  3  4  1  0      
  4  5  2  0      
  5  6  1  0      
  1  6  2  0      
  4  7  1  0      
  7  8  1  0      
  8  9  2  0      
  5  9  1  0      
  6 10  1  0      
 11  7  1  1      
 11 12  1  0      
 12 13  1  0      
 13 14  1  0      
 14 15  1  0      
 15 11  1  0      
 14 16  1  6      
 15 17  1  6      
 13 18  1  1      
 18 19  1  0      
 16 20  1  0      
 20 21  1  0      
 20 22  1  0      
 20 23  2  0      
 19 24  1  0      
 24 25  1  0      
 25 26  1  0      
 26 27  1  0      
 27 28  1  0      
 28 29  1  0      
 29 30  1  0      
 30 31  1  0      
 31 32  1  0      
 32 33  1  0      
 33 34  1  0      
 24 35  1  0      
 24 36  2  0      
 26 37  1  0      
 26 38  2  0      
 29 39  1  6      
 29 40  1  1      
 30 41  1  1      
 31 42  2  0      
 34 43  1  0      
 43 44  1  0      
 44 45  1  0      
 43 46  2  0      
 45 47  1  0      
 47 48  1  0      
 48 49  1  0      
 49 50  2  0      
M  CHG  4  21  -1  22  -1  35  -1  37  -1
M  END
