baseGlutarylSCoA.mol
  ChemDraw10271516052D

 56 58  0  0  0  0  0  0  0  0999 V2000
   10.5035    1.5523    0.0000 N   0  0  0  0  0  0  0  0  0  0  0  0
   10.2921    0.7548    0.0000 C   0  0  0  0  0  0  0  0  0  0  0  0
    9.4963    0.5371    0.0000 N   0  0  0  0  0  0  0  0  0  0  0  0
    8.9096    1.1198    0.0000 C   0  0  0  0  0  0  0  0  0  0  0  0
    9.1199    1.9178    0.0000 C   0  0  0  0  0  0  0  0  0  0  0  0
    9.9179    2.1344    0.0000 C   0  0  0  0  0  0  0  0  0  0  0  0
    8.0810    1.0654    0.0000 N   0  0  0  0  0  0  0  0  0  0  0  0
    7.7867    1.8422    0.0000 C   0  0  0  0  0  0  0  0  0  0  0  0
    8.4266    2.3647    0.0000 N   0  0  0  0  0  0  0  0  0  0  0  0
   10.1282    2.9319    0.0000 N   0  0  0  0  0  0  0  0  0  0  0  0
    7.6389    0.3796    0.0000 C   0  0  0  0  0  0  0  0  0  0  0  0
    6.8156    0.3320    0.0000 O   0  0  0  0  0  0  0  0  0  0  0  0
    6.6048   -0.4655    0.0000 C   0  0  0  0  0  0  0  0  0  0  0  0
    7.2980   -0.9118    0.0000 C   0  0  0  0  0  0  0  0  0  0  0  0
    7.9379   -0.3904    0.0000 C   0  0  0  0  0  0  0  0  0  0  0  0
    7.3450   -1.7357    0.0000 O   0  0  0  0  0  0  0  0  0  0  0  0
    8.7354   -0.6007    0.0000 O   0  0  0  0  0  0  0  0  0  0  0  0
    5.8359   -0.7640    0.0000 C   0  0  0  0  0  0  0  0  0  0  0  0
    5.1920   -0.2472    0.0000 O   0  0  0  0  0  0  0  0  0  0  0  0
    8.0812   -2.1075    0.0000 P   0  0  0  0  0  0  0  0  0  0  0  0
    8.0846   -2.9319    0.0000 O   0  5  0  0  0  0  0  0  0  0  0  0
    8.6633   -1.5214    0.0000 O   0  5  0  0  0  0  0  0  0  0  0  0
    8.4971   -2.8208    0.0000 O   0  0  0  0  0  0  0  0  0  0  0  0
    4.4787   -0.6632    0.0000 P   0  0  0  0  0  0  0  0  0  0  0  0
    3.7625   -0.2524    0.0000 O   0  0  0  0  0  0  0  0  0  0  0  0
    3.0492   -0.6677    0.0000 P   0  0  0  0  0  0  0  0  0  0  0  0
    2.3331   -0.2581    0.0000 O   0  0  0  0  0  0  0  0  0  0  0  0
    1.6198   -0.6729    0.0000 C   0  0  0  0  0  0  0  0  0  0  0  0
    0.9037   -0.2633    0.0000 C   0  0  0  0  0  0  0  0  0  0  0  0
    0.1910   -0.6786    0.0000 C   0  0  0  0  0  0  0  0  0  0  0  0
   -0.5252   -0.2690    0.0000 C   0  0  0  0  0  0  0  0  0  0  0  0
   -1.2385   -0.6838    0.0000 N   0  0  0  0  0  0  0  0  0  0  0  0
   -1.9546   -0.2736    0.0000 C   0  0  0  0  0  0  0  0  0  0  0  0
   -2.6666   -0.6846    0.0000 C   0  0  0  0  0  0  0  0  0  0  0  0
    4.2684   -1.4607    0.0000 O   0  5  0  0  0  0  0  0  0  0  0  0
    4.6952   -1.4589    0.0000 O   0  0  0  0  0  0  0  0  0  0  0  0
    2.8390   -1.4664    0.0000 O   0  5  0  0  0  0  0  0  0  0  0  0
    3.2658   -1.4647    0.0000 O   0  0  0  0  0  0  0  0  0  0  0  0
    0.6877    0.5337    0.0000 C   0  0  0  0  0  0  0  0  0  0  0  0
    1.1151    0.5342    0.0000 C   0  0  0  0  0  0  0  0  0  0  0  0
    0.1938   -1.5036    0.0000 C   0  0  0  0  0  0  0  0  0  0  0  0
   -0.5275    0.5572    0.0000 O   0  0  0  0  0  0  0  0  0  0  0  0
   -3.3786   -0.2736    0.0000 C   0  0  0  0  0  0  0  0  0  0  0  0
   -4.0906   -0.6846    0.0000 N   0  0  0  0  0  0  0  0  0  0  0  0
   -4.8026   -0.2736    0.0000 C   0  0  0  0  0  0  0  0  0  0  0  0
   -3.3786    0.5486    0.0000 O   0  0  0  0  0  0  0  0  0  0  0  0
   -5.5146   -0.6846    0.0000 C   0  0  0  0  0  0  0  0  0  0  0  0
   -6.2266   -0.2736    0.0000 S   0  0  0  0  0  0  0  0  0  0  0  0
   -6.9385   -0.6846    0.0000 C   0  0  0  0  0  0  0  0  0  0  0  0
   -7.6505   -0.2736    0.0000 C   0  0  0  0  0  0  0  0  0  0  0  0
   -8.3625   -0.6846    0.0000 C   0  0  0  0  0  0  0  0  0  0  0  0
   -9.0745   -0.2736    0.0000 C   0  0  0  0  0  0  0  0  0  0  0  0
   -6.9385   -1.5068    0.0000 O   0  0  0  0  0  0  0  0  0  0  0  0
   -9.7890   -0.6861    0.0000 C   0  0  0  0  0  0  0  0  0  0  0  0
   -9.7890   -1.5111    0.0000 O   0  0  0  0  0  0  0  0  0  0  0  0
  -10.5035   -0.2736    0.0000 O   0  5  0  0  0  0  0  0  0  0  0  0
  1  2  1  0      
  2  3  2  0      
  3  4  1  0      
  4  5  2  0      
  5  6  1  0      
  1  6  2  0      
  4  7  1  0      
  7  8  1  0      
  8  9  2  0      
  5  9  1  0      
  6 10  1  0      
 11  7  1  1      
 11 12  1  0      
 12 13  1  0      
 13 14  1  0      
 14 15  1  0      
 15 11  1  0      
 14 16  1  6      
 15 17  1  6      
 13 18  1  1      
 18 19  1  0      
 16 20  1  0      
 20 21  1  0      
 20 22  1  0      
 20 23  2  0      
 19 24  1  0      
 24 25  1  0      
 25 26  1  0      
 26 27  1  0      
 27 28  1  0      
 28 29  1  0      
 29 30  1  0      
 30 31  1  0      
 31 32  1  0      
 32 33  1  0      
 33 34  1  0      
 24 35  1  0      
 24 36  2  0      
 26 37  1  0      
 26 38  2  0      
 29 39  1  6      
 29 40  1  1      
 30 41  1  1      
 31 42  2  0      
 34 43  1  0      
 43 44  1  0      
 44 45  1  0      
 43 46  2  0      
 45 47  1  0      
 47 48  1  0      
 49 50  1  0      
 50 51  1  0      
 51 52  1  0      
 49 53  2  0      
 48 49  1  0      
 52 54  1  0      
 54 55  2  0      
 54 56  1  0      
M  CHG  5  21  -1  22  -1  35  -1  37  -1  56  -1
M  END
