HexanoylSCoA.mol
  ChemDraw10271516002D

 55 57  0  0  0  0  0  0  0  0999 V2000
   10.5133    1.5523    0.0000 N   0  0  0  0  0  0  0  0  0  0  0  0
   10.3019    0.7548    0.0000 C   0  0  0  0  0  0  0  0  0  0  0  0
    9.5061    0.5371    0.0000 N   0  0  0  0  0  0  0  0  0  0  0  0
    8.9194    1.1198    0.0000 C   0  0  0  0  0  0  0  0  0  0  0  0
    9.1297    1.9178    0.0000 C   0  0  0  0  0  0  0  0  0  0  0  0
    9.9278    2.1344    0.0000 C   0  0  0  0  0  0  0  0  0  0  0  0
    8.0956    1.0728    0.0000 N   0  0  0  0  0  0  0  0  0  0  0  0
    7.7965    1.8422    0.0000 C   0  0  0  0  0  0  0  0  0  0  0  0
    8.4364    2.3647    0.0000 N   0  0  0  0  0  0  0  0  0  0  0  0
   10.1380    2.9319    0.0000 N   0  0  0  0  0  0  0  0  0  0  0  0
    7.6487    0.3796    0.0000 C   0  0  0  0  0  0  0  0  0  0  0  0
    6.8254    0.3320    0.0000 O   0  0  0  0  0  0  0  0  0  0  0  0
    6.6146   -0.4655    0.0000 C   0  0  0  0  0  0  0  0  0  0  0  0
    7.3078   -0.9118    0.0000 C   0  0  0  0  0  0  0  0  0  0  0  0
    7.9478   -0.3904    0.0000 C   0  0  0  0  0  0  0  0  0  0  0  0
    7.3548   -1.7357    0.0000 O   0  0  0  0  0  0  0  0  0  0  0  0
    8.7453   -0.6007    0.0000 O   0  0  0  0  0  0  0  0  0  0  0  0
    5.8457   -0.7640    0.0000 C   0  0  0  0  0  0  0  0  0  0  0  0
    5.2018   -0.2472    0.0000 O   0  0  0  0  0  0  0  0  0  0  0  0
    8.0910   -2.1075    0.0000 P   0  0  0  0  0  0  0  0  0  0  0  0
    8.0944   -2.9319    0.0000 O   0  5  0  0  0  0  0  0  0  0  0  0
    8.6731   -1.5214    0.0000 O   0  5  0  0  0  0  0  0  0  0  0  0
    8.5069   -2.8208    0.0000 O   0  0  0  0  0  0  0  0  0  0  0  0
    4.4885   -0.6632    0.0000 P   0  0  0  0  0  0  0  0  0  0  0  0
    3.7723   -0.2524    0.0000 O   0  0  0  0  0  0  0  0  0  0  0  0
    3.0591   -0.6677    0.0000 P   0  0  0  0  0  0  0  0  0  0  0  0
    2.3429   -0.2581    0.0000 O   0  0  0  0  0  0  0  0  0  0  0  0
    1.6296   -0.6729    0.0000 C   0  0  0  0  0  0  0  0  0  0  0  0
    0.9135   -0.2633    0.0000 C   0  0  0  0  0  0  0  0  0  0  0  0
    0.2008   -0.6786    0.0000 C   0  0  0  0  0  0  0  0  0  0  0  0
   -0.5154   -0.2690    0.0000 C   0  0  0  0  0  0  0  0  0  0  0  0
   -1.2287   -0.6838    0.0000 N   0  0  0  0  0  0  0  0  0  0  0  0
   -1.9448   -0.2736    0.0000 C   0  0  0  0  0  0  0  0  0  0  0  0
   -2.6581   -0.6884    0.0000 C   0  0  0  0  0  0  0  0  0  0  0  0
    4.2782   -1.4607    0.0000 O   0  5  0  0  0  0  0  0  0  0  0  0
    4.7050   -1.4589    0.0000 O   0  0  0  0  0  0  0  0  0  0  0  0
    2.8488   -1.4664    0.0000 O   0  5  0  0  0  0  0  0  0  0  0  0
    3.2756   -1.4647    0.0000 O   0  0  0  0  0  0  0  0  0  0  0  0
    0.6975    0.5337    0.0000 C   0  0  0  0  0  0  0  0  0  0  0  0
    1.1249    0.5342    0.0000 C   0  0  0  0  0  0  0  0  0  0  0  0
    0.2036   -1.5036    0.0000 C   0  0  0  0  0  0  0  0  0  0  0  0
   -0.5177    0.5572    0.0000 O   0  0  0  0  0  0  0  0  0  0  0  0
   -3.3742   -0.2787    0.0000 C   0  0  0  0  0  0  0  0  0  0  0  0
   -4.0875   -0.6941    0.0000 N   0  0  0  0  0  0  0  0  0  0  0  0
   -4.8037   -0.2845    0.0000 C   0  0  0  0  0  0  0  0  0  0  0  0
   -3.3771    0.5463    0.0000 O   0  0  0  0  0  0  0  0  0  0  0  0
   -5.5164   -0.6992    0.0000 C   0  0  0  0  0  0  0  0  0  0  0  0
   -6.2337   -0.2896    0.0000 S   0  0  0  0  0  0  0  0  0  0  0  0
   -6.9462   -0.7055    0.0000 C   0  0  0  0  0  0  0  0  0  0  0  0
   -6.9423   -1.5305    0.0000 O   0  0  0  0  0  0  0  0  0  0  0  0
   -7.6626   -0.2963    0.0000 C   0  0  0  0  0  0  0  0  0  0  0  0
   -8.3751   -0.7122    0.0000 C   0  0  0  0  0  0  0  0  0  0  0  0
   -9.0915   -0.3031    0.0000 C   0  0  0  0  0  0  0  0  0  0  0  0
   -9.7611   -0.7850    0.0000 C   0  0  0  0  0  0  0  0  0  0  0  0
  -10.5133   -0.4462    0.0000 C   0  0  0  0  0  0  0  0  0  0  0  0
  1  2  1  0      
  2  3  2  0      
  3  4  1  0      
  4  5  2  0      
  5  6  1  0      
  1  6  2  0      
  4  7  1  0      
  7  8  1  0      
  8  9  2  0      
  5  9  1  0      
  6 10  1  0      
 11  7  1  1      
 11 12  1  0      
 12 13  1  0      
 13 14  1  0      
 14 15  1  0      
 15 11  1  0      
 14 16  1  6      
 15 17  1  6      
 13 18  1  1      
 18 19  1  0      
 16 20  1  0      
 20 21  1  0      
 20 22  1  0      
 20 23  2  0      
 19 24  1  0      
 24 25  1  0      
 25 26  1  0      
 26 27  1  0      
 27 28  1  0      
 28 29  1  0      
 29 30  1  0      
 30 31  1  0      
 31 32  1  0      
 32 33  1  0      
 33 34  1  0      
 24 35  1  0      
 24 36  2  0      
 26 37  1  0      
 26 38  2  0      
 29 39  1  6      
 29 40  1  1      
 30 41  1  1      
 31 42  2  0      
 34 43  1  0      
 43 44  1  0      
 44 45  1  0      
 43 46  2  0      
 45 47  1  0      
 47 48  1  0      
 48 49  1  0      
 49 50  2  0      
 49 51  1  0      
 51 52  1  0      
 52 53  1  0      
 53 54  1  0      
 54 55  1  0      
M  CHG  4  21  -1  22  -1  35  -1  37  -1
M  END
