HSCoA.mol
  ChemDraw10281522092D

 48 50  0  0  0  0  0  0  0  0999 V2000
    8.3795    1.5534    0.0000 N   0  0  0  0  0  0  0  0  0  0  0  0
    8.1679    0.7553    0.0000 C   0  0  0  0  0  0  0  0  0  0  0  0
    7.3715    0.5375    0.0000 N   0  0  0  0  0  0  0  0  0  0  0  0
    6.7845    1.1205    0.0000 C   0  0  0  0  0  0  0  0  0  0  0  0
    6.9949    1.9192    0.0000 C   0  0  0  0  0  0  0  0  0  0  0  0
    7.7936    2.1359    0.0000 C   0  0  0  0  0  0  0  0  0  0  0  0
    5.9600    1.0736    0.0000 N   0  0  0  0  0  0  0  0  0  0  0  0
    5.6607    1.8435    0.0000 C   0  0  0  0  0  0  0  0  0  0  0  0
    6.3012    2.3664    0.0000 N   0  0  0  0  0  0  0  0  0  0  0  0
    8.0039    2.9340    0.0000 N   0  0  0  0  0  0  0  0  0  0  0  0
    5.5128    0.3798    0.0000 C   0  0  0  0  0  0  0  0  0  0  0  0
    4.6889    0.3322    0.0000 O   0  0  0  0  0  0  0  0  0  0  0  0
    4.4780   -0.4658    0.0000 C   0  0  0  0  0  0  0  0  0  0  0  0
    5.1717   -0.9125    0.0000 C   0  0  0  0  0  0  0  0  0  0  0  0
    5.8121   -0.3908    0.0000 C   0  0  0  0  0  0  0  0  0  0  0  0
    5.2187   -1.7369    0.0000 O   0  0  0  0  0  0  0  0  0  0  0  0
    6.6102   -0.6011    0.0000 O   0  0  0  0  0  0  0  0  0  0  0  0
    3.7086   -0.7645    0.0000 C   0  0  0  0  0  0  0  0  0  0  0  0
    3.0642   -0.2474    0.0000 O   0  0  0  0  0  0  0  0  0  0  0  0
    5.9554   -2.1090    0.0000 P   0  0  0  0  0  0  0  0  0  0  0  0
    5.9588   -2.9340    0.0000 O   0  5  0  0  0  0  0  0  0  0  0  0
    6.5380   -1.5225    0.0000 O   0  5  0  0  0  0  0  0  0  0  0  0
    6.3716   -2.8228    0.0000 O   0  0  0  0  0  0  0  0  0  0  0  0
    2.3503   -0.6637    0.0000 P   0  0  0  0  0  0  0  0  0  0  0  0
    1.6337   -0.2526    0.0000 O   0  0  0  0  0  0  0  0  0  0  0  0
    0.9199   -0.6683    0.0000 P   0  0  0  0  0  0  0  0  0  0  0  0
    0.2032   -0.2583    0.0000 O   0  0  0  0  0  0  0  0  0  0  0  0
   -0.5105   -0.6734    0.0000 C   0  0  0  0  0  0  0  0  0  0  0  0
   -1.2272   -0.2635    0.0000 C   0  0  0  0  0  0  0  0  0  0  0  0
   -1.9404   -0.6791    0.0000 C   0  0  0  0  0  0  0  0  0  0  0  0
   -2.6571   -0.2692    0.0000 C   0  0  0  0  0  0  0  0  0  0  0  0
   -3.3709   -0.6843    0.0000 N   0  0  0  0  0  0  0  0  0  0  0  0
   -4.0876   -0.2738    0.0000 C   0  0  0  0  0  0  0  0  0  0  0  0
   -4.8014   -0.6889    0.0000 C   0  0  0  0  0  0  0  0  0  0  0  0
    2.1400   -1.4618    0.0000 O   0  5  0  0  0  0  0  0  0  0  0  0
    2.5671   -1.4600    0.0000 O   0  0  0  0  0  0  0  0  0  0  0  0
    0.7095   -1.4675    0.0000 O   0  5  0  0  0  0  0  0  0  0  0  0
    1.1366   -1.4658    0.0000 O   0  0  0  0  0  0  0  0  0  0  0  0
   -1.4434    0.5340    0.0000 C   0  0  0  0  0  0  0  0  0  0  0  0
   -1.0157    0.5346    0.0000 C   0  0  0  0  0  0  0  0  0  0  0  0
   -1.9375   -1.5047    0.0000 C   0  0  0  0  0  0  0  0  0  0  0  0
   -2.6594    0.5575    0.0000 O   0  0  0  0  0  0  0  0  0  0  0  0
   -5.5180   -0.2790    0.0000 C   0  0  0  0  0  0  0  0  0  0  0  0
   -6.2318   -0.6946    0.0000 N   0  0  0  0  0  0  0  0  0  0  0  0
   -6.9484   -0.2847    0.0000 C   0  0  0  0  0  0  0  0  0  0  0  0
   -5.5209    0.5466    0.0000 O   0  0  0  0  0  0  0  0  0  0  0  0
   -7.6617   -0.6998    0.0000 C   0  0  0  0  0  0  0  0  0  0  0  0
   -8.3795   -0.2898    0.0000 S   0  0  0  0  0  0  0  0  0  0  0  0
  1  2  1  0      
  2  3  2  0      
  3  4  1  0      
  4  5  2  0      
  5  6  1  0      
  1  6  2  0      
  4  7  1  0      
  7  8  1  0      
  8  9  2  0      
  5  9  1  0      
  6 10  1  0      
 11  7  1  1      
 11 12  1  0      
 12 13  1  0      
 13 14  1  0      
 14 15  1  0      
 15 11  1  0      
 14 16  1  6      
 15 17  1  6      
 13 18  1  1      
 18 19  1  0      
 16 20  1  0      
 20 21  1  0      
 20 22  1  0      
 20 23  2  0      
 19 24  1  0      
 24 25  1  0      
 25 26  1  0      
 26 27  1  0      
 27 28  1  0      
 28 29  1  0      
 29 30  1  0      
 30 31  1  0      
 31 32  1  0      
 32 33  1  0      
 33 34  1  0      
 24 35  1  0      
 24 36  2  0      
 26 37  1  0      
 26 38  2  0      
 29 39  1  6      
 29 40  1  1      
 30 41  1  1      
 31 42  2  0      
 34 43  1  0      
 43 44  1  0      
 44 45  1  0      
 43 46  2  0      
 45 47  1  0      
 47 48  1  0      
M  CHG  4  21  -1  22  -1  35  -1  37  -1
M  END
