baseMalonylSCoA.mol
  ChemDraw10271516042D

 54 56  0  0  0  0  0  0  0  0999 V2000
    9.7890    1.5523    0.0000 N   0  0  0  0  0  0  0  0  0  0  0  0
    9.5776    0.7548    0.0000 C   0  0  0  0  0  0  0  0  0  0  0  0
    8.7818    0.5371    0.0000 N   0  0  0  0  0  0  0  0  0  0  0  0
    8.1951    1.1198    0.0000 C   0  0  0  0  0  0  0  0  0  0  0  0
    8.4054    1.9178    0.0000 C   0  0  0  0  0  0  0  0  0  0  0  0
    9.2035    2.1344    0.0000 C   0  0  0  0  0  0  0  0  0  0  0  0
    7.3665    1.0654    0.0000 N   0  0  0  0  0  0  0  0  0  0  0  0
    7.0722    1.8422    0.0000 C   0  0  0  0  0  0  0  0  0  0  0  0
    7.7122    2.3647    0.0000 N   0  0  0  0  0  0  0  0  0  0  0  0
    9.4137    2.9319    0.0000 N   0  0  0  0  0  0  0  0  0  0  0  0
    6.9244    0.3796    0.0000 C   0  0  0  0  0  0  0  0  0  0  0  0
    6.1011    0.3320    0.0000 O   0  0  0  0  0  0  0  0  0  0  0  0
    5.8903   -0.4655    0.0000 C   0  0  0  0  0  0  0  0  0  0  0  0
    6.5835   -0.9118    0.0000 C   0  0  0  0  0  0  0  0  0  0  0  0
    7.2235   -0.3904    0.0000 C   0  0  0  0  0  0  0  0  0  0  0  0
    6.6305   -1.7357    0.0000 O   0  0  0  0  0  0  0  0  0  0  0  0
    8.0210   -0.6007    0.0000 O   0  0  0  0  0  0  0  0  0  0  0  0
    5.1214   -0.7640    0.0000 C   0  0  0  0  0  0  0  0  0  0  0  0
    4.4775   -0.2472    0.0000 O   0  0  0  0  0  0  0  0  0  0  0  0
    7.3667   -2.1075    0.0000 P   0  0  0  0  0  0  0  0  0  0  0  0
    7.3701   -2.9319    0.0000 O   0  5  0  0  0  0  0  0  0  0  0  0
    7.9488   -1.5214    0.0000 O   0  5  0  0  0  0  0  0  0  0  0  0
    7.7826   -2.8208    0.0000 O   0  0  0  0  0  0  0  0  0  0  0  0
    3.7642   -0.6632    0.0000 P   0  0  0  0  0  0  0  0  0  0  0  0
    3.0481   -0.2524    0.0000 O   0  0  0  0  0  0  0  0  0  0  0  0
    2.3348   -0.6677    0.0000 P   0  0  0  0  0  0  0  0  0  0  0  0
    1.6186   -0.2581    0.0000 O   0  0  0  0  0  0  0  0  0  0  0  0
    0.9053   -0.6729    0.0000 C   0  0  0  0  0  0  0  0  0  0  0  0
    0.1892   -0.2633    0.0000 C   0  0  0  0  0  0  0  0  0  0  0  0
   -0.5235   -0.6786    0.0000 C   0  0  0  0  0  0  0  0  0  0  0  0
   -1.2397   -0.2690    0.0000 C   0  0  0  0  0  0  0  0  0  0  0  0
   -1.9529   -0.6838    0.0000 N   0  0  0  0  0  0  0  0  0  0  0  0
   -2.6691   -0.2736    0.0000 C   0  0  0  0  0  0  0  0  0  0  0  0
   -3.3811   -0.6846    0.0000 C   0  0  0  0  0  0  0  0  0  0  0  0
    3.5539   -1.4607    0.0000 O   0  5  0  0  0  0  0  0  0  0  0  0
    3.9808   -1.4589    0.0000 O   0  0  0  0  0  0  0  0  0  0  0  0
    2.1245   -1.4664    0.0000 O   0  5  0  0  0  0  0  0  0  0  0  0
    2.5513   -1.4647    0.0000 O   0  0  0  0  0  0  0  0  0  0  0  0
   -0.0268    0.5337    0.0000 C   0  0  0  0  0  0  0  0  0  0  0  0
    0.4006    0.5342    0.0000 C   0  0  0  0  0  0  0  0  0  0  0  0
   -0.5206   -1.5036    0.0000 C   0  0  0  0  0  0  0  0  0  0  0  0
   -1.2420    0.5572    0.0000 O   0  0  0  0  0  0  0  0  0  0  0  0
   -4.0931   -0.2736    0.0000 C   0  0  0  0  0  0  0  0  0  0  0  0
   -4.8051   -0.6846    0.0000 N   0  0  0  0  0  0  0  0  0  0  0  0
   -5.5170   -0.2736    0.0000 C   0  0  0  0  0  0  0  0  0  0  0  0
   -4.0931    0.5486    0.0000 O   0  0  0  0  0  0  0  0  0  0  0  0
   -6.2290   -0.6846    0.0000 C   0  0  0  0  0  0  0  0  0  0  0  0
   -6.9410   -0.2736    0.0000 S   0  0  0  0  0  0  0  0  0  0  0  0
   -7.6530   -0.6846    0.0000 C   0  0  0  0  0  0  0  0  0  0  0  0
   -8.3650   -0.2736    0.0000 C   0  0  0  0  0  0  0  0  0  0  0  0
   -9.0770   -0.6846    0.0000 C   0  0  0  0  0  0  0  0  0  0  0  0
   -9.7890   -0.2736    0.0000 O   0  5  0  0  0  0  0  0  0  0  0  0
   -7.6530   -1.5068    0.0000 O   0  0  0  0  0  0  0  0  0  0  0  0
   -9.0770   -1.5068    0.0000 O   0  0  0  0  0  0  0  0  0  0  0  0
  1  2  1  0      
  2  3  2  0      
  3  4  1  0      
  4  5  2  0      
  5  6  1  0      
  1  6  2  0      
  4  7  1  0      
  7  8  1  0      
  8  9  2  0      
  5  9  1  0      
  6 10  1  0      
 11  7  1  1      
 11 12  1  0      
 12 13  1  0      
 13 14  1  0      
 14 15  1  0      
 15 11  1  0      
 14 16  1  6      
 15 17  1  6      
 13 18  1  1      
 18 19  1  0      
 16 20  1  0      
 20 21  1  0      
 20 22  1  0      
 20 23  2  0      
 19 24  1  0      
 24 25  1  0      
 25 26  1  0      
 26 27  1  0      
 27 28  1  0      
 28 29  1  0      
 29 30  1  0      
 30 31  1  0      
 31 32  1  0      
 32 33  1  0      
 33 34  1  0      
 24 35  1  0      
 24 36  2  0      
 26 37  1  0      
 26 38  2  0      
 29 39  1  6      
 29 40  1  1      
 30 41  1  1      
 31 42  2  0      
 34 43  1  0      
 43 44  1  0      
 44 45  1  0      
 43 46  2  0      
 45 47  1  0      
 47 48  1  0      
 49 50  1  0      
 50 51  1  0      
 51 52  1  0      
 49 53  2  0      
 51 54  2  0      
 48 49  1  0      
M  CHG  5  21  -1  22  -1  35  -1  37  -1  52  -1
M  END
