NAD.mol
  ChemDraw10281522082D

 44 48  0  0  0  0  0  0  0  0999 V2000
   -2.4037    3.0893    0.0000 N   0  3  0  0  0  0  0  0  0  0  0  0
   -2.6998    2.3189    0.0000 C   0  0  0  0  0  0  0  0  0  0  0  0
   -2.2503    1.6267    0.0000 O   0  0  0  0  0  0  0  0  0  0  0  0
   -2.7694    0.9857    0.0000 C   0  0  0  0  0  0  0  0  0  0  0  0
   -3.5398    1.2812    0.0000 C   0  0  0  0  0  0  0  0  0  0  0  0
   -3.4967    2.1057    0.0000 C   0  0  0  0  0  0  0  0  0  0  0  0
   -4.2315    0.8323    0.0000 O   0  0  0  0  0  0  0  0  0  0  0  0
   -4.1377    2.6248    0.0000 O   0  0  0  0  0  0  0  0  0  0  0  0
   -2.5561    0.1889    0.0000 C   0  0  0  0  0  0  0  0  0  0  0  0
   -1.5890    3.2182    0.0000 C   0  0  0  0  0  0  0  0  0  0  0  0
   -1.2935    3.9886    0.0000 C   0  0  0  0  0  0  0  0  0  0  0  0
   -1.8127    4.6296    0.0000 C   0  0  0  0  0  0  0  0  0  0  0  0
   -2.6274    4.5008    0.0000 C   0  0  0  0  0  0  0  0  0  0  0  0
   -2.9229    3.7304    0.0000 C   0  0  0  0  0  0  0  0  0  0  0  0
   -0.4783    4.1173    0.0000 C   0  0  0  0  0  0  0  0  0  0  0  0
   -0.1828    4.8877    0.0000 N   0  0  0  0  0  0  0  0  0  0  0  0
    0.0408    3.4763    0.0000 O   0  0  0  0  0  0  0  0  0  0  0  0
    2.9580   -0.7931    0.0000 N   0  0  0  0  0  0  0  0  0  0  0  0
    2.1341   -0.8362    0.0000 C   0  0  0  0  0  0  0  0  0  0  0  0
    1.7592   -1.5715    0.0000 N   0  0  0  0  0  0  0  0  0  0  0  0
    2.2089   -2.2632    0.0000 C   0  0  0  0  0  0  0  0  0  0  0  0
    3.0328   -2.2201    0.0000 C   0  0  0  0  0  0  0  0  0  0  0  0
    3.4076   -1.4853    0.0000 C   0  0  0  0  0  0  0  0  0  0  0  0
    1.9956   -3.0600    0.0000 N   0  0  0  0  0  0  0  0  0  0  0  0
    2.6872   -3.5096    0.0000 C   0  0  0  0  0  0  0  0  0  0  0  0
    3.3282   -2.9905    0.0000 N   0  0  0  0  0  0  0  0  0  0  0  0
    4.2315   -1.4416    0.0000 N   0  0  0  0  0  0  0  0  0  0  0  0
    1.2252   -3.3561    0.0000 C   0  0  0  0  0  0  0  0  0  0  0  0
    0.5330   -2.9065    0.0000 O   0  0  0  0  0  0  0  0  0  0  0  0
   -0.1081   -3.4257    0.0000 C   0  0  0  0  0  0  0  0  0  0  0  0
    0.1875   -4.1961    0.0000 C   0  0  0  0  0  0  0  0  0  0  0  0
    1.0119   -4.1529    0.0000 C   0  0  0  0  0  0  0  0  0  0  0  0
   -0.2616   -4.8877    0.0000 O   0  0  0  0  0  0  0  0  0  0  0  0
    1.5310   -4.7940    0.0000 O   0  0  0  0  0  0  0  0  0  0  0  0
   -3.1391   -0.3946    0.0000 O   0  0  0  0  0  0  0  0  0  0  0  0
   -2.9258   -1.1915    0.0000 P   0  0  0  0  0  0  0  0  0  0  0  0
   -2.1289   -1.4049    0.0000 O   0  0  0  0  0  0  0  0  0  0  0  0
   -3.3398   -1.9084    0.0000 O   0  0  0  0  0  0  0  0  0  0  0  0
   -3.6427   -1.6055    0.0000 O   0  5  0  0  0  0  0  0  0  0  0  0
   -1.9151   -2.2016    0.0000 P   0  0  0  0  0  0  0  0  0  0  0  0
   -1.1182   -2.4155    0.0000 O   0  0  0  0  0  0  0  0  0  0  0  0
   -2.3290   -2.9186    0.0000 O   0  0  0  0  0  0  0  0  0  0  0  0
   -2.6320   -2.6271    0.0000 O   0  5  0  0  0  0  0  0  0  0  0  0
   -0.9050   -3.2124    0.0000 C   0  0  0  0  0  0  0  0  0  0  0  0
  2  1  1  6      
  2  3  1  0      
  3  4  1  0      
  4  5  1  0      
  5  6  1  0      
  6  2  1  0      
  5  7  1  1      
  6  8  1  1      
  4  9  1  6      
  1 10  2  0      
 10 11  1  0      
 11 12  2  0      
 12 13  1  0      
 13 14  2  0      
 14  1  1  0      
 11 15  1  0      
 15 16  1  0      
 15 17  2  0      
 18 19  1  0      
 19 20  2  0      
 20 21  1  0      
 21 22  2  0      
 22 23  1  0      
 18 23  2  0      
 21 24  1  0      
 24 25  1  0      
 25 26  2  0      
 22 26  1  0      
 23 27  1  0      
 28 24  1  1      
 28 29  1  0      
 29 30  1  0      
 30 31  1  0      
 31 32  1  0      
 32 28  1  0      
 31 33  1  6      
 32 34  1  6      
  9 35  1  0      
 35 36  1  0      
 36 37  1  0      
 36 38  2  0      
 36 39  1  0      
 37 40  1  0      
 40 41  1  0      
 40 42  2  0      
 40 43  1  0      
 41 44  1  0      
 30 44  1  1      
M  CHG  3   1   1  39  -1  43  -1
M  END
