NADH.mol
  ChemDraw10281522182D

 44 48  0  0  0  0  0  0  0  0999 V2000
   -2.3954    3.0786    0.0000 N   0  0  0  0  0  0  0  0  0  0  0  0
   -2.6904    2.3109    0.0000 C   0  0  0  0  0  0  0  0  0  0  0  0
   -2.2424    1.6211    0.0000 O   0  0  0  0  0  0  0  0  0  0  0  0
   -2.7597    0.9823    0.0000 C   0  0  0  0  0  0  0  0  0  0  0  0
   -3.5274    1.2767    0.0000 C   0  0  0  0  0  0  0  0  0  0  0  0
   -3.4845    2.0983    0.0000 C   0  0  0  0  0  0  0  0  0  0  0  0
   -4.2167    0.8293    0.0000 O   0  0  0  0  0  0  0  0  0  0  0  0
   -4.1233    2.6157    0.0000 O   0  0  0  0  0  0  0  0  0  0  0  0
   -2.5472    0.1882    0.0000 C   0  0  0  0  0  0  0  0  0  0  0  0
   -1.5835    3.2069    0.0000 C   0  0  0  0  0  0  0  0  0  0  0  0
   -1.2891    3.9746    0.0000 C   0  0  0  0  0  0  0  0  0  0  0  0
   -1.8064    4.6134    0.0000 C   0  0  0  0  0  0  0  0  0  0  0  0
   -2.6182    4.4851    0.0000 C   0  0  0  0  0  0  0  0  0  0  0  0
   -2.9127    3.7174    0.0000 C   0  0  0  0  0  0  0  0  0  0  0  0
   -0.4767    4.1029    0.0000 C   0  0  0  0  0  0  0  0  0  0  0  0
   -0.1822    4.8707    0.0000 N   0  0  0  0  0  0  0  0  0  0  0  0
    0.0407    3.4641    0.0000 O   0  0  0  0  0  0  0  0  0  0  0  0
    2.9477   -0.7903    0.0000 N   0  0  0  0  0  0  0  0  0  0  0  0
    2.1267   -0.8333    0.0000 C   0  0  0  0  0  0  0  0  0  0  0  0
    1.7531   -1.5661    0.0000 N   0  0  0  0  0  0  0  0  0  0  0  0
    2.2011   -2.2553    0.0000 C   0  0  0  0  0  0  0  0  0  0  0  0
    3.0221   -2.2123    0.0000 C   0  0  0  0  0  0  0  0  0  0  0  0
    3.3957   -1.4801    0.0000 C   0  0  0  0  0  0  0  0  0  0  0  0
    1.9886   -3.0494    0.0000 N   0  0  0  0  0  0  0  0  0  0  0  0
    2.6778   -3.4974    0.0000 C   0  0  0  0  0  0  0  0  0  0  0  0
    3.3166   -2.9800    0.0000 N   0  0  0  0  0  0  0  0  0  0  0  0
    4.2167   -1.4366    0.0000 N   0  0  0  0  0  0  0  0  0  0  0  0
    1.2209   -3.3444    0.0000 C   0  0  0  0  0  0  0  0  0  0  0  0
    0.5311   -2.8964    0.0000 O   0  0  0  0  0  0  0  0  0  0  0  0
   -0.1077   -3.4137    0.0000 C   0  0  0  0  0  0  0  0  0  0  0  0
    0.1868   -4.1814    0.0000 C   0  0  0  0  0  0  0  0  0  0  0  0
    1.0083   -4.1385    0.0000 C   0  0  0  0  0  0  0  0  0  0  0  0
   -0.2607   -4.8707    0.0000 O   0  0  0  0  0  0  0  0  0  0  0  0
    1.5257   -4.7773    0.0000 O   0  0  0  0  0  0  0  0  0  0  0  0
   -3.1281   -0.3933    0.0000 O   0  0  0  0  0  0  0  0  0  0  0  0
   -2.9156   -1.1874    0.0000 P   0  0  0  0  0  0  0  0  0  0  0  0
   -2.1215   -1.3999    0.0000 O   0  0  0  0  0  0  0  0  0  0  0  0
   -3.3281   -1.9018    0.0000 O   0  0  0  0  0  0  0  0  0  0  0  0
   -3.6300   -1.6113    0.0000 O   0  5  0  0  0  0  0  0  0  0  0  0
   -1.9084   -2.1940    0.0000 P   0  0  0  0  0  0  0  0  0  0  0  0
   -1.1143   -2.4071    0.0000 O   0  0  0  0  0  0  0  0  0  0  0  0
   -2.3209   -2.9084    0.0000 O   0  0  0  0  0  0  0  0  0  0  0  0
   -2.6228   -2.6065    0.0000 O   0  5  0  0  0  0  0  0  0  0  0  0
   -0.9018   -3.2012    0.0000 C   0  0  0  0  0  0  0  0  0  0  0  0
  2  1  1  6      
  2  3  1  0      
  3  4  1  0      
  4  5  1  0      
  5  6  1  0      
  6  2  1  0      
  5  7  1  1      
  6  8  1  1      
  4  9  1  6      
  1 10  1  0      
 10 11  2  0      
 11 12  1  0      
 12 13  1  0      
 13 14  2  0      
 14  1  1  0      
 11 15  1  0      
 15 16  1  0      
 15 17  2  0      
 18 19  1  0      
 19 20  2  0      
 20 21  1  0      
 21 22  2  0      
 22 23  1  0      
 18 23  2  0      
 21 24  1  0      
 24 25  1  0      
 25 26  2  0      
 22 26  1  0      
 23 27  1  0      
 28 24  1  1      
 28 29  1  0      
 29 30  1  0      
 30 31  1  0      
 31 32  1  0      
 32 28  1  0      
 31 33  1  6      
 32 34  1  6      
  9 35  1  0      
 35 36  1  0      
 36 37  1  0      
 36 38  2  0      
 36 39  1  0      
 37 40  1  0      
 40 41  1  0      
 40 42  2  0      
 40 43  1  0      
 41 44  1  0      
 30 44  1  1      
M  CHG  2  39  -1  43  -1
M  END
