NADPH.mol
  ChemDraw10281522082D

 48 52  0  0  0  0  0  0  0  0999 V2000
   -2.4037    3.8410    0.0000 N   0  0  0  0  0  0  0  0  0  0  0  0
   -2.6998    3.0706    0.0000 C   0  0  0  0  0  0  0  0  0  0  0  0
   -2.2502    2.3790    0.0000 O   0  0  0  0  0  0  0  0  0  0  0  0
   -2.7694    1.7380    0.0000 C   0  0  0  0  0  0  0  0  0  0  0  0
   -3.5398    2.0335    0.0000 C   0  0  0  0  0  0  0  0  0  0  0  0
   -3.4966    2.8574    0.0000 C   0  0  0  0  0  0  0  0  0  0  0  0
   -4.2314    1.5840    0.0000 O   0  0  0  0  0  0  0  0  0  0  0  0
   -4.1376    3.3765    0.0000 O   0  0  0  0  0  0  0  0  0  0  0  0
   -2.5560    0.9406    0.0000 C   0  0  0  0  0  0  0  0  0  0  0  0
   -1.5891    3.9699    0.0000 C   0  0  0  0  0  0  0  0  0  0  0  0
   -1.2936    4.7402    0.0000 C   0  0  0  0  0  0  0  0  0  0  0  0
   -1.8128    5.3813    0.0000 C   0  0  0  0  0  0  0  0  0  0  0  0
   -2.6274    5.2525    0.0000 C   0  0  0  0  0  0  0  0  0  0  0  0
   -2.9229    4.4820    0.0000 C   0  0  0  0  0  0  0  0  0  0  0  0
   -0.4783    4.8696    0.0000 C   0  0  0  0  0  0  0  0  0  0  0  0
   -0.1828    5.6394    0.0000 N   0  0  0  0  0  0  0  0  0  0  0  0
    0.0408    4.2280    0.0000 O   0  0  0  0  0  0  0  0  0  0  0  0
    2.9579   -0.0414    0.0000 N   0  0  0  0  0  0  0  0  0  0  0  0
    2.1341   -0.0844    0.0000 C   0  0  0  0  0  0  0  0  0  0  0  0
    1.7593   -0.8192    0.0000 N   0  0  0  0  0  0  0  0  0  0  0  0
    2.2088   -1.5114    0.0000 C   0  0  0  0  0  0  0  0  0  0  0  0
    3.0327   -1.4683    0.0000 C   0  0  0  0  0  0  0  0  0  0  0  0
    3.4075   -0.7330    0.0000 C   0  0  0  0  0  0  0  0  0  0  0  0
    1.9956   -2.3083    0.0000 N   0  0  0  0  0  0  0  0  0  0  0  0
    2.6872   -2.7578    0.0000 C   0  0  0  0  0  0  0  0  0  0  0  0
    3.3282   -2.2381    0.0000 N   0  0  0  0  0  0  0  0  0  0  0  0
    4.2314   -0.6899    0.0000 N   0  0  0  0  0  0  0  0  0  0  0  0
    1.2251   -2.6038    0.0000 C   0  0  0  0  0  0  0  0  0  0  0  0
    0.5330   -2.1547    0.0000 O   0  0  0  0  0  0  0  0  0  0  0  0
   -0.1081   -2.6740    0.0000 C   0  0  0  0  0  0  0  0  0  0  0  0
    0.1874   -3.4437    0.0000 C   0  0  0  0  0  0  0  0  0  0  0  0
    1.0119   -3.4006    0.0000 C   0  0  0  0  0  0  0  0  0  0  0  0
   -0.2616   -4.1359    0.0000 O   0  0  0  0  0  0  0  0  0  0  0  0
    1.5310   -4.0422    0.0000 O   0  0  0  0  0  0  0  0  0  0  0  0
   -3.1391    0.3576    0.0000 O   0  0  0  0  0  0  0  0  0  0  0  0
   -2.9257   -0.4392    0.0000 P   0  0  0  0  0  0  0  0  0  0  0  0
   -2.1290   -0.6530    0.0000 O   0  0  0  0  0  0  0  0  0  0  0  0
   -3.3397   -1.1562    0.0000 O   0  0  0  0  0  0  0  0  0  0  0  0
   -3.6426   -0.8531    0.0000 O   0  5  0  0  0  0  0  0  0  0  0  0
   -1.9150   -1.4499    0.0000 P   0  0  0  0  0  0  0  0  0  0  0  0
   -1.1182   -1.6632    0.0000 O   0  0  0  0  0  0  0  0  0  0  0  0
   -2.6320   -1.8638    0.0000 O   0  5  0  0  0  0  0  0  0  0  0  0
   -2.3290   -2.1668    0.0000 O   0  0  0  0  0  0  0  0  0  0  0  0
   -0.9049   -2.4600    0.0000 C   0  0  0  0  0  0  0  0  0  0  0  0
    1.2343   -4.8149    0.0000 P   0  0  0  0  0  0  0  0  0  0  0  0
    0.4162   -4.9443    0.0000 O   0  5  0  0  0  0  0  0  0  0  0  0
    1.3125   -5.6394    0.0000 O   0  5  0  0  0  0  0  0  0  0  0  0
    1.9512   -5.2288    0.0000 O   0  0  0  0  0  0  0  0  0  0  0  0
  2  1  1  6      
  2  3  1  0      
  3  4  1  0      
  4  5  1  0      
  5  6  1  0      
  6  2  1  0      
  5  7  1  1      
  6  8  1  1      
  4  9  1  6      
  1 10  1  0      
 10 11  2  0      
 11 12  1  0      
 12 13  1  0      
 13 14  2  0      
 14  1  1  0      
 11 15  1  0      
 15 16  1  0      
 15 17  2  0      
 18 19  1  0      
 19 20  2  0      
 20 21  1  0      
 21 22  2  0      
 22 23  1  0      
 18 23  2  0      
 21 24  1  0      
 24 25  1  0      
 25 26  2  0      
 22 26  1  0      
 23 27  1  0      
 28 24  1  1      
 28 29  1  0      
 29 30  1  0      
 30 31  1  0      
 31 32  1  0      
 32 28  1  0      
 31 33  1  6      
 32 34  1  6      
  9 35  1  0      
 35 36  1  0      
 36 37  1  0      
 36 38  2  0      
 36 39  1  0      
 37 40  1  0      
 40 41  1  0      
 40 42  1  0      
 40 43  2  0      
 41 44  1  0      
 30 44  1  1      
 34 45  1  0      
 45 46  1  0      
 45 47  1  0      
 45 48  2  0      
M  CHG  4  39  -1  42  -1  46  -1  47  -1
M  END
