NADP.mol
  ChemDraw10281522082D

 48 52  0  0  0  0  0  0  0  0999 V2000
   -2.4037    3.8384    0.0000 N   0  3  0  0  0  0  0  0  0  0  0  0
   -2.6999    3.0679    0.0000 C   0  0  0  0  0  0  0  0  0  0  0  0
   -2.2502    2.3763    0.0000 O   0  0  0  0  0  0  0  0  0  0  0  0
   -2.7694    1.7353    0.0000 C   0  0  0  0  0  0  0  0  0  0  0  0
   -3.5398    2.0308    0.0000 C   0  0  0  0  0  0  0  0  0  0  0  0
   -3.4966    2.8547    0.0000 C   0  0  0  0  0  0  0  0  0  0  0  0
   -4.2314    1.5813    0.0000 O   0  0  0  0  0  0  0  0  0  0  0  0
   -4.1377    3.3738    0.0000 O   0  0  0  0  0  0  0  0  0  0  0  0
   -2.5561    0.9379    0.0000 C   0  0  0  0  0  0  0  0  0  0  0  0
   -1.5891    3.9672    0.0000 C   0  0  0  0  0  0  0  0  0  0  0  0
   -1.2936    4.7376    0.0000 C   0  0  0  0  0  0  0  0  0  0  0  0
   -1.8128    5.3786    0.0000 C   0  0  0  0  0  0  0  0  0  0  0  0
   -2.6274    5.2498    0.0000 C   0  0  0  0  0  0  0  0  0  0  0  0
   -2.9229    4.4795    0.0000 C   0  0  0  0  0  0  0  0  0  0  0  0
   -0.4783    4.8669    0.0000 C   0  0  0  0  0  0  0  0  0  0  0  0
   -0.1828    5.6367    0.0000 N   0  0  0  0  0  0  0  0  0  0  0  0
    0.0408    4.2253    0.0000 O   0  0  0  0  0  0  0  0  0  0  0  0
    2.9580   -0.0441    0.0000 N   0  0  0  0  0  0  0  0  0  0  0  0
    2.1341   -0.0872    0.0000 C   0  0  0  0  0  0  0  0  0  0  0  0
    1.7593   -0.8219    0.0000 N   0  0  0  0  0  0  0  0  0  0  0  0
    2.2088   -1.5141    0.0000 C   0  0  0  0  0  0  0  0  0  0  0  0
    3.0327   -1.4710    0.0000 C   0  0  0  0  0  0  0  0  0  0  0  0
    3.4075   -0.7357    0.0000 C   0  0  0  0  0  0  0  0  0  0  0  0
    1.9956   -2.3110    0.0000 N   0  0  0  0  0  0  0  0  0  0  0  0
    2.6872   -2.7606    0.0000 C   0  0  0  0  0  0  0  0  0  0  0  0
    3.3282   -2.2409    0.0000 N   0  0  0  0  0  0  0  0  0  0  0  0
    4.2314   -0.6926    0.0000 N   0  0  0  0  0  0  0  0  0  0  0  0
    1.2251   -2.6064    0.0000 C   0  0  0  0  0  0  0  0  0  0  0  0
    0.5330   -2.1575    0.0000 O   0  0  0  0  0  0  0  0  0  0  0  0
   -0.1081   -2.6766    0.0000 C   0  0  0  0  0  0  0  0  0  0  0  0
    0.1874   -3.4465    0.0000 C   0  0  0  0  0  0  0  0  0  0  0  0
    1.0119   -3.4033    0.0000 C   0  0  0  0  0  0  0  0  0  0  0  0
   -0.2616   -4.1387    0.0000 O   0  0  0  0  0  0  0  0  0  0  0  0
    1.5310   -4.0449    0.0000 O   0  0  0  0  0  0  0  0  0  0  0  0
   -3.1391    0.3550    0.0000 O   0  0  0  0  0  0  0  0  0  0  0  0
   -2.9257   -0.4419    0.0000 P   0  0  0  0  0  0  0  0  0  0  0  0
   -2.1290   -0.6557    0.0000 O   0  0  0  0  0  0  0  0  0  0  0  0
   -3.3397   -1.1588    0.0000 O   0  0  0  0  0  0  0  0  0  0  0  0
   -3.6426   -0.8674    0.0000 O   0  5  0  0  0  0  0  0  0  0  0  0
   -1.9150   -1.4526    0.0000 P   0  0  0  0  0  0  0  0  0  0  0  0
   -1.1182   -1.6659    0.0000 O   0  0  0  0  0  0  0  0  0  0  0  0
   -2.3290   -2.1695    0.0000 O   0  0  0  0  0  0  0  0  0  0  0  0
   -2.6320   -1.8666    0.0000 O   0  5  0  0  0  0  0  0  0  0  0  0
   -0.9049   -2.4627    0.0000 C   0  0  0  0  0  0  0  0  0  0  0  0
    1.2344   -4.8176    0.0000 P   0  0  0  0  0  0  0  0  0  0  0  0
    0.4162   -4.9470    0.0000 O   0  5  0  0  0  0  0  0  0  0  0  0
    1.3550   -5.6367    0.0000 O   0  5  0  0  0  0  0  0  0  0  0  0
    1.9512   -5.2316    0.0000 O   0  0  0  0  0  0  0  0  0  0  0  0
  2  1  1  6      
  2  3  1  0      
  3  4  1  0      
  4  5  1  0      
  5  6  1  0      
  6  2  1  0      
  5  7  1  1      
  6  8  1  1      
  4  9  1  6      
  1 10  2  0      
 10 11  1  0      
 11 12  2  0      
 12 13  1  0      
 13 14  2  0      
 14  1  1  0      
 11 15  1  0      
 15 16  1  0      
 15 17  2  0      
 18 19  1  0      
 19 20  2  0      
 20 21  1  0      
 21 22  2  0      
 22 23  1  0      
 18 23  2  0      
 21 24  1  0      
 24 25  1  0      
 25 26  2  0      
 22 26  1  0      
 23 27  1  0      
 28 24  1  1      
 28 29  1  0      
 29 30  1  0      
 30 31  1  0      
 31 32  1  0      
 32 28  1  0      
 31 33  1  6      
 32 34  1  6      
  9 35  1  0      
 35 36  1  0      
 36 37  1  0      
 36 38  2  0      
 36 39  1  0      
 37 40  1  0      
 40 41  1  0      
 40 42  2  0      
 40 43  1  0      
 41 44  1  0      
 30 44  1  1      
 34 45  1  0      
 45 46  1  0      
 45 47  1  0      
 45 48  2  0      
M  CHG  5   1   1  39  -1  43  -1  46  -1  47  -1
M  END
