OctanoylSCoA.mol
  ChemDraw10271516002D

 57 59  0  0  0  0  0  0  0  0999 V2000
   11.2188    1.5523    0.0000 N   0  0  0  0  0  0  0  0  0  0  0  0
   11.0074    0.7548    0.0000 C   0  0  0  0  0  0  0  0  0  0  0  0
   10.2116    0.5371    0.0000 N   0  0  0  0  0  0  0  0  0  0  0  0
    9.6249    1.1198    0.0000 C   0  0  0  0  0  0  0  0  0  0  0  0
    9.8352    1.9178    0.0000 C   0  0  0  0  0  0  0  0  0  0  0  0
   10.6333    2.1344    0.0000 C   0  0  0  0  0  0  0  0  0  0  0  0
    8.7995    1.0703    0.0000 N   0  0  0  0  0  0  0  0  0  0  0  0
    8.5020    1.8422    0.0000 C   0  0  0  0  0  0  0  0  0  0  0  0
    9.1420    2.3647    0.0000 N   0  0  0  0  0  0  0  0  0  0  0  0
   10.8435    2.9319    0.0000 N   0  0  0  0  0  0  0  0  0  0  0  0
    8.3542    0.3796    0.0000 C   0  0  0  0  0  0  0  0  0  0  0  0
    7.5309    0.3320    0.0000 O   0  0  0  0  0  0  0  0  0  0  0  0
    7.3201   -0.4655    0.0000 C   0  0  0  0  0  0  0  0  0  0  0  0
    8.0133   -0.9118    0.0000 C   0  0  0  0  0  0  0  0  0  0  0  0
    8.6533   -0.3904    0.0000 C   0  0  0  0  0  0  0  0  0  0  0  0
    8.0603   -1.7357    0.0000 O   0  0  0  0  0  0  0  0  0  0  0  0
    9.4508   -0.6007    0.0000 O   0  0  0  0  0  0  0  0  0  0  0  0
    6.5512   -0.7640    0.0000 C   0  0  0  0  0  0  0  0  0  0  0  0
    5.9073   -0.2472    0.0000 O   0  0  0  0  0  0  0  0  0  0  0  0
    8.7965   -2.1075    0.0000 P   0  0  0  0  0  0  0  0  0  0  0  0
    8.7999   -2.9319    0.0000 O   0  5  0  0  0  0  0  0  0  0  0  0
    9.3786   -1.5214    0.0000 O   0  5  0  0  0  0  0  0  0  0  0  0
    9.2124   -2.8208    0.0000 O   0  0  0  0  0  0  0  0  0  0  0  0
    5.1940   -0.6632    0.0000 P   0  0  0  0  0  0  0  0  0  0  0  0
    4.4778   -0.2524    0.0000 O   0  0  0  0  0  0  0  0  0  0  0  0
    3.7646   -0.6677    0.0000 P   0  0  0  0  0  0  0  0  0  0  0  0
    3.0484   -0.2581    0.0000 O   0  0  0  0  0  0  0  0  0  0  0  0
    2.3351   -0.6729    0.0000 C   0  0  0  0  0  0  0  0  0  0  0  0
    1.6190   -0.2633    0.0000 C   0  0  0  0  0  0  0  0  0  0  0  0
    0.9063   -0.6786    0.0000 C   0  0  0  0  0  0  0  0  0  0  0  0
    0.1901   -0.2690    0.0000 C   0  0  0  0  0  0  0  0  0  0  0  0
   -0.5232   -0.6838    0.0000 N   0  0  0  0  0  0  0  0  0  0  0  0
   -1.2393   -0.2736    0.0000 C   0  0  0  0  0  0  0  0  0  0  0  0
   -1.9526   -0.6884    0.0000 C   0  0  0  0  0  0  0  0  0  0  0  0
    4.9837   -1.4607    0.0000 O   0  5  0  0  0  0  0  0  0  0  0  0
    5.4105   -1.4589    0.0000 O   0  0  0  0  0  0  0  0  0  0  0  0
    3.5543   -1.4664    0.0000 O   0  5  0  0  0  0  0  0  0  0  0  0
    3.9811   -1.4647    0.0000 O   0  0  0  0  0  0  0  0  0  0  0  0
    1.4030    0.5337    0.0000 C   0  0  0  0  0  0  0  0  0  0  0  0
    1.8304    0.5342    0.0000 C   0  0  0  0  0  0  0  0  0  0  0  0
    0.9091   -1.5036    0.0000 C   0  0  0  0  0  0  0  0  0  0  0  0
    0.1878    0.5572    0.0000 O   0  0  0  0  0  0  0  0  0  0  0  0
   -2.6687   -0.2787    0.0000 C   0  0  0  0  0  0  0  0  0  0  0  0
   -3.3820   -0.6941    0.0000 N   0  0  0  0  0  0  0  0  0  0  0  0
   -4.0982   -0.2845    0.0000 C   0  0  0  0  0  0  0  0  0  0  0  0
   -2.6716    0.5463    0.0000 O   0  0  0  0  0  0  0  0  0  0  0  0
   -4.8109   -0.6992    0.0000 C   0  0  0  0  0  0  0  0  0  0  0  0
   -5.5229   -0.2882    0.0000 S   0  0  0  0  0  0  0  0  0  0  0  0
   -6.2348   -0.6992    0.0000 C   0  0  0  0  0  0  0  0  0  0  0  0
   -6.2348   -1.5214    0.0000 O   0  0  0  0  0  0  0  0  0  0  0  0
   -6.9468   -0.2882    0.0000 C   0  0  0  0  0  0  0  0  0  0  0  0
   -7.6588   -0.6992    0.0000 C   0  0  0  0  0  0  0  0  0  0  0  0
   -8.3708   -0.2882    0.0000 C   0  0  0  0  0  0  0  0  0  0  0  0
   -9.0828   -0.6992    0.0000 C   0  0  0  0  0  0  0  0  0  0  0  0
   -9.7948   -0.2882    0.0000 C   0  0  0  0  0  0  0  0  0  0  0  0
  -10.5068   -0.6992    0.0000 C   0  0  0  0  0  0  0  0  0  0  0  0
  -11.2188   -0.2882    0.0000 C   0  0  0  0  0  0  0  0  0  0  0  0
  1  2  1  0      
  2  3  2  0      
  3  4  1  0      
  4  5  2  0      
  5  6  1  0      
  1  6  2  0      
  4  7  1  0      
  7  8  1  0      
  8  9  2  0      
  5  9  1  0      
  6 10  1  0      
 11  7  1  1      
 11 12  1  0      
 12 13  1  0      
 13 14  1  0      
 14 15  1  0      
 15 11  1  0      
 14 16  1  6      
 15 17  1  6      
 13 18  1  1      
 18 19  1  0      
 16 20  1  0      
 20 21  1  0      
 20 22  1  0      
 20 23  2  0      
 19 24  1  0      
 24 25  1  0      
 25 26  1  0      
 26 27  1  0      
 27 28  1  0      
 28 29  1  0      
 29 30  1  0      
 30 31  1  0      
 31 32  1  0      
 32 33  1  0      
 33 34  1  0      
 24 35  1  0      
 24 36  2  0      
 26 37  1  0      
 26 38  2  0      
 29 39  1  6      
 29 40  1  1      
 30 41  1  1      
 31 42  2  0      
 34 43  1  0      
 43 44  1  0      
 44 45  1  0      
 43 46  2  0      
 45 47  1  0      
 47 48  1  0      
 48 49  1  0      
 49 50  2  0      
 49 51  1  0      
 51 52  1  0      
 52 53  1  0      
 53 54  1  0      
 54 55  1  0      
 55 56  1  0      
 56 57  1  0      
M  CHG  4  21  -1  22  -1  35  -1  37  -1
M  END
