OctylCTB.mol
  ChemDraw10271515562D

 31 32  0  0  0  0  0  0  0  0999 V2000
   -3.2040   -1.6443    0.0000 C   0  0  0  0  0  0  0  0  0  0  0  0
   -3.2040   -0.8221    0.0000 C   0  0  0  0  0  0  0  0  0  0  0  0
   -2.4920   -0.4111    0.0000 C   0  0  0  0  0  0  0  0  0  0  0  0
   -1.7800   -0.8221    0.0000 C   0  0  0  0  0  0  0  0  0  0  0  0
   -1.7800   -1.6443    0.0000 C   0  0  0  0  0  0  0  0  0  0  0  0
   -2.4920   -2.0553    0.0000 C   0  0  0  0  0  0  0  0  0  0  0  0
   -1.0680   -2.0553    0.0000 C   0  0  0  0  0  0  0  0  0  0  0  0
   -0.3560   -1.6443    0.0000 N   0  0  0  0  0  0  0  0  0  0  0  0
    0.3560   -2.0553    0.0000 C   0  0  0  0  0  0  0  0  0  0  0  0
    0.3560   -2.8775    0.0000 C   0  0  0  0  0  0  0  0  0  0  0  0
    1.0680   -1.6443    0.0000 C   0  0  0  0  0  0  0  0  0  0  0  0
    1.0680   -3.2885    0.0000 C   0  0  0  0  0  0  0  0  0  0  0  0
    1.7800   -2.8775    0.0000 C   0  0  0  0  0  0  0  0  0  0  0  0
    2.4920   -3.2885    0.0000 Cl  0  0  0  0  0  0  0  0  0  0  0  0
    1.7800   -2.0553    0.0000 C   0  0  0  0  0  0  0  0  0  0  0  0
   -1.0680   -2.8775    0.0000 O   0  0  0  0  0  0  0  0  0  0  0  0
   -2.4920   -2.8775    0.0000 O   0  0  0  0  0  0  0  0  0  0  0  0
   -3.2040   -3.2885    0.0000 C   0  0  0  0  0  0  0  0  0  0  0  0
   -3.2040   -4.1107    0.0000 C   0  0  0  0  0  0  0  0  0  0  0  0
    2.4920   -1.6443    0.0000 C   0  0  0  0  0  0  0  0  0  0  0  0
    2.4920   -0.8221    0.0000 F   0  0  0  0  0  0  0  0  0  0  0  0
    3.2040   -1.2332    0.0000 F   0  0  0  0  0  0  0  0  0  0  0  0
    3.2040   -2.0553    0.0000 F   0  0  0  0  0  0  0  0  0  0  0  0
   -1.0680   -0.4111    0.0000 C   0  0  0  0  0  0  0  0  0  0  0  0
   -1.0680    0.4111    0.0000 C   0  0  0  0  0  0  0  0  0  0  0  0
   -0.3560    0.8221    0.0000 C   0  0  0  0  0  0  0  0  0  0  0  0
   -0.3560    1.6443    0.0000 C   0  0  0  0  0  0  0  0  0  0  0  0
    0.3560    2.0553    0.0000 C   0  0  0  0  0  0  0  0  0  0  0  0
    0.3560    2.8775    0.0000 C   0  0  0  0  0  0  0  0  0  0  0  0
    1.0680    3.2885    0.0000 C   0  0  0  0  0  0  0  0  0  0  0  0
    1.0680    4.1107    0.0000 C   0  0  0  0  0  0  0  0  0  0  0  0
  1  2  2  0      
  2  3  1  0      
  3  4  2  0      
  4  5  1  0      
  5  6  2  0      
  6  1  1  0      
  5  7  1  0      
  7  8  1  0      
  8  9  1  0      
  9 10  1  0      
  9 11  2  0      
 10 12  2  0      
 12 13  1  0      
 13 14  1  0      
 13 15  2  0      
 11 15  1  0      
  7 16  2  0      
  6 17  1  0      
 17 18  1  0      
 18 19  1  0      
 15 20  1  0      
 20 21  1  0      
 20 22  1  0      
 20 23  1  0      
  4 24  1  0      
 24 25  1  0      
 25 26  1  0      
 26 27  1  0      
 27 28  1  0      
 28 29  1  0      
 29 30  1  0      
 30 31  1  0      
M  END
