PropylCTB.mol
  ChemDraw10271515562D

 26 27  0  0  0  0  0  0  0  0999 V2000
   -3.2151   -0.6188    0.0000 C   0  0  0  0  0  0  0  0  0  0  0  0
   -3.2151   -1.4438    0.0000 C   0  0  0  0  0  0  0  0  0  0  0  0
   -2.5006   -1.8562    0.0000 C   0  0  0  0  0  0  0  0  0  0  0  0
   -1.7862   -1.4438    0.0000 C   0  0  0  0  0  0  0  0  0  0  0  0
   -1.7862   -0.6188    0.0000 C   0  0  0  0  0  0  0  0  0  0  0  0
   -2.5006   -0.2062    0.0000 C   0  0  0  0  0  0  0  0  0  0  0  0
   -1.0717   -0.2062    0.0000 C   0  0  0  0  0  0  0  0  0  0  0  0
   -0.3572   -0.6188    0.0000 N   0  0  0  0  0  0  0  0  0  0  0  0
    0.3572   -0.2062    0.0000 C   0  0  0  0  0  0  0  0  0  0  0  0
    0.3572    0.6188    0.0000 C   0  0  0  0  0  0  0  0  0  0  0  0
    1.0717   -0.6188    0.0000 C   0  0  0  0  0  0  0  0  0  0  0  0
    1.0717    1.0312    0.0000 C   0  0  0  0  0  0  0  0  0  0  0  0
    1.7862    0.6188    0.0000 C   0  0  0  0  0  0  0  0  0  0  0  0
    2.5006    1.0312    0.0000 Cl  0  0  0  0  0  0  0  0  0  0  0  0
    1.7862   -0.2062    0.0000 C   0  0  0  0  0  0  0  0  0  0  0  0
   -1.0717    0.6188    0.0000 O   0  0  0  0  0  0  0  0  0  0  0  0
   -2.5006    0.6188    0.0000 O   0  0  0  0  0  0  0  0  0  0  0  0
   -3.2151    1.0312    0.0000 C   0  0  0  0  0  0  0  0  0  0  0  0
   -3.2151    1.8562    0.0000 C   0  0  0  0  0  0  0  0  0  0  0  0
    2.5006   -0.6188    0.0000 C   0  0  0  0  0  0  0  0  0  0  0  0
    2.5006   -1.4438    0.0000 F   0  0  0  0  0  0  0  0  0  0  0  0
    3.2151   -1.0312    0.0000 F   0  0  0  0  0  0  0  0  0  0  0  0
    3.2151   -0.2062    0.0000 F   0  0  0  0  0  0  0  0  0  0  0  0
   -1.0717   -1.8562    0.0000 C   0  0  0  0  0  0  0  0  0  0  0  0
   -0.3572   -1.4438    0.0000 C   0  0  0  0  0  0  0  0  0  0  0  0
    0.3572   -1.8562    0.0000 C   0  0  0  0  0  0  0  0  0  0  0  0
  1  2  2  0      
  2  3  1  0      
  3  4  2  0      
  4  5  1  0      
  5  6  2  0      
  6  1  1  0      
  5  7  1  0      
  7  8  1  0      
  8  9  1  0      
  9 10  1  0      
  9 11  2  0      
 10 12  2  0      
 12 13  1  0      
 13 14  1  0      
 13 15  2  0      
 11 15  1  0      
  7 16  2  0      
  6 17  1  0      
 17 18  1  0      
 18 19  1  0      
 15 20  1  0      
 20 21  1  0      
 20 22  1  0      
 20 23  1  0      
  4 24  1  0      
 24 25  1  0      
 25 26  1  0      
M  END
