PropionylSCoA.mol
  ChemDraw10271515592D

 52 54  0  0  0  0  0  0  0  0999 V2000
    9.4442    1.5523    0.0000 N   0  0  0  0  0  0  0  0  0  0  0  0
    9.2328    0.7548    0.0000 C   0  0  0  0  0  0  0  0  0  0  0  0
    8.4370    0.5371    0.0000 N   0  0  0  0  0  0  0  0  0  0  0  0
    7.8503    1.1198    0.0000 C   0  0  0  0  0  0  0  0  0  0  0  0
    8.0606    1.9178    0.0000 C   0  0  0  0  0  0  0  0  0  0  0  0
    8.8587    2.1344    0.0000 C   0  0  0  0  0  0  0  0  0  0  0  0
    7.0265    1.0728    0.0000 N   0  0  0  0  0  0  0  0  0  0  0  0
    6.7274    1.8422    0.0000 C   0  0  0  0  0  0  0  0  0  0  0  0
    7.3674    2.3647    0.0000 N   0  0  0  0  0  0  0  0  0  0  0  0
    9.0689    2.9319    0.0000 N   0  0  0  0  0  0  0  0  0  0  0  0
    6.5796    0.3796    0.0000 C   0  0  0  0  0  0  0  0  0  0  0  0
    5.7563    0.3320    0.0000 O   0  0  0  0  0  0  0  0  0  0  0  0
    5.5455   -0.4655    0.0000 C   0  0  0  0  0  0  0  0  0  0  0  0
    6.2387   -0.9118    0.0000 C   0  0  0  0  0  0  0  0  0  0  0  0
    6.8787   -0.3904    0.0000 C   0  0  0  0  0  0  0  0  0  0  0  0
    6.2857   -1.7357    0.0000 O   0  0  0  0  0  0  0  0  0  0  0  0
    7.6762   -0.6007    0.0000 O   0  0  0  0  0  0  0  0  0  0  0  0
    4.7766   -0.7640    0.0000 C   0  0  0  0  0  0  0  0  0  0  0  0
    4.1327   -0.2472    0.0000 O   0  0  0  0  0  0  0  0  0  0  0  0
    7.0219   -2.1075    0.0000 P   0  0  0  0  0  0  0  0  0  0  0  0
    7.0253   -2.9319    0.0000 O   0  5  0  0  0  0  0  0  0  0  0  0
    7.6040   -1.5214    0.0000 O   0  5  0  0  0  0  0  0  0  0  0  0
    7.4378   -2.8208    0.0000 O   0  0  0  0  0  0  0  0  0  0  0  0
    3.4194   -0.6632    0.0000 P   0  0  0  0  0  0  0  0  0  0  0  0
    2.7032   -0.2524    0.0000 O   0  0  0  0  0  0  0  0  0  0  0  0
    1.9900   -0.6677    0.0000 P   0  0  0  0  0  0  0  0  0  0  0  0
    1.2738   -0.2581    0.0000 O   0  0  0  0  0  0  0  0  0  0  0  0
    0.5605   -0.6729    0.0000 C   0  0  0  0  0  0  0  0  0  0  0  0
   -0.1556   -0.2633    0.0000 C   0  0  0  0  0  0  0  0  0  0  0  0
   -0.8683   -0.6786    0.0000 C   0  0  0  0  0  0  0  0  0  0  0  0
   -1.5845   -0.2690    0.0000 C   0  0  0  0  0  0  0  0  0  0  0  0
   -2.2977   -0.6838    0.0000 N   0  0  0  0  0  0  0  0  0  0  0  0
   -3.0139   -0.2736    0.0000 C   0  0  0  0  0  0  0  0  0  0  0  0
   -3.7272   -0.6884    0.0000 C   0  0  0  0  0  0  0  0  0  0  0  0
    3.2091   -1.4607    0.0000 O   0  5  0  0  0  0  0  0  0  0  0  0
    3.6360   -1.4589    0.0000 O   0  0  0  0  0  0  0  0  0  0  0  0
    1.7797   -1.4664    0.0000 O   0  5  0  0  0  0  0  0  0  0  0  0
    2.2065   -1.4647    0.0000 O   0  0  0  0  0  0  0  0  0  0  0  0
   -0.3716    0.5337    0.0000 C   0  0  0  0  0  0  0  0  0  0  0  0
    0.0558    0.5342    0.0000 C   0  0  0  0  0  0  0  0  0  0  0  0
   -0.8654   -1.5036    0.0000 C   0  0  0  0  0  0  0  0  0  0  0  0
   -1.5868    0.5572    0.0000 O   0  0  0  0  0  0  0  0  0  0  0  0
   -4.4433   -0.2787    0.0000 C   0  0  0  0  0  0  0  0  0  0  0  0
   -5.1566   -0.6941    0.0000 N   0  0  0  0  0  0  0  0  0  0  0  0
   -5.8727   -0.2845    0.0000 C   0  0  0  0  0  0  0  0  0  0  0  0
   -4.4462    0.5463    0.0000 O   0  0  0  0  0  0  0  0  0  0  0  0
   -6.5855   -0.6992    0.0000 C   0  0  0  0  0  0  0  0  0  0  0  0
   -7.3027   -0.2896    0.0000 S   0  0  0  0  0  0  0  0  0  0  0  0
   -8.0153   -0.7055    0.0000 C   0  0  0  0  0  0  0  0  0  0  0  0
   -8.0114   -1.5305    0.0000 O   0  0  0  0  0  0  0  0  0  0  0  0
   -8.7317   -0.2963    0.0000 C   0  0  0  0  0  0  0  0  0  0  0  0
   -9.4442   -0.7122    0.0000 C   0  0  0  0  0  0  0  0  0  0  0  0
  1  2  1  0      
  2  3  2  0      
  3  4  1  0      
  4  5  2  0      
  5  6  1  0      
  1  6  2  0      
  4  7  1  0      
  7  8  1  0      
  8  9  2  0      
  5  9  1  0      
  6 10  1  0      
 11  7  1  1      
 11 12  1  0      
 12 13  1  0      
 13 14  1  0      
 14 15  1  0      
 15 11  1  0      
 14 16  1  6      
 15 17  1  6      
 13 18  1  1      
 18 19  1  0      
 16 20  1  0      
 20 21  1  0      
 20 22  1  0      
 20 23  2  0      
 19 24  1  0      
 24 25  1  0      
 25 26  1  0      
 26 27  1  0      
 27 28  1  0      
 28 29  1  0      
 29 30  1  0      
 30 31  1  0      
 31 32  1  0      
 32 33  1  0      
 33 34  1  0      
 24 35  1  0      
 24 36  2  0      
 26 37  1  0      
 26 38  2  0      
 29 39  1  6      
 29 40  1  1      
 30 41  1  1      
 31 42  2  0      
 34 43  1  0      
 43 44  1  0      
 44 45  1  0      
 43 46  2  0      
 45 47  1  0      
 47 48  1  0      
 48 49  1  0      
 49 50  2  0      
 49 51  1  0      
 51 52  1  0      
M  CHG  4  21  -1  22  -1  35  -1  37  -1
M  END
