REMARK AutoDockVina VirtualScreeningResult  Sun Mar  6 21:25:34 2016
USER  AD>  6 of 9 MODELS
USER  AD>  ligand efficiency  -0.2842
USER  AD>  -5.40,  3.554,  5.183
USER  AD> macro_close_ats: 12
USER  AD> hepi:A:MET11:CE
USER  AD> hepi:A:TRP217:H
USER  AD> hepi:A:THR262:H
USER  AD> hepi:A:PRO216:CB
USER  AD> hepi:A:VAL247:CG2
USER  AD> hepi:A:ALA186:O
USER  AD> hepi:A:VAL247:CG1
USER  AD> hepi:A:THR262:OG1
USER  AD> hepi:A:GLU222:OE1
USER  AD> hepi:A:GLU222:CD
USER  AD> hepi:A:MET242:CG
USER  AD> hepi:A:ALA186:C

USER  AD> lig_close_ats: 8
USER  AD> h11b_ab6_b2_m6_model1: :LIG1:C,H,H,H,C,C,C,O
MODEL 6
REMARK VINA RESULT:      -5.4      3.554      5.183
REMARK  11 active torsions:
REMARK  status: ('A' for Active; 'I' for Inactive)
REMARK    1  A    between atoms: C_1  and  O_7 
REMARK    2  A    between atoms: C_2  and  O_10 
REMARK    3  A    between atoms: C_3  and  O_11 
REMARK    4  A    between atoms: C_4  and  O_12 
REMARK    5  A    between atoms: C_6  and  C_8 
REMARK    6  A    between atoms: C_8  and  O_9 
REMARK    7  A    between atoms: O_12  and  C_13 
REMARK    8  A    between atoms: C_13  and  C_14 
REMARK    9  A    between atoms: C_15  and  C_16 
REMARK   10  A    between atoms: C_16  and  C_17 
REMARK   11  A    between atoms: C_17  and  C_18 
ROOT
HETATM    1  C   LIG     1      45.821  12.655   3.508  1.00  0.00     0.180 C 
HETATM    2  C   LIG     1      45.104  11.342   3.848  1.00  0.00     0.183 C 
HETATM    3  C   LIG     1      45.894  10.494   4.859  1.00  0.00     0.204 C 
HETATM    4  C   LIG     1      47.363  10.380   4.403  1.00  0.00     0.291 C 
HETATM    5  O   LIG     1      47.925  11.669   4.132  1.00  0.00    -0.348 OA
HETATM    6  C   LIG     1      47.253  12.331   3.056  1.00  0.00     0.179 C 
ENDROOT
BRANCH   4   7
HETATM    7  O   LIG     1      48.174   9.775   5.409  1.00  0.00    -0.355 OA
BRANCH   7   8
HETATM    8  C   LIG     1      49.557  10.010   5.173  1.00  0.00     0.198 C 
BRANCH   8   9
HETATM    9  C   LIG     1      50.232  10.315   6.475  1.00  0.00    -0.005 C 
HETATM   10  C   LIG     1      49.759  11.244   7.319  1.00  0.00    -0.029 C 
BRANCH  10  11
HETATM   11  C   LIG     1      50.378  11.582   8.646  1.00  0.00     0.027 C 
BRANCH  11  12
HETATM   12  C   LIG     1      50.157  13.060   8.984  1.00  0.00     0.003 C 
BRANCH  12  13
HETATM   13  C   LIG     1      49.194  13.241  10.154  1.00  0.00    -0.004 C 
HETATM   14  C   LIG     1      49.869  13.964  11.310  1.00  0.00     0.005 C 
ENDBRANCH  12  13
ENDBRANCH  11  12
ENDBRANCH  10  11
ENDBRANCH   8   9
ENDBRANCH   7   8
ENDBRANCH   4   7
BRANCH   3  15
HETATM   15  O   LIG     1      45.279   9.194   4.925  1.00  0.00    -0.388 OA
HETATM   16  H   LIG     1      44.346   9.330   4.661  1.00  0.00     0.210 HD
ENDBRANCH   3  15
BRANCH   2  17
HETATM   17  O   LIG     1      43.798  11.602   4.383  1.00  0.00    -0.390 OA
HETATM   18  H   LIG     1      43.902  12.383   4.968  1.00  0.00     0.210 HD
ENDBRANCH   2  17
BRANCH   6  19
HETATM   19  C   LIG     1      48.061  13.571   2.676  1.00  0.00     0.198 C 
BRANCH  19  20
HETATM   20  O   LIG     1      47.252  14.738   2.739  1.00  0.00    -0.398 OA
HETATM   21  H   LIG     1      46.778  14.722   3.589  1.00  0.00     0.209 HD
ENDBRANCH  19  20
ENDBRANCH   6  19
BRANCH   1  22
HETATM   22  O   LIG     1      45.804  13.473   4.691  1.00  0.00    -0.390 OA
HETATM   23  H   LIG     1      45.909  12.880   5.461  1.00  0.00     0.210 HD
ENDBRANCH   1  22
TORSDOF 11
ENDMDL
