REMARK AutoDockVina VirtualScreeningResult  Sun Mar  6 21:24:34 2016
USER  AD>  1 of 9 MODELS
USER  AD>  ligand efficiency  -0.4500
USER  AD>  -5.40,  0.000,  0.000
USER  AD> macro_close_ats: 13
USER  AD> hepi:A:ARG143:NH1
USER  AD> hepi:A:ALA140:CB
USER  AD> hepi:A:ALA93:O
USER  AD> hepi:A:LYS7:NZ
USER  AD> hepi:A:THR144:H
USER  AD> hepi:A:ARG143:H
USER  AD> hepi:A:THR144:N
USER  AD> hepi:A:THR144:OG1
USER  AD> hepi:A:ARG143:H
USER  AD> hepi:A:LYS7:H
USER  AD> hepi:A:ARG143:CB
USER  AD> hepi:A:ALA140:CA
USER  AD> hepi:A:LYS7:H

USER  AD> lig_close_ats: 11
USER  AD> h11b_ab_b1_m1_model1: :LIG1:C,O,H,O,O,O,C,H,C,O,H
MODEL 1
REMARK VINA RESULT:      -5.4      0.000      0.000
REMARK  6 active torsions:
REMARK  status: ('A' for Active; 'I' for Inactive)
REMARK    1  A    between atoms: C_1  and  O_7 
REMARK    2  A    between atoms: C_2  and  O_10 
REMARK    3  A    between atoms: C_3  and  O_12 
REMARK    4  A    between atoms: C_4  and  O_11 
REMARK    5  A    between atoms: C_6  and  C_8 
REMARK    6  A    between atoms: C_8  and  O_9 
ROOT
HETATM    1  C   LIG     1      41.909  -6.755  -3.398  1.00  0.00     0.180 C 
HETATM    2  C   LIG     1      43.368  -7.037  -3.014  1.00  0.00     0.183 C 
HETATM    3  C   LIG     1      43.481  -8.358  -2.246  1.00  0.00     0.204 C 
HETATM    4  C   LIG     1      42.472  -8.386  -1.080  1.00  0.00     0.288 C 
HETATM    5  O   LIG     1      41.151  -8.124  -1.559  1.00  0.00    -0.349 OA
HETATM    6  C   LIG     1      41.039  -6.812  -2.131  1.00  0.00     0.179 C 
ENDROOT
BRANCH   6   7
HETATM    7  C   LIG     1      39.563  -6.527  -2.422  1.00  0.00     0.198 C 
BRANCH   7   8
HETATM    8  O   LIG     1      39.038  -7.479  -3.340  1.00  0.00    -0.398 OA
HETATM    9  H   LIG     1      39.752  -7.719  -3.956  1.00  0.00     0.209 HD
ENDBRANCH   7   8
ENDBRANCH   6   7
BRANCH   1  10
HETATM   10  O   LIG     1      41.522  -7.759  -4.356  1.00  0.00    -0.390 OA
HETATM   11  H   LIG     1      41.092  -7.302  -5.106  1.00  0.00     0.210 HD
ENDBRANCH   1  10
BRANCH   2  12
HETATM   12  O   LIG     1      44.190  -7.126  -4.188  1.00  0.00    -0.390 OA
HETATM   13  H   LIG     1      43.701  -7.708  -4.808  1.00  0.00     0.210 HD
ENDBRANCH   2  12
BRANCH   4  14
HETATM   14  O   LIG     1      42.478  -9.664  -0.457  1.00  0.00    -0.369 OA
HETATM   15  H   LIG     1      43.358  -9.769  -0.049  1.00  0.00     0.212 HD
ENDBRANCH   4  14
BRANCH   3  16
HETATM   16  O   LIG     1      44.819  -8.536  -1.763  1.00  0.00    -0.388 OA
HETATM   17  H   LIG     1      44.896  -9.491  -1.560  1.00  0.00     0.210 HD
ENDBRANCH   3  16
TORSDOF 6
ENDMDL
