REMARK AutoDockVina VirtualScreeningResult  Sun Mar  6 21:24:44 2016
USER  AD>  9 of 9 MODELS
USER  AD>  ligand efficiency  -0.2789
USER  AD>  -5.30,  4.645,  6.928
USER  AD> macro_close_ats: 9
USER  AD> hepi:A:ASP261:OD2
USER  AD> hepi:A:ASP261:OD1
USER  AD> hepi:A:ASP261:CG
USER  AD> hepi:A:LYS192:NZ
USER  AD> hepi:A:LYS192:H
USER  AD> hepi:A:MET11:H
USER  AD> hepi:A:LYS192:H
USER  AD> hepi:A:SER10:OG
USER  AD> hepi:A:MET11:CB

USER  AD> lig_close_ats: 9
USER  AD> h11b_ab6_b1_m9_model1: :LIG1:C,C,C,O,O,H,C,H,O
MODEL 9
REMARK VINA RESULT:      -5.3      4.645      6.928
REMARK  11 active torsions:
REMARK  status: ('A' for Active; 'I' for Inactive)
REMARK    1  A    between atoms: C_1  and  O_7 
REMARK    2  A    between atoms: C_2  and  O_10 
REMARK    3  A    between atoms: C_3  and  O_11 
REMARK    4  A    between atoms: C_4  and  O_12 
REMARK    5  A    between atoms: C_6  and  C_8 
REMARK    6  A    between atoms: C_8  and  O_9 
REMARK    7  A    between atoms: O_12  and  C_13 
REMARK    8  A    between atoms: C_13  and  C_14 
REMARK    9  A    between atoms: C_15  and  C_16 
REMARK   10  A    between atoms: C_16  and  C_17 
REMARK   11  A    between atoms: C_17  and  C_18 
ROOT
HETATM    1  C   LIG     1      38.684   4.078   0.315  1.00  0.00     0.180 C 
HETATM    2  C   LIG     1      39.241   2.825   1.002  1.00  0.00     0.183 C 
HETATM    3  C   LIG     1      40.737   2.959   1.332  1.00  0.00     0.204 C 
HETATM    4  C   LIG     1      41.499   3.461   0.088  1.00  0.00     0.291 C 
HETATM    5  O   LIG     1      40.894   4.642  -0.451  1.00  0.00    -0.348 OA
HETATM    6  C   LIG     1      39.560   4.401  -0.905  1.00  0.00     0.179 C 
ENDROOT
BRANCH   4   7
HETATM    7  O   LIG     1      42.850   3.792   0.405  1.00  0.00    -0.355 OA
BRANCH   7   8
HETATM    8  C   LIG     1      42.924   4.628   1.554  1.00  0.00     0.198 C 
BRANCH   8   9
HETATM    9  C   LIG     1      44.147   5.487   1.457  1.00  0.00    -0.005 C 
HETATM   10  C   LIG     1      44.980   5.420   0.408  1.00  0.00    -0.029 C 
BRANCH  10  11
HETATM   11  C   LIG     1      46.210   6.267   0.242  1.00  0.00     0.027 C 
BRANCH  11  12
HETATM   12  C   LIG     1      46.700   6.781   1.600  1.00  0.00     0.003 C 
BRANCH  12  13
HETATM   13  C   LIG     1      46.579   8.298   1.716  1.00  0.00    -0.004 C 
HETATM   14  C   LIG     1      45.575   8.686   2.792  1.00  0.00     0.005 C 
ENDBRANCH  12  13
ENDBRANCH  11  12
ENDBRANCH  10  11
ENDBRANCH   8   9
ENDBRANCH   7   8
ENDBRANCH   4   7
BRANCH   3  15
HETATM   15  O   LIG     1      41.221   1.666   1.738  1.00  0.00    -0.388 OA
HETATM   16  H   LIG     1      40.449   1.066   1.682  1.00  0.00     0.210 HD
ENDBRANCH   3  15
BRANCH   2  17
HETATM   17  O   LIG     1      38.523   2.550   2.214  1.00  0.00    -0.390 OA
HETATM   18  H   LIG     1      37.843   3.253   2.284  1.00  0.00     0.210 HD
ENDBRANCH   2  17
BRANCH   6  19
HETATM   19  C   LIG     1      39.087   5.630  -1.679  1.00  0.00     0.198 C 
BRANCH  19  20
HETATM   20  O   LIG     1      39.713   6.808  -1.187  1.00  0.00    -0.398 OA
HETATM   21  H   LIG     1      40.675   6.684  -1.266  1.00  0.00     0.209 HD
ENDBRANCH  19  20
ENDBRANCH   6  19
BRANCH   1  22
HETATM   22  O   LIG     1      38.701   5.143   1.283  1.00  0.00    -0.390 OA
HETATM   23  H   LIG     1      38.009   4.950   1.946  1.00  0.00     0.210 HD
ENDBRANCH   1  22
TORSDOF 11
ENDMDL
