REMARK AutoDockVina VirtualScreeningResult  Sun Mar  6 21:26:14 2016
USER  AD>  4 of 9 MODELS
USER  AD>  ligand efficiency  -0.1213
USER  AD>  -7.40, 10.354, 15.550
USER  AD> macro_close_ats: 13
USER  AD> hepi:A:GLY263:H
USER  AD> hepi:A:GLU38:CG
USER  AD> hepi:A:GLU38:OE1
USER  AD> hepi:A:PHE41:CZ
USER  AD> hepi:A:LEU264:H
USER  AD> hepi:A:GLU222:OE1
USER  AD> hepi:A:GLU38:CD
USER  AD> hepi:A:ARG60:CB
USER  AD> hepi:A:THR188:H
USER  AD> hepi:A:SER10:H
USER  AD> hepi:A:THR262:OG1
USER  AD> hepi:A:THR262:H
USER  AD> hepi:A:LEU264:CG

USER  AD> lig_close_ats: 13
USER  AD> h11b_fdla_b3_m4_model1:X:RES1:C95,O98,C77,C56,H162,H74,O86,O62,H62,C76,O21,C92,H163
MODEL 4
REMARK VINA RESULT:      -7.4     10.354     15.550
REMARK  30 active torsions:
REMARK  status: ('A' for Active; 'I' for Inactive)
REMARK    1  A    between atoms: C42_1  and  O60_2 
REMARK    2  A    between atoms: C42_1  and  C29_40 
REMARK    3  A    between atoms: O60_2  and  C50_3 
REMARK    4  A    between atoms: C50_3  and  C69_37 
REMARK    5  A    between atoms: C53_5  and  O86_9 
REMARK    6  A    between atoms: C56_6  and  O62_29 
REMARK    7  A    between atoms: C52_7  and  C64_31 
REMARK    8  A    between atoms: O86_9  and  C76_10 
REMARK    9  A    between atoms: C76_10  and  C92_16 
REMARK   10  A    between atoms: C78_12  and  C93_19 
REMARK   11  A    between atoms: C82_13  and  O90_25 
REMARK   12  A    between atoms: C79_14  and  O88_27 
REMARK   13  A    between atoms: C93_19  and  O10_20 
REMARK   14  A    between atoms: C93_19  and  C95_22 
REMARK   15  A    between atoms: C95_22  and  O10_23 
REMARK   16  A    between atoms: C64_31  and  O72_35 
REMARK   17  A    between atoms: C64_31  and  C66_32 
REMARK   18  A    between atoms: C66_32  and  O74_33 
REMARK   19  A    between atoms: C32_41  and  O39_46 
REMARK   20  A    between atoms: C30_42  and  O38_51 
REMARK   21  A    between atoms: C27_43  and  N40_53 
REMARK   22  A    between atoms: C26_44  and  O36_57 
REMARK   23  A    between atoms: O39_46  and  P45_47 
REMARK   24  A    between atoms: O36_57  and  C23_58 
REMARK   25  A    between atoms: C23_58  and  C2_59 
REMARK   26  A    between atoms: C3_61  and  O11_65 
REMARK   27  A    between atoms: C4_62  and  N16_70 
REMARK   28  A    between atoms: C5_63  and  O12_74 
REMARK   29  A    between atoms: C1_64  and  O13_76 
REMARK   30  A    between atoms: O11_65  and  P18_66 
ROOT
ATOM      1  C42 RES X   1      47.976  12.061   2.154  1.00  0.13     0.177 C 
ENDROOT
BRANCH   1   2
ATOM      2  O60 RES X   1      47.221  10.860   2.018  1.00 -0.19    -0.324 OA
BRANCH   2   3
ATOM      3  C50 RES X   1      47.532   9.939   3.062  1.00  0.15     0.271 C 
ATOM      4  O61 RES X   1      47.176  10.488   4.339  1.00 -0.16    -0.324 OA
ATOM      5  C52 RES X   1      45.807  10.873   4.403  1.00  0.06     0.176 C 
ATOM      6  C56 RES X   1      44.908   9.642   4.191  1.00  0.04     0.168 C 
ATOM      7  C53 RES X   1      45.221   9.040   2.815  1.00  0.05     0.153 C 
ATOM      8  C51 RES X   1      46.718   8.651   2.798  1.00  0.06     0.100 C 
BRANCH   3   9
ATOM      9  C69 RES X   1      49.045   9.650   3.073  1.00  0.20     0.240 C 
ATOM     10  O71 RES X   1      49.848  10.144   4.145  1.00 -0.82    -0.644 OA
ATOM     11  O70 RES X   1      49.573   8.981   2.143  1.00 -0.59    -0.644 OA
ENDBRANCH   3   9
BRANCH   5  12
ATOM     12  C64 RES X   1      45.535  11.479   5.790  1.00  0.03     0.170 C 
BRANCH  12  13
ATOM     13  O72 RES X   1      44.174  11.228   6.157  1.00 -0.08    -0.380 OA
ATOM     14  H72 RES X   1      44.153  10.784   6.997  1.00  0.00     0.211 HD
ENDBRANCH  12  13
BRANCH  12  15
ATOM     15  C66 RES X   1      45.775  12.999   5.736  1.00 -0.03     0.169 C 
BRANCH  15  16
ATOM     16  O74 RES X   1      45.915  13.414   4.374  1.00  0.30    -0.380 OA
ATOM     17  H74 RES X   1      46.674  13.980   4.290  1.00  0.00     0.211 HD
ENDBRANCH  15  16
ENDBRANCH  12  15
ENDBRANCH   5  12
BRANCH   6  18
ATOM     18  O62 RES X   1      45.211   8.624   5.153  1.00 -0.09    -0.380 OA
ATOM     19  H62 RES X   1      45.487   9.012   5.975  1.00  0.00     0.211 HD
ENDBRANCH   6  18
BRANCH   7  20
ATOM     20  O86 RES X   1      44.380   7.904   2.578  1.00 -0.07    -0.327 OA
BRANCH  20  21
ATOM     21  C76 RES X   1      43.627   8.113   1.381  1.00  0.14     0.271 C 
ATOM     22  C77 RES X   1      42.634   6.946   1.203  1.00  0.07     0.099 C 
ATOM     23  C79 RES X   1      43.422   5.636   1.124  1.00  0.05     0.145 C 
ATOM     24  C82 RES X   1      44.386   5.741  -0.060  1.00  0.05     0.167 C 
ATOM     25  C78 RES X   1      45.308   6.956   0.155  1.00  0.01     0.176 C 
ATOM     26  O87 RES X   1      44.522   8.162   0.250  1.00 -0.27    -0.324 OA
BRANCH  23  27
ATOM     27  O88 RES X   1      42.531   4.533   0.938  1.00 -0.14    -0.382 OA
ATOM     28  H88 RES X   1      42.802   3.799   1.478  1.00  0.00     0.210 HD
ENDBRANCH  23  27
BRANCH  24  29
ATOM     29  O90 RES X   1      43.641   5.913  -1.269  1.00 -0.31    -0.380 OA
ATOM     30  H90 RES X   1      42.893   6.475  -1.102  1.00  0.00     0.211 HD
ENDBRANCH  24  29
BRANCH  25  31
ATOM     31  C93 RES X   1      46.282   7.058  -1.035  1.00  0.01     0.170 C 
BRANCH  31  32
ATOM     32  O10 RES X   1      46.688   5.743  -1.423  1.00 -0.35    -0.380 OA
ATOM     33  H10 RES X   1      45.935   5.253  -1.730  1.00  0.00     0.211 HD
ENDBRANCH  31  32
BRANCH  31  34
ATOM     34  C95 RES X   1      47.515   7.881  -0.630  1.00 -0.10     0.169 C 
BRANCH  34  35
ATOM     35  O10 RES X   1      47.162   9.263  -0.550  1.00 -0.04    -0.380 OA
ATOM     36  H10 RES X   1      46.229   9.363  -0.699  1.00  0.00     0.211 HD
ENDBRANCH  34  35
ENDBRANCH  31  34
ENDBRANCH  25  31
BRANCH  21  37
ATOM     37  C92 RES X   1      42.849   9.436   1.480  1.00  0.15     0.240 C 
ATOM     38  O99 RES X   1      43.336  10.492   1.003  1.00 -0.32    -0.644 OA
ATOM     39  O98 RES X   1      41.572   9.459   2.121  1.00 -0.51    -0.644 OA
ENDBRANCH  21  37
ENDBRANCH  20  21
ENDBRANCH   7  20
ENDBRANCH   2   3
ENDBRANCH   1   2
BRANCH   1  40
ATOM     40  C29 RES X   1      48.535  12.610   0.823  1.00  0.10     0.178 C 
ATOM     41  C32 RES X   1      47.300  13.001  -0.011  1.00  0.12     0.186 C 
ATOM     42  C30 RES X   1      47.726  13.505  -1.375  1.00  0.10     0.174 C 
ATOM     43  C27 RES X   1      48.513  12.390  -2.053  1.00  0.13     0.263 C 
ATOM     44  C26 RES X   1      49.750  12.084  -1.181  1.00  0.12     0.267 C 
ATOM     45  O37 RES X   1      49.325  11.611   0.127  1.00 -0.15    -0.327 OA
BRANCH  41  46
ATOM     46  O39 RES X   1      46.570  14.026   0.664  1.00 -0.20    -0.261 OA
BRANCH  46  47
ATOM     47  P45 RES X   1      44.816  14.003   0.717  1.00  0.46     0.423 P 
ATOM     48  O46 RES X   1      44.205  13.126  -0.681  1.00 -0.34    -0.617 OA
ATOM     49  O48 RES X   1      44.209  15.655   0.692  1.00 -1.25    -0.617 OA
ATOM     50  O49 RES X   1      44.285  13.206   2.196  1.00 -0.72    -0.617 OA
ENDBRANCH  46  47
ENDBRANCH  41  46
BRANCH  42  51
ATOM     51  O38 RES X   1      46.572  13.840  -2.151  1.00 -0.22    -0.380 OA
ATOM     52  H38 RES X   1      45.959  14.333  -1.619  1.00  0.00     0.211 HD
ENDBRANCH  42  51
BRANCH  43  53
ATOM     53  N40 RES X   1      48.925  12.834  -3.389  1.00  0.04    -0.059 N 
ATOM     54 3H40 RES X   1      49.560  12.174  -3.838  1.00  0.00     0.275 HD
ATOM     55 1H40 RES X   1      49.324  13.771  -3.322  1.00  0.00     0.275 HD
ATOM     56 2H40 RES X   1      48.164  12.785  -4.066  1.00  0.00     0.275 HD
ENDBRANCH  43  53
BRANCH  44  57
ATOM     57  O36 RES X   1      50.547  11.077  -1.832  1.00 -0.14    -0.327 OA
BRANCH  57  58
ATOM     58  C23 RES X   1      50.537   9.858  -1.070  1.00  0.09     0.177 C 
BRANCH  58  59
ATOM     59  C2  RES X   1      50.827   8.693  -2.048  1.00  0.08     0.177 C 
ATOM     60  C1  RES X   1      52.090   9.044  -2.855  1.00  0.08     0.169 C 
ATOM     61  C5  RES X   1      52.416   7.885  -3.792  1.00  0.07     0.173 C 
ATOM     62  C4  RES X   1      51.219   7.668  -4.715  1.00  0.11     0.263 C 
ATOM     63  C3  RES X   1      49.969   7.381  -3.858  1.00  0.13     0.278 C 
ATOM     64  O15 RES X   1      49.713   8.487  -2.952  1.00 -0.16    -0.327 OA
BRANCH  60  65
ATOM     65  O13 RES X   1      53.185   9.263  -1.964  1.00 -0.16    -0.380 OA
ATOM     66  H13 RES X   1      52.878   9.707  -1.183  1.00  0.00     0.211 HD
ENDBRANCH  60  65
BRANCH  61  67
ATOM     67  O12 RES X   1      53.581   8.190  -4.562  1.00 -0.17    -0.380 OA
ATOM     68  H12 RES X   1      53.619   9.122  -4.741  1.00  0.00     0.211 HD
ENDBRANCH  61  67
BRANCH  62  69
ATOM     69  N16 RES X   1      51.485   6.530  -5.611  1.00  0.02    -0.059 N 
ATOM     70 3H16 RES X   1      51.964   6.816  -6.466  1.00  0.00     0.275 HD
ATOM     71 1H16 RES X   1      50.614   6.036  -5.806  1.00  0.00     0.275 HD
ATOM     72 2H16 RES X   1      52.204   5.908  -5.242  1.00  0.00     0.275 HD
ENDBRANCH  62  69
BRANCH  63  73
ATOM     73  O11 RES X   1      48.857   7.201  -4.738  1.00 -0.11    -0.236 OA
BRANCH  73  74
ATOM     74  P18 RES X   1      48.228   5.559  -4.658  1.00  0.29     0.425 P 
ATOM     75  O19 RES X   1      48.729   4.672  -6.090  1.00 -0.22    -0.617 OA
ATOM     76  O21 RES X   1      48.868   4.767  -3.221  1.00 -0.51    -0.617 OA
ATOM     77  O22 RES X   1      46.468   5.598  -4.570  1.00 -0.48    -0.617 OA
ENDBRANCH  73  74
ENDBRANCH  63  73
ENDBRANCH  58  59
ENDBRANCH  57  58
ENDBRANCH  44  57
ENDBRANCH   1  40
TORSDOF 30
ENDMDL
