REMARK AutoDockVina VirtualScreeningResult  Sun Mar  6 21:24:43 2016
USER  AD>  3 of 9 MODELS
USER  AD>  ligand efficiency  -0.2895
USER  AD>  -5.50,  6.851, 11.916
USER  AD> macro_close_ats: 14
USER  AD> hepi:A:THR262:C
USER  AD> hepi:A:SER10:H
USER  AD> hepi:A:ASP261:CG
USER  AD> hepi:A:HIS16:CE1
USER  AD> hepi:A:GLY263:H
USER  AD> hepi:A:GLY12:H
USER  AD> hepi:A:ILE287:CA
USER  AD> hepi:A:LYS192:H
USER  AD> hepi:A:ASP261:OD1
USER  AD> hepi:A:MET11:H
USER  AD> hepi:A:GLY263:N
USER  AD> hepi:A:SER10:OG
USER  AD> hepi:A:GLY263:CA
USER  AD> hepi:A:THR262:CA

USER  AD> lig_close_ats: 7
USER  AD> h11b_ab6_b1_m3_model1: :LIG1:C,C,H,H,O,O,H
MODEL 3
REMARK VINA RESULT:      -5.5      6.851     11.916
REMARK  11 active torsions:
REMARK  status: ('A' for Active; 'I' for Inactive)
REMARK    1  A    between atoms: C_1  and  O_7 
REMARK    2  A    between atoms: C_2  and  O_10 
REMARK    3  A    between atoms: C_3  and  O_11 
REMARK    4  A    between atoms: C_4  and  O_12 
REMARK    5  A    between atoms: C_6  and  C_8 
REMARK    6  A    between atoms: C_8  and  O_9 
REMARK    7  A    between atoms: O_12  and  C_13 
REMARK    8  A    between atoms: C_13  and  C_14 
REMARK    9  A    between atoms: C_15  and  C_16 
REMARK   10  A    between atoms: C_16  and  C_17 
REMARK   11  A    between atoms: C_17  and  C_18 
ROOT
HETATM    1  C   LIG     1      41.200   5.298   1.332  1.00  0.00     0.180 C 
HETATM    2  C   LIG     1      39.931   4.830   0.609  1.00  0.00     0.183 C 
HETATM    3  C   LIG     1      39.873   3.299   0.469  1.00  0.00     0.204 C 
HETATM    4  C   LIG     1      41.215   2.780  -0.088  1.00  0.00     0.291 C 
HETATM    5  O   LIG     1      42.321   3.271   0.679  1.00  0.00    -0.348 OA
HETATM    6  C   LIG     1      42.422   4.697   0.619  1.00  0.00     0.179 C 
ENDROOT
BRANCH   4   7
HETATM    7  O   LIG     1      41.278   1.355  -0.044  1.00  0.00    -0.355 OA
BRANCH   7   8
HETATM    8  C   LIG     1      41.534   0.886   1.275  1.00  0.00     0.198 C 
BRANCH   8   9
HETATM    9  C   LIG     1      40.958  -0.488   1.427  1.00  0.00    -0.005 C 
HETATM   10  C   LIG     1      39.817  -0.850   0.823  1.00  0.00    -0.029 C 
BRANCH  10  11
HETATM   11  C   LIG     1      39.198  -2.216   0.919  1.00  0.00     0.027 C 
BRANCH  11  12
HETATM   12  C   LIG     1      38.906  -2.777  -0.476  1.00  0.00     0.003 C 
BRANCH  12  13
HETATM   13  C   LIG     1      38.588  -4.270  -0.438  1.00  0.00    -0.004 C 
HETATM   14  C   LIG     1      38.088  -4.757  -1.789  1.00  0.00     0.005 C 
ENDBRANCH  12  13
ENDBRANCH  11  12
ENDBRANCH  10  11
ENDBRANCH   8   9
ENDBRANCH   7   8
ENDBRANCH   4   7
BRANCH   3  15
HETATM   15  O   LIG     1      38.792   2.976  -0.425  1.00  0.00    -0.388 OA
HETATM   16  H   LIG     1      38.614   3.795  -0.930  1.00  0.00     0.210 HD
ENDBRANCH   3  15
BRANCH   2  17
HETATM   17  O   LIG     1      38.758   5.274   1.308  1.00  0.00    -0.390 OA
HETATM   18  H   LIG     1      38.658   4.666   2.071  1.00  0.00     0.210 HD
ENDBRANCH   2  17
BRANCH   6  19
HETATM   19  C   LIG     1      43.751   5.110   1.249  1.00  0.00     0.198 C 
BRANCH  19  20
HETATM   20  O   LIG     1      44.577   3.974   1.474  1.00  0.00    -0.398 OA
HETATM   21  H   LIG     1      44.041   3.182   1.298  1.00  0.00     0.209 HD
ENDBRANCH  19  20
ENDBRANCH   6  19
BRANCH   1  22
HETATM   22  O   LIG     1      41.106   4.856   2.698  1.00  0.00    -0.390 OA
HETATM   23  H   LIG     1      41.670   5.445   3.238  1.00  0.00     0.210 HD
ENDBRANCH   1  22
TORSDOF 11
ENDMDL
