REMARK AutoDockVina VirtualScreeningResult  Sun Mar  6 21:26:45 2016
USER  AD>  7 of 9 MODELS
USER  AD>  ligand efficiency  -0.3400
USER  AD>  -5.10, 12.323, 14.264
USER  AD> macro_close_ats: 8
USER  AD> hepi:A:GLY12:H
USER  AD> hepi:A:ASP261:C
USER  AD> hepi:A:GLY12:N
USER  AD> hepi:A:THR262:CA
USER  AD> hepi:A:LYS192:H
USER  AD> hepi:A:ASP261:CG
USER  AD> hepi:A:SER10:H
USER  AD> hepi:A:HIS16:CE1

USER  AD> lig_close_ats: 6
USER  AD> h11b_gb3_b3_m7_model1: :LIG1:C,O,C,H,O,H
MODEL 7
REMARK VINA RESULT:      -5.1     12.323     14.264
REMARK  8 active torsions:
REMARK  status: ('A' for Active; 'I' for Inactive)
REMARK    1  A    between atoms: C_1  and  O_15 
REMARK    2  A    between atoms: C_2  and  O_9 
REMARK    3  A    between atoms: C_3  and  O_10 
REMARK    4  A    between atoms: C_4  and  O_11 
REMARK    5  A    between atoms: C_6  and  C_7 
REMARK    6  A    between atoms: C_7  and  O_8 
REMARK    7  A    between atoms: O_11  and  C_12 
REMARK    8  A    between atoms: C_12  and  C_13 
ROOT
HETATM    1  C   LIG     1      41.610   5.491   1.683  1.00  0.00     0.180 C 
HETATM    2  C   LIG     1      40.167   5.174   1.295  1.00  0.00     0.183 C 
HETATM    3  C   LIG     1      39.947   3.673   1.118  1.00  0.00     0.204 C 
HETATM    4  C   LIG     1      41.003   3.095   0.150  1.00  0.00     0.291 C 
HETATM    5  O   LIG     1      42.327   3.436   0.577  1.00  0.00    -0.348 OA
HETATM    6  C   LIG     1      42.562   4.841   0.666  1.00  0.00     0.179 C 
ENDROOT
BRANCH   4   7
HETATM    7  O   LIG     1      40.939   1.667   0.163  1.00  0.00    -0.355 OA
BRANCH   7   8
HETATM    8  C   LIG     1      41.584   1.063   1.277  1.00  0.00     0.197 C 
BRANCH   8   9
HETATM    9  C   LIG     1      41.016  -0.308   1.496  1.00  0.00    -0.011 C 
HETATM   10  C   LIG     1      39.709  -0.592   1.474  1.00  0.00     0.009 C 
ENDBRANCH   8   9
ENDBRANCH   7   8
ENDBRANCH   4   7
BRANCH   3  11
HETATM   11  O   LIG     1      38.606   3.471   0.642  1.00  0.00    -0.388 OA
HETATM   12  H   LIG     1      38.715   3.034  -0.227  1.00  0.00     0.210 HD
ENDBRANCH   3  11
BRANCH   2  13
HETATM   13  O   LIG     1      39.266   5.669   2.301  1.00  0.00    -0.390 OA
HETATM   14  H   LIG     1      39.655   5.373   3.150  1.00  0.00     0.210 HD
ENDBRANCH   2  13
BRANCH   6  15
HETATM   15  C   LIG     1      44.030   5.041   1.067  1.00  0.00     0.198 C 
BRANCH  15  16
HETATM   16  O   LIG     1      44.556   3.872   1.691  1.00  0.00    -0.398 OA
HETATM   17  H   LIG     1      43.850   3.199   1.652  1.00  0.00     0.209 HD
ENDBRANCH  15  16
ENDBRANCH   6  15
BRANCH   1  18
HETATM   18  O   LIG     1      41.740   6.918   1.731  1.00  0.00    -0.390 OA
HETATM   19  H   LIG     1      40.900   7.284   1.375  1.00  0.00     0.210 HD
ENDBRANCH   1  18
TORSDOF 8
ENDMDL
