REMARK AutoDockVina VirtualScreeningResult  Sun Mar  6 21:26:35 2016
USER  AD>  9 of 9 MODELS
USER  AD>  ligand efficiency  -0.2261
USER  AD>  -5.20, 10.571, 14.784
USER  AD> macro_close_ats: 13
USER  AD> hepi:A:GLY263:H
USER  AD> hepi:A:SER10:CA
USER  AD> hepi:A:SER10:H
USER  AD> hepi:A:MET11:CE
USER  AD> hepi:A:GLY12:H
USER  AD> hepi:A:SER10:C
USER  AD> hepi:A:MET11:N
USER  AD> hepi:A:MET11:H
USER  AD> hepi:A:GLY263:N
USER  AD> hepi:A:SER10:OG
USER  AD> hepi:A:PHE41:CZ
USER  AD> hepi:A:LEU264:CD1
USER  AD> hepi:A:THR188:H

USER  AD> lig_close_ats: 10
USER  AD> h11b_aa10_b3_m9_model1: :LIG1:O,C,C,H,H,H,C,O,O,C
MODEL 9
REMARK VINA RESULT:      -5.2     10.571     14.784
REMARK  15 active torsions:
REMARK  status: ('A' for Active; 'I' for Inactive)
REMARK    1  A    between atoms: C_1  and  O_7 
REMARK    2  A    between atoms: C_2  and  O_10 
REMARK    3  A    between atoms: C_3  and  O_11 
REMARK    4  A    between atoms: C_4  and  O_12 
REMARK    5  A    between atoms: C_6  and  C_8 
REMARK    6  A    between atoms: C_8  and  O_9 
REMARK    7  A    between atoms: O_12  and  C_13 
REMARK    8  A    between atoms: C_13  and  C_14 
REMARK    9  A    between atoms: C_15  and  C_16 
REMARK   10  A    between atoms: C_16  and  C_17 
REMARK   11  A    between atoms: C_17  and  C_18 
REMARK   12  A    between atoms: C_18  and  C_19 
REMARK   13  A    between atoms: C_19  and  C_20 
REMARK   14  A    between atoms: C_20  and  C_21 
REMARK   15  A    between atoms: C_21  and  C_22 
ROOT
HETATM    1  C   LIG     1      44.334   5.301   0.398  1.00  0.00     0.180 C 
HETATM    2  C   LIG     1      45.462   6.322   0.603  1.00  0.00     0.183 C 
HETATM    3  C   LIG     1      45.301   7.006   1.963  1.00  0.00     0.204 C 
HETATM    4  C   LIG     1      43.905   7.663   2.022  1.00  0.00     0.291 C 
HETATM    5  O   LIG     1      42.903   6.635   1.874  1.00  0.00    -0.348 OA
HETATM    6  C   LIG     1      42.963   5.979   0.593  1.00  0.00     0.179 C 
ENDROOT
BRANCH   4   7
HETATM    7  O   LIG     1      43.711   8.666   1.016  1.00  0.00    -0.355 OA
BRANCH   7   8
HETATM    8  C   LIG     1      43.097   9.840   1.540  1.00  0.00     0.198 C 
BRANCH   8   9
HETATM    9  C   LIG     1      44.157  10.856   1.835  1.00  0.00    -0.005 C 
HETATM   10  C   LIG     1      44.166  11.563   2.980  1.00  0.00    -0.029 C 
BRANCH  10  11
HETATM   11  C   LIG     1      45.169  12.624   3.324  1.00  0.00     0.027 C 
BRANCH  11  12
HETATM   12  C   LIG     1      45.661  12.454   4.765  1.00  0.00     0.004 C 
BRANCH  12  13
HETATM   13  C   LIG     1      46.043  11.007   5.063  1.00  0.00     0.000 C 
BRANCH  13  14
HETATM   14  C   LIG     1      47.494  10.727   4.667  1.00  0.00     0.000 C 
BRANCH  14  15
HETATM   15  C   LIG     1      48.253  10.055   5.810  1.00  0.00     0.000 C 
BRANCH  15  16
HETATM   16  C   LIG     1      48.891  11.086   6.740  1.00  0.00    -0.000 C 
BRANCH  16  17
HETATM   17  C   LIG     1      49.856  10.416   7.718  1.00  0.00    -0.005 C 
HETATM   18  C   LIG     1      50.783  11.428   8.371  1.00  0.00     0.005 C 
ENDBRANCH  16  17
ENDBRANCH  15  16
ENDBRANCH  14  15
ENDBRANCH  13  14
ENDBRANCH  12  13
ENDBRANCH  11  12
ENDBRANCH  10  11
ENDBRANCH   8   9
ENDBRANCH   7   8
ENDBRANCH   4   7
BRANCH   3  19
HETATM   19  O   LIG     1      46.385   7.911   2.190  1.00  0.00    -0.388 OA
HETATM   20  H   LIG     1      47.139   7.344   2.454  1.00  0.00     0.210 HD
ENDBRANCH   3  19
BRANCH   2  21
HETATM   21  O   LIG     1      46.745   5.670   0.578  1.00  0.00    -0.390 OA
HETATM   22  H   LIG     1      46.683   5.004  -0.139  1.00  0.00     0.210 HD
ENDBRANCH   2  21
BRANCH   6  23
HETATM   23  C   LIG     1      41.801   4.979   0.515  1.00  0.00     0.198 C 
BRANCH  23  24
HETATM   24  O   LIG     1      42.173   3.798  -0.184  1.00  0.00    -0.398 OA
HETATM   25  H   LIG     1      43.101   3.897  -0.459  1.00  0.00     0.209 HD
ENDBRANCH  23  24
ENDBRANCH   6  23
BRANCH   1  26
HETATM   26  O   LIG     1      44.558   4.240   1.350  1.00  0.00    -0.390 OA
HETATM   27  H   LIG     1      45.132   3.573   0.927  1.00  0.00     0.210 HD
ENDBRANCH   1  26
TORSDOF 15
ENDMDL
