REMARK AutoDockVina VirtualScreeningResult  Sun Mar  6 21:26:20 2016
USER  AD>  1 of 9 MODELS
USER  AD>  ligand efficiency  -0.3923
USER  AD>  -5.10,  0.000,  0.000
USER  AD> macro_close_ats: 9
USER  AD> hepi:A:GLY12:H
USER  AD> hepi:A:SER10:H
USER  AD> hepi:A:LYS192:H
USER  AD> hepi:A:ASP261:CG
USER  AD> hepi:A:HIS266:NE2
USER  AD> hepi:A:SER10:OG
USER  AD> hepi:A:ILE287:CB
USER  AD> hepi:A:LYS192:H
USER  AD> hepi:A:ASP261:OD1

USER  AD> lig_close_ats: 9
USER  AD> h11b_abm_b3_m1_model1: :LIG1:C,C,O,O,C,C,H,H,O
MODEL 1
REMARK VINA RESULT:      -5.1      0.000      0.000
REMARK  6 active torsions:
REMARK  status: ('A' for Active; 'I' for Inactive)
REMARK    1  A    between atoms: C_1  and  O_7 
REMARK    2  A    between atoms: C_2  and  O_10 
REMARK    3  A    between atoms: C_3  and  O_12 
REMARK    4  A    between atoms: C_4  and  O_11 
REMARK    5  A    between atoms: C_6  and  C_8 
REMARK    6  A    between atoms: C_8  and  O_9 
ROOT
HETATM    1  C   LIG     1      39.098   2.312   0.917  1.00  0.00     0.180 C 
HETATM    2  C   LIG     1      40.060   1.140   0.722  1.00  0.00     0.183 C 
HETATM    3  C   LIG     1      41.409   1.403   1.398  1.00  0.00     0.204 C 
HETATM    4  C   LIG     1      41.950   2.798   1.017  1.00  0.00     0.290 C 
HETATM    5  O   LIG     1      40.963   3.823   1.201  1.00  0.00    -0.349 OA
HETATM    6  C   LIG     1      39.779   3.598   0.423  1.00  0.00     0.179 C 
ENDROOT
BRANCH   6   7
HETATM    7  C   LIG     1      38.861   4.818   0.551  1.00  0.00     0.198 C 
BRANCH   7   8
HETATM    8  O   LIG     1      39.062   5.472   1.799  1.00  0.00    -0.398 OA
HETATM    9  H   LIG     1      38.899   4.819   2.505  1.00  0.00     0.209 HD
ENDBRANCH   7   8
ENDBRANCH   6   7
BRANCH   1  10
HETATM   10  O   LIG     1      38.780   2.382   2.320  1.00  0.00    -0.390 OA
HETATM   11  H   LIG     1      39.095   3.247   2.651  1.00  0.00     0.210 HD
ENDBRANCH   1  10
BRANCH   2  12
HETATM   12  O   LIG     1      39.500  -0.063   1.274  1.00  0.00    -0.390 OA
HETATM   13  H   LIG     1      39.806  -0.787   0.689  1.00  0.00     0.210 HD
ENDBRANCH   2  12
BRANCH   4  14
HETATM   14  O   LIG     1      43.058   3.086   1.874  1.00  0.00    -0.363 OA
HETATM   15  C   LIG     1      43.539   4.409   1.703  1.00  0.00     0.204 C 
ENDBRANCH   4  14
BRANCH   3  16
HETATM   16  O   LIG     1      42.322   0.368   0.992  1.00  0.00    -0.388 OA
HETATM   17  H   LIG     1      42.232   0.311   0.021  1.00  0.00     0.210 HD
ENDBRANCH   3  16
TORSDOF 6
ENDMDL
