REMARK AutoDockVina VirtualScreeningResult  Sun Mar  6 21:25:28 2016
USER  AD>  3 of 9 MODELS
USER  AD>  ligand efficiency  -0.3923
USER  AD>  -5.10, 10.553, 12.543
USER  AD> macro_close_ats: 9
USER  AD> hepi:A:LYS192:NZ
USER  AD> hepi:A:HIS266:CD2
USER  AD> hepi:A:GLY263:H
USER  AD> hepi:A:GLY263:N
USER  AD> hepi:A:LYS192:H
USER  AD> hepi:A:LYS192:H
USER  AD> hepi:A:SER10:CA
USER  AD> hepi:A:GLY263:CA
USER  AD> hepi:A:MET11:H

USER  AD> lig_close_ats: 9
USER  AD> h11b_aam_b2_m3_model1: :LIG1:C,H,H,C,O,O,O,C,H
MODEL 3
REMARK VINA RESULT:      -5.1     10.553     12.543
REMARK  6 active torsions:
REMARK  status: ('A' for Active; 'I' for Inactive)
REMARK    1  A    between atoms: C_1  and  O_7 
REMARK    2  A    between atoms: C_2  and  O_10 
REMARK    3  A    between atoms: C_3  and  O_11 
REMARK    4  A    between atoms: C_4  and  O_12 
REMARK    5  A    between atoms: C_6  and  C_8 
REMARK    6  A    between atoms: C_8  and  O_9 
ROOT
HETATM    1  C   LIG     1      42.508   6.152   0.687  1.00  0.00     0.180 C 
HETATM    2  C   LIG     1      41.119   5.692   1.155  1.00  0.00     0.183 C 
HETATM    3  C   LIG     1      41.250   4.613   2.237  1.00  0.00     0.204 C 
HETATM    4  C   LIG     1      42.139   3.464   1.713  1.00  0.00     0.290 C 
HETATM    5  O   LIG     1      43.432   4.000   1.359  1.00  0.00    -0.349 OA
HETATM    6  C   LIG     1      43.350   4.933   0.264  1.00  0.00     0.179 C 
ENDROOT
BRANCH   6   7
HETATM    7  C   LIG     1      44.774   5.315  -0.155  1.00  0.00     0.198 C 
BRANCH   7   8
HETATM    8  O   LIG     1      45.653   5.346   0.962  1.00  0.00    -0.398 OA
HETATM    9  H   LIG     1      46.459   5.818   0.689  1.00  0.00     0.209 HD
ENDBRANCH   7   8
ENDBRANCH   6   7
BRANCH   1  10
HETATM   10  O   LIG     1      43.107   6.863   1.791  1.00  0.00    -0.390 OA
HETATM   11  H   LIG     1      43.357   6.204   2.467  1.00  0.00     0.210 HD
ENDBRANCH   1  10
BRANCH   2  12
HETATM   12  O   LIG     1      40.390   6.800   1.712  1.00  0.00    -0.390 OA
HETATM   13  H   LIG     1      39.462   6.672   1.422  1.00  0.00     0.210 HD
ENDBRANCH   2  12
BRANCH   4  14
HETATM   14  O   LIG     1      41.612   2.774   0.577  1.00  0.00    -0.363 OA
HETATM   15  C   LIG     1      41.140   1.465   0.868  1.00  0.00     0.204 C 
ENDBRANCH   4  14
BRANCH   3  16
HETATM   16  O   LIG     1      39.952   4.190   2.669  1.00  0.00    -0.388 OA
HETATM   17  H   LIG     1      39.831   3.303   2.274  1.00  0.00     0.210 HD
ENDBRANCH   3  16
TORSDOF 6
ENDMDL
