REMARK AutoDockVina VirtualScreeningResult  Sun Mar  6 21:24:37 2016
USER  AD>  9 of 9 MODELS
USER  AD>  ligand efficiency  -0.3615
USER  AD>  -4.70, 26.577, 27.649
USER  AD> macro_close_ats: 10
USER  AD> hepi:A:ASP191:CA
USER  AD> hepi:A:LEU304:CB
USER  AD> hepi:A:HIS193:CB
USER  AD> hepi:A:LEU304:N
USER  AD> hepi:A:PRO195:CD
USER  AD> hepi:A:SER305:H
USER  AD> hepi:A:LEU304:CA
USER  AD> hepi:A:HIS193:O
USER  AD> hepi:A:LEU304:C
USER  AD> hepi:A:SER305:N

USER  AD> lig_close_ats: 6
USER  AD> h11b_aam_b1_m9_model1: :LIG1:C,C,O,H,H,H
MODEL 9
REMARK VINA RESULT:      -4.7     26.577     27.649
REMARK  6 active torsions:
REMARK  status: ('A' for Active; 'I' for Inactive)
REMARK    1  A    between atoms: C_1  and  O_7 
REMARK    2  A    between atoms: C_2  and  O_10 
REMARK    3  A    between atoms: C_3  and  O_11 
REMARK    4  A    between atoms: C_4  and  O_12 
REMARK    5  A    between atoms: C_6  and  C_8 
REMARK    6  A    between atoms: C_8  and  O_9 
ROOT
HETATM    1  C   LIG     1      29.168  17.074   2.833  1.00  0.00     0.180 C 
HETATM    2  C   LIG     1      28.101  16.575   1.848  1.00  0.00     0.183 C 
HETATM    3  C   LIG     1      28.749  16.160   0.522  1.00  0.00     0.204 C 
HETATM    4  C   LIG     1      29.596  17.330  -0.024  1.00  0.00     0.290 C 
HETATM    5  O   LIG     1      30.600  17.675   0.955  1.00  0.00    -0.349 OA
HETATM    6  C   LIG     1      30.016  18.178   2.173  1.00  0.00     0.179 C 
ENDROOT
BRANCH   6   7
HETATM    7  C   LIG     1      31.145  18.680   3.080  1.00  0.00     0.198 C 
BRANCH   7   8
HETATM    8  O   LIG     1      32.165  17.700   3.227  1.00  0.00    -0.398 OA
HETATM    9  H   LIG     1      33.022  18.160   3.187  1.00  0.00     0.209 HD
ENDBRANCH   7   8
ENDBRANCH   6   7
BRANCH   1  10
HETATM   10  O   LIG     1      29.967  15.930   3.200  1.00  0.00    -0.390 OA
HETATM   11  H   LIG     1      30.098  15.957   4.167  1.00  0.00     0.210 HD
ENDBRANCH   1  10
BRANCH   2  12
HETATM   12  O   LIG     1      27.419  15.430   2.392  1.00  0.00    -0.390 OA
HETATM   13  H   LIG     1      27.700  15.383   3.331  1.00  0.00     0.210 HD
ENDBRANCH   2  12
BRANCH   4  14
HETATM   14  O   LIG     1      28.850  18.508  -0.340  1.00  0.00    -0.363 OA
HETATM   15  C   LIG     1      28.857  18.839  -1.723  1.00  0.00     0.204 C 
ENDBRANCH   4  14
BRANCH   3  16
HETATM   16  O   LIG     1      27.748  15.694  -0.390  1.00  0.00    -0.388 OA
HETATM   17  H   LIG     1      27.826  16.279  -1.170  1.00  0.00     0.210 HD
ENDBRANCH   3  16
TORSDOF 6
ENDMDL
