REMARK AutoDockVina VirtualScreeningResult  Sun Mar  6 21:24:55 2016
USER  AD>  5 of 9 MODELS
USER  AD>  ligand efficiency  -0.2217
USER  AD>  -5.10, 15.076, 18.509
USER  AD> macro_close_ats: 17
USER  AD> hepi:A:ARG143:H
USER  AD> hepi:A:ASP13:CG
USER  AD> hepi:A:ARG143:CD
USER  AD> hepi:A:LYS7:H
USER  AD> hepi:A:ARG120:CD
USER  AD> hepi:A:ARG120:CB
USER  AD> hepi:A:LYS136:CB
USER  AD> hepi:A:LYS7:NZ
USER  AD> hepi:A:ALA93:O
USER  AD> hepi:A:LEU286:CD2
USER  AD> hepi:A:ARG143:H
USER  AD> hepi:A:GLN94:O
USER  AD> hepi:A:ARG120:H
USER  AD> hepi:A:ARG143:NH1
USER  AD> hepi:A:LYS7:H
USER  AD> hepi:A:ASP13:OD1
USER  AD> hepi:A:LYS7:H

USER  AD> lig_close_ats: 13
USER  AD> h11b_ab10_b1_m5_model1: :LIG1:C,C,C,C,O,C,H,O,H,H,O,O,C
MODEL 5
REMARK VINA RESULT:      -5.1     15.076     18.509
REMARK  15 active torsions:
REMARK  status: ('A' for Active; 'I' for Inactive)
REMARK    1  A    between atoms: C_1  and  O_7 
REMARK    2  A    between atoms: C_2  and  O_10 
REMARK    3  A    between atoms: C_3  and  O_11 
REMARK    4  A    between atoms: C_4  and  O_12 
REMARK    5  A    between atoms: C_6  and  C_8 
REMARK    6  A    between atoms: C_8  and  O_9 
REMARK    7  A    between atoms: O_12  and  C_13 
REMARK    8  A    between atoms: C_13  and  C_14 
REMARK    9  A    between atoms: C_15  and  C_16 
REMARK   10  A    between atoms: C_16  and  C_17 
REMARK   11  A    between atoms: C_17  and  C_18 
REMARK   12  A    between atoms: C_18  and  C_19 
REMARK   13  A    between atoms: C_19  and  C_20 
REMARK   14  A    between atoms: C_20  and  C_21 
REMARK   15  A    between atoms: C_21  and  C_22 
ROOT
HETATM    1  C   LIG     1      43.109  -6.361  -3.980  1.00  0.00     0.180 C 
HETATM    2  C   LIG     1      42.534  -5.228  -3.128  1.00  0.00     0.183 C 
HETATM    3  C   LIG     1      41.552  -5.745  -2.067  1.00  0.00     0.204 C 
HETATM    4  C   LIG     1      40.520  -6.720  -2.692  1.00  0.00     0.291 C 
HETATM    5  O   LIG     1      41.195  -7.720  -3.481  1.00  0.00    -0.348 OA
HETATM    6  C   LIG     1      41.939  -7.158  -4.567  1.00  0.00     0.179 C 
ENDROOT
BRANCH   4   7
HETATM    7  O   LIG     1      39.783  -7.458  -1.713  1.00  0.00    -0.355 OA
BRANCH   7   8
HETATM    8  C   LIG     1      38.473  -6.985  -1.427  1.00  0.00     0.198 C 
BRANCH   8   9
HETATM    9  C   LIG     1      37.570  -7.090  -2.620  1.00  0.00    -0.005 C 
HETATM   10  C   LIG     1      37.106  -8.257  -3.099  1.00  0.00    -0.029 C 
BRANCH  10  11
HETATM   11  C   LIG     1      36.242  -8.394  -4.320  1.00  0.00     0.027 C 
BRANCH  11  12
HETATM   12  C   LIG     1      35.788  -7.020  -4.820  1.00  0.00     0.004 C 
BRANCH  12  13
HETATM   13  C   LIG     1      34.355  -6.701  -4.386  1.00  0.00     0.000 C 
BRANCH  13  14
HETATM   14  C   LIG     1      33.604  -7.974  -3.991  1.00  0.00     0.000 C 
BRANCH  14  15
HETATM   15  C   LIG     1      33.018  -7.872  -2.582  1.00  0.00     0.000 C 
BRANCH  15  16
HETATM   16  C   LIG     1      33.951  -7.095  -1.650  1.00  0.00    -0.000 C 
BRANCH  16  17
HETATM   17  C   LIG     1      33.207  -6.574  -0.421  1.00  0.00    -0.005 C 
HETATM   18  C   LIG     1      31.762  -7.052  -0.399  1.00  0.00     0.005 C 
ENDBRANCH  16  17
ENDBRANCH  15  16
ENDBRANCH  14  15
ENDBRANCH  13  14
ENDBRANCH  12  13
ENDBRANCH  11  12
ENDBRANCH  10  11
ENDBRANCH   8   9
ENDBRANCH   7   8
ENDBRANCH   4   7
BRANCH   3  19
HETATM   19  O   LIG     1      40.937  -4.591  -1.468  1.00  0.00    -0.388 OA
HETATM   20  H   LIG     1      41.655  -3.929  -1.393  1.00  0.00     0.210 HD
ENDBRANCH   3  19
BRANCH   2  21
HETATM   21  O   LIG     1      43.590  -4.517  -2.459  1.00  0.00    -0.390 OA
HETATM   22  H   LIG     1      43.142  -3.869  -1.877  1.00  0.00     0.210 HD
ENDBRANCH   2  21
BRANCH   6  23
HETATM   23  C   LIG     1      42.406  -8.286  -5.487  1.00  0.00     0.198 C 
BRANCH  23  24
HETATM   24  O   LIG     1      43.809  -8.171  -5.700  1.00  0.00    -0.398 OA
HETATM   25  H   LIG     1      44.118  -7.409  -5.178  1.00  0.00     0.209 HD
ENDBRANCH  23  24
ENDBRANCH   6  23
BRANCH   1  26
HETATM   26  O   LIG     1      43.932  -7.174  -3.122  1.00  0.00    -0.390 OA
HETATM   27  H   LIG     1      44.671  -7.513  -3.666  1.00  0.00     0.210 HD
ENDBRANCH   1  26
TORSDOF 15
ENDMDL
