REMARK AutoDockVina VirtualScreeningResult  Sun Mar  6 21:25:09 2016
USER  AD>  2 of 9 MODELS
USER  AD>  ligand efficiency  -0.2476
USER  AD>  -5.20,  7.881, 10.460
USER  AD> macro_close_ats: 12
USER  AD> hepi:A:ASP261:O
USER  AD> hepi:A:SER10:CA
USER  AD> hepi:A:ILE287:CA
USER  AD> hepi:A:ASP261:CG
USER  AD> hepi:A:ASP261:OD1
USER  AD> hepi:A:LYS192:NZ
USER  AD> hepi:A:LYS192:H
USER  AD> hepi:A:MET11:N
USER  AD> hepi:A:MET11:H
USER  AD> hepi:A:LYS192:H
USER  AD> hepi:A:ASP261:C
USER  AD> hepi:A:SER10:C

USER  AD> lig_close_ats: 7
USER  AD> h11b_ga8_b1_m2_model1: :LIG1:H,H,H,O,C,H,O
MODEL 2
REMARK VINA RESULT:      -5.2      7.881     10.460
REMARK  13 active torsions:
REMARK  status: ('A' for Active; 'I' for Inactive)
REMARK    1  A    between atoms: C_1  and  O_21 
REMARK    2  A    between atoms: C_2  and  O_9 
REMARK    3  A    between atoms: C_3  and  O_10 
REMARK    4  A    between atoms: C_4  and  O_11 
REMARK    5  A    between atoms: C_6  and  C_7 
REMARK    6  A    between atoms: C_7  and  O_8 
REMARK    7  A    between atoms: O_11  and  C_12 
REMARK    8  A    between atoms: C_12  and  C_13 
REMARK    9  A    between atoms: C_14  and  C_15 
REMARK   10  A    between atoms: C_15  and  C_16 
REMARK   11  A    between atoms: C_16  and  C_17 
REMARK   12  A    between atoms: C_17  and  C_18 
REMARK   13  A    between atoms: C_18  and  C_19 
ROOT
HETATM    1  C   LIG     1      41.190   5.556   0.704  1.00  0.00     0.180 C 
HETATM    2  C   LIG     1      39.854   4.832   0.938  1.00  0.00     0.183 C 
HETATM    3  C   LIG     1      40.084   3.546   1.722  1.00  0.00     0.204 C 
HETATM    4  C   LIG     1      41.076   2.667   0.939  1.00  0.00     0.291 C 
HETATM    5  O   LIG     1      42.326   3.363   0.841  1.00  0.00    -0.348 OA
HETATM    6  C   LIG     1      42.251   4.600   0.112  1.00  0.00     0.179 C 
ENDROOT
BRANCH   4   7
HETATM    7  O   LIG     1      40.614   2.329  -0.374  1.00  0.00    -0.355 OA
BRANCH   7   8
HETATM    8  C   LIG     1      40.910   0.976  -0.710  1.00  0.00     0.198 C 
BRANCH   8   9
HETATM    9  C   LIG     1      39.938   0.080  -0.007  1.00  0.00    -0.005 C 
HETATM   10  C   LIG     1      39.855  -1.238  -0.266  1.00  0.00    -0.029 C 
BRANCH  10  11
HETATM   11  C   LIG     1      38.868  -2.169   0.376  1.00  0.00     0.027 C 
BRANCH  11  12
HETATM   12  C   LIG     1      39.117  -3.615  -0.069  1.00  0.00     0.004 C 
BRANCH  12  13
HETATM   13  C   LIG     1      38.838  -3.806  -1.560  1.00  0.00     0.000 C 
BRANCH  13  14
HETATM   14  C   LIG     1      37.821  -4.925  -1.789  1.00  0.00    -0.000 C 
BRANCH  14  15
HETATM   15  C   LIG     1      37.765  -5.878  -0.596  1.00  0.00    -0.005 C 
HETATM   16  C   LIG     1      37.427  -7.296  -1.031  1.00  0.00     0.005 C 
ENDBRANCH  14  15
ENDBRANCH  13  14
ENDBRANCH  12  13
ENDBRANCH  11  12
ENDBRANCH  10  11
ENDBRANCH   8   9
ENDBRANCH   7   8
ENDBRANCH   4   7
BRANCH   3  17
HETATM   17  O   LIG     1      38.829   2.910   1.983  1.00  0.00    -0.388 OA
HETATM   18  H   LIG     1      38.155   3.601   1.814  1.00  0.00     0.210 HD
ENDBRANCH   3  17
BRANCH   2  19
HETATM   19  O   LIG     1      38.929   5.643   1.686  1.00  0.00    -0.390 OA
HETATM   20  H   LIG     1      39.438   6.119   2.370  1.00  0.00     0.210 HD
ENDBRANCH   2  19
BRANCH   6  21
HETATM   21  C   LIG     1      43.665   5.212   0.148  1.00  0.00     0.198 C 
BRANCH  21  22
HETATM   22  O   LIG     1      44.616   4.428   0.852  1.00  0.00    -0.398 OA
HETATM   23  H   LIG     1      45.305   4.152   0.225  1.00  0.00     0.209 HD
ENDBRANCH  21  22
ENDBRANCH   6  21
BRANCH   1  24
HETATM   24  O   LIG     1      40.945   6.698  -0.123  1.00  0.00    -0.390 OA
HETATM   25  H   LIG     1      39.995   6.906  -0.097  1.00  0.00     0.210 HD
ENDBRANCH   1  24
TORSDOF 13
ENDMDL
