REMARK AutoDockVina VirtualScreeningResult  Sun Mar  6 21:24:33 2016
USER  AD>  5 of 9 MODELS
USER  AD>  ligand efficiency  -0.1197
USER  AD>  -7.30,  3.893, 10.586
USER  AD> macro_close_ats: 24
USER  AD> hepi:A:GLY263:CA
USER  AD> hepi:A:ARG120:H
USER  AD> hepi:A:ALA140:CB
USER  AD> hepi:A:HIS266:NE2
USER  AD> hepi:A:ARG120:NE
USER  AD> hepi:A:ARG143:H
USER  AD> hepi:A:ASP13:OD1
USER  AD> hepi:A:MET11:H
USER  AD> hepi:A:ASP13:N
USER  AD> hepi:A:ARG120:CD
USER  AD> hepi:A:MET11:N
USER  AD> hepi:A:GLY12:H
USER  AD> hepi:A:GLY12:CA
USER  AD> hepi:A:ARG120:CZ
USER  AD> hepi:A:GLY263:H
USER  AD> hepi:A:ASP13:OD2
USER  AD> hepi:A:HIS266:CD2
USER  AD> hepi:A:LEU96:CD2
USER  AD> hepi:A:LYS7:H
USER  AD> hepi:A:GLY12:C
USER  AD> hepi:A:SER10:H
USER  AD> hepi:A:HIS16:CE1
USER  AD> hepi:A:LYS192:H
USER  AD> hepi:A:THR144:H

USER  AD> lig_close_ats: 24
USER  AD> h11b_fdla_b1_m5_model1:X:RES1:O99,H13,O88,N16,H74,O36,C23,O19,H401,H163,C77,O11,C2,C92,O72,O13,H72,C64,H161,H62,C1,C3,O22,O98
MODEL 5
REMARK VINA RESULT:      -7.3      3.893     10.586
REMARK  30 active torsions:
REMARK  status: ('A' for Active; 'I' for Inactive)
REMARK    1  A    between atoms: C42_1  and  O60_2 
REMARK    2  A    between atoms: C42_1  and  C29_40 
REMARK    3  A    between atoms: O60_2  and  C50_3 
REMARK    4  A    between atoms: C50_3  and  C69_37 
REMARK    5  A    between atoms: C53_5  and  O86_9 
REMARK    6  A    between atoms: C56_6  and  O62_29 
REMARK    7  A    between atoms: C52_7  and  C64_31 
REMARK    8  A    between atoms: O86_9  and  C76_10 
REMARK    9  A    between atoms: C76_10  and  C92_16 
REMARK   10  A    between atoms: C78_12  and  C93_19 
REMARK   11  A    between atoms: C82_13  and  O90_25 
REMARK   12  A    between atoms: C79_14  and  O88_27 
REMARK   13  A    between atoms: C93_19  and  O10_20 
REMARK   14  A    between atoms: C93_19  and  C95_22 
REMARK   15  A    between atoms: C95_22  and  O10_23 
REMARK   16  A    between atoms: C64_31  and  O72_35 
REMARK   17  A    between atoms: C64_31  and  C66_32 
REMARK   18  A    between atoms: C66_32  and  O74_33 
REMARK   19  A    between atoms: C32_41  and  O39_46 
REMARK   20  A    between atoms: C30_42  and  O38_51 
REMARK   21  A    between atoms: C27_43  and  N40_53 
REMARK   22  A    between atoms: C26_44  and  O36_57 
REMARK   23  A    between atoms: O39_46  and  P45_47 
REMARK   24  A    between atoms: O36_57  and  C23_58 
REMARK   25  A    between atoms: C23_58  and  C2_59 
REMARK   26  A    between atoms: C3_61  and  O11_65 
REMARK   27  A    between atoms: C4_62  and  N16_70 
REMARK   28  A    between atoms: C5_63  and  O12_74 
REMARK   29  A    between atoms: C1_64  and  O13_76 
REMARK   30  A    between atoms: O11_65  and  P18_66 
ROOT
ATOM      1  C42 RES X   1      42.248   2.356  -3.296  1.00  0.13     0.177 C 
ENDROOT
BRANCH   1   2
ATOM      2  O60 RES X   1      42.036   1.576  -2.122  1.00 -0.19    -0.324 OA
BRANCH   2   3
ATOM      3  C50 RES X   1      40.672   1.632  -1.709  1.00  0.15     0.271 C 
ATOM      4  O61 RES X   1      40.405   0.624  -0.722  1.00 -0.16    -0.324 OA
ATOM      5  C52 RES X   1      41.273   0.721   0.402  1.00  0.06     0.176 C 
ATOM      6  C56 RES X   1      41.074   2.079   1.099  1.00  0.04     0.168 C 
ATOM      7  C53 RES X   1      41.390   3.195   0.094  1.00  0.05     0.153 C 
ATOM      8  C51 RES X   1      40.429   3.035  -1.107  1.00  0.06     0.100 C 
BRANCH   3   9
ATOM      9  C69 RES X   1      39.748   1.373  -2.914  1.00  0.20     0.240 C 
ATOM     10  O71 RES X   1      39.022   2.458  -3.490  1.00 -0.82    -0.644 OA
ATOM     11  O70 RES X   1      39.633   0.211  -3.391  1.00 -0.59    -0.644 OA
ENDBRANCH   3   9
BRANCH   5  12
ATOM     12  C64 RES X   1      40.933  -0.416   1.380  1.00  0.03     0.170 C 
BRANCH  12  13
ATOM     13  O72 RES X   1      42.091  -1.236   1.572  1.00 -0.08    -0.380 OA
ATOM     14  H72 RES X   1      42.727  -0.763   2.096  1.00  0.00     0.211 HD
ENDBRANCH  12  13
BRANCH  12  15
ATOM     15  C66 RES X   1      39.797  -1.271   0.791  1.00 -0.03     0.169 C 
BRANCH  15  16
ATOM     16  O74 RES X   1      40.349  -2.301  -0.035  1.00  0.30    -0.380 OA
ATOM     17  H74 RES X   1      41.250  -2.088  -0.251  1.00  0.00     0.211 HD
ENDBRANCH  15  16
ENDBRANCH  12  15
ENDBRANCH   5  12
BRANCH   6  18
ATOM     18  O62 RES X   1      39.704   2.256   1.478  1.00 -0.09    -0.380 OA
ATOM     19  H62 RES X   1      39.641   2.540   2.383  1.00  0.00     0.211 HD
ENDBRANCH   6  18
BRANCH   7  20
ATOM     20  O86 RES X   1      41.238   4.474   0.722  1.00 -0.07    -0.327 OA
BRANCH  20  21
ATOM     21  C76 RES X   1      42.513   5.115   0.807  1.00  0.14     0.271 C 
ATOM     22  C77 RES X   1      42.330   6.515   1.429  1.00  0.07     0.099 C 
ATOM     23  C79 RES X   1      41.375   7.324   0.549  1.00  0.05     0.145 C 
ATOM     24  C82 RES X   1      41.985   7.407  -0.852  1.00  0.05     0.167 C 
ATOM     25  C78 RES X   1      42.192   5.979  -1.388  1.00  0.01     0.176 C 
ATOM     26  O87 RES X   1      43.076   5.245  -0.515  1.00 -0.27    -0.324 OA
BRANCH  23  27
ATOM     27  O88 RES X   1      41.198   8.637   1.088  1.00 -0.14    -0.382 OA
ATOM     28  H88 RES X   1      40.932   8.584   1.999  1.00  0.00     0.210 HD
ENDBRANCH  23  27
BRANCH  24  29
ATOM     29  O90 RES X   1      43.245   8.081  -0.784  1.00 -0.31    -0.380 OA
ATOM     30  H90 RES X   1      43.568   8.236  -1.663  1.00  0.00     0.211 HD
ENDBRANCH  24  29
BRANCH  25  31
ATOM     31  C93 RES X   1      42.803   6.062  -2.802  1.00  0.01     0.170 C 
BRANCH  31  32
ATOM     32  O10 RES X   1      44.162   6.494  -2.699  1.00 -0.35    -0.380 OA
ATOM     33  H10 RES X   1      44.596   6.385  -3.537  1.00  0.00     0.211 HD
ENDBRANCH  31  32
BRANCH  31  34
ATOM     34  C95 RES X   1      42.006   7.060  -3.656  1.00 -0.10     0.169 C 
BRANCH  34  35
ATOM     35  O10 RES X   1      42.120   6.706  -5.035  1.00 -0.04    -0.380 OA
ATOM     36  H10 RES X   1      41.400   6.136  -5.278  1.00  0.00     0.211 HD
ENDBRANCH  34  35
ENDBRANCH  31  34
ENDBRANCH  25  31
BRANCH  21  37
ATOM     37  C92 RES X   1      43.457   4.282   1.689  1.00  0.15     0.240 C 
ATOM     38  O99 RES X   1      44.598   3.963   1.269  1.00 -0.32    -0.644 OA
ATOM     39  O98 RES X   1      43.028   3.868   2.989  1.00 -0.51    -0.644 OA
ENDBRANCH  21  37
ENDBRANCH  20  21
ENDBRANCH   7  20
ENDBRANCH   2   3
ENDBRANCH   1   2
BRANCH   1  40
ATOM     40  C29 RES X   1      43.075   1.642  -4.389  1.00  0.10     0.178 C 
ATOM     41  C32 RES X   1      42.775   2.405  -5.693  1.00  0.12     0.186 C 
ATOM     42  C30 RES X   1      43.493   1.755  -6.858  1.00  0.10     0.174 C 
ATOM     43  C27 RES X   1      43.014   0.311  -6.946  1.00  0.13     0.263 C 
ATOM     44  C26 RES X   1      43.384  -0.394  -5.624  1.00  0.12     0.267 C 
ATOM     45  O37 RES X   1      42.696   0.247  -4.514  1.00 -0.15    -0.327 OA
BRANCH  41  46
ATOM     46  O39 RES X   1      43.209   3.760  -5.568  1.00 -0.20    -0.261 OA
BRANCH  46  47
ATOM     47  P45 RES X   1      44.916   4.167  -5.555  1.00  0.46     0.423 P 
ATOM     48  O46 RES X   1      45.096   5.905  -5.347  1.00 -0.34    -0.617 OA
ATOM     49  O48 RES X   1      45.646   3.673  -7.078  1.00 -1.25    -0.617 OA
ATOM     50  O49 RES X   1      45.707   3.325  -4.224  1.00 -0.72    -0.617 OA
ENDBRANCH  46  47
ENDBRANCH  41  46
BRANCH  42  51
ATOM     51  O38 RES X   1      43.187   2.454  -8.068  1.00 -0.22    -0.380 OA
ATOM     52  H38 RES X   1      43.813   2.219  -8.743  1.00  0.00     0.211 HD
ENDBRANCH  42  51
BRANCH  43  53
ATOM     53  N40 RES X   1      43.673  -0.347  -8.080  1.00  0.04    -0.059 N 
ATOM     54 3H40 RES X   1      43.313  -0.025  -8.978  1.00  0.00     0.275 HD
ATOM     55 1H40 RES X   1      43.594  -1.358  -7.971  1.00  0.00     0.275 HD
ATOM     56 2H40 RES X   1      44.640  -0.044  -8.195  1.00  0.00     0.275 HD
ENDBRANCH  43  53
BRANCH  44  57
ATOM     57  O36 RES X   1      43.000  -1.779  -5.705  1.00 -0.14    -0.327 OA
BRANCH  57  58
ATOM     58  C23 RES X   1      43.669  -2.548  -4.693  1.00  0.09     0.177 C 
BRANCH  58  59
ATOM     59  C2  RES X   1      42.688  -3.646  -4.212  1.00  0.08     0.177 C 
ATOM     60  C1  RES X   1      41.458  -2.955  -3.596  1.00  0.08     0.169 C 
ATOM     61  C5  RES X   1      40.460  -4.023  -3.159  1.00  0.07     0.173 C 
ATOM     62  C4  RES X   1      41.148  -4.929  -2.140  1.00  0.11     0.263 C 
ATOM     63  C3  RES X   1      42.406  -5.547  -2.785  1.00  0.13     0.278 C 
ATOM     64  O15 RES X   1      43.313  -4.501  -3.224  1.00 -0.16    -0.327 OA
BRANCH  60  65
ATOM     65  O13 RES X   1      40.851  -2.099  -4.564  1.00 -0.16    -0.380 OA
ATOM     66  H13 RES X   1      40.983  -2.455  -5.435  1.00  0.00     0.211 HD
ENDBRANCH  60  65
BRANCH  61  67
ATOM     67  O12 RES X   1      39.311  -3.408  -2.572  1.00 -0.17    -0.380 OA
ATOM     68  H12 RES X   1      38.608  -4.041  -2.489  1.00  0.00     0.211 HD
ENDBRANCH  61  67
BRANCH  62  69
ATOM     69  N16 RES X   1      40.223  -5.996  -1.722  1.00  0.02    -0.059 N 
ATOM     70 3H16 RES X   1      39.556  -5.675  -1.020  1.00  0.00     0.275 HD
ATOM     71 1H16 RES X   1      40.755  -6.806  -1.403  1.00  0.00     0.275 HD
ATOM     72 2H16 RES X   1      39.558  -6.239  -2.456  1.00  0.00     0.275 HD
ENDBRANCH  62  69
BRANCH  63  73
ATOM     73  O11 RES X   1      43.046  -6.374  -1.811  1.00 -0.11    -0.236 OA
BRANCH  73  74
ATOM     74  P18 RES X   1      42.865  -8.083  -2.194  1.00  0.29     0.425 P 
ATOM     75  O19 RES X   1      41.432  -8.711  -1.395  1.00 -0.22    -0.617 OA
ATOM     76  O21 RES X   1      42.696  -8.266  -3.938  1.00 -0.51    -0.617 OA
ATOM     77  O22 RES X   1      44.286  -8.971  -1.647  1.00 -0.48    -0.617 OA
ENDBRANCH  73  74
ENDBRANCH  63  73
ENDBRANCH  58  59
ENDBRANCH  57  58
ENDBRANCH  44  57
ENDBRANCH   1  40
TORSDOF 30
ENDMDL
