REMARK AutoDockVina VirtualScreeningResult  Sun Mar  6 21:25:23 2016
USER  AD>  1 of 9 MODELS
USER  AD>  ligand efficiency  -0.1279
USER  AD>  -7.80,  0.000,  0.000
USER  AD> macro_close_ats: 30
USER  AD> hepi:A:GLY263:H
USER  AD> hepi:A:ALA140:CA
USER  AD> hepi:A:LYS192:NZ
USER  AD> hepi:A:ARG143:NH1
USER  AD> hepi:A:THR262:CA
USER  AD> hepi:A:ASP261:OD2
USER  AD> hepi:A:ARG120:H
USER  AD> hepi:A:ASP261:CG
USER  AD> hepi:A:MET11:CB
USER  AD> hepi:A:ARG120:CD
USER  AD> hepi:A:ASP261:C
USER  AD> hepi:A:MET11:H
USER  AD> hepi:A:HIS16:ND1
USER  AD> hepi:A:HIS16:H
USER  AD> hepi:A:THR262:C
USER  AD> hepi:A:ARG120:H
USER  AD> hepi:A:ASP13:OD1
USER  AD> hepi:A:LYS192:H
USER  AD> hepi:A:GLY12:H
USER  AD> hepi:A:ASP261:OD1
USER  AD> hepi:A:ALA140:CB
USER  AD> hepi:A:ILE287:CD1
USER  AD> hepi:A:LEU286:O
USER  AD> hepi:A:ARG143:H
USER  AD> hepi:A:LYS136:CD
USER  AD> hepi:A:LYS7:H
USER  AD> hepi:A:HIS16:CE1
USER  AD> hepi:A:LYS136:CB
USER  AD> hepi:A:ALA140:H
USER  AD> hepi:A:ARG120:NH1

USER  AD> lig_close_ats: 22
USER  AD> h11b_fdla_b2_m1_model1:X:RES1:H74,H10,C82,O70,H72,H10,C66,O49,O22,O12,C42,H163,C64,H62,H13,C95,O21,O72,O62,H12,O39,O10
MODEL 1
REMARK VINA RESULT:      -7.8      0.000      0.000
REMARK  30 active torsions:
REMARK  status: ('A' for Active; 'I' for Inactive)
REMARK    1  A    between atoms: C42_1  and  O60_2 
REMARK    2  A    between atoms: C42_1  and  C29_40 
REMARK    3  A    between atoms: O60_2  and  C50_3 
REMARK    4  A    between atoms: C50_3  and  C69_37 
REMARK    5  A    between atoms: C53_5  and  O86_9 
REMARK    6  A    between atoms: C56_6  and  O62_29 
REMARK    7  A    between atoms: C52_7  and  C64_31 
REMARK    8  A    between atoms: O86_9  and  C76_10 
REMARK    9  A    between atoms: C76_10  and  C92_16 
REMARK   10  A    between atoms: C78_12  and  C93_19 
REMARK   11  A    between atoms: C82_13  and  O90_25 
REMARK   12  A    between atoms: C79_14  and  O88_27 
REMARK   13  A    between atoms: C93_19  and  O10_20 
REMARK   14  A    between atoms: C93_19  and  C95_22 
REMARK   15  A    between atoms: C95_22  and  O10_23 
REMARK   16  A    between atoms: C64_31  and  O72_35 
REMARK   17  A    between atoms: C64_31  and  C66_32 
REMARK   18  A    between atoms: C66_32  and  O74_33 
REMARK   19  A    between atoms: C32_41  and  O39_46 
REMARK   20  A    between atoms: C30_42  and  O38_51 
REMARK   21  A    between atoms: C27_43  and  N40_53 
REMARK   22  A    between atoms: C26_44  and  O36_57 
REMARK   23  A    between atoms: O39_46  and  P45_47 
REMARK   24  A    between atoms: O36_57  and  C23_58 
REMARK   25  A    between atoms: C23_58  and  C2_59 
REMARK   26  A    between atoms: C3_61  and  O11_65 
REMARK   27  A    between atoms: C4_62  and  N16_70 
REMARK   28  A    between atoms: C5_63  and  O12_74 
REMARK   29  A    between atoms: C1_64  and  O13_76 
REMARK   30  A    between atoms: O11_65  and  P18_66 
ROOT
ATOM      1  C42 RES X   1      41.058  -2.522  -2.788  1.00  0.13     0.177 C 
ENDROOT
BRANCH   1   2
ATOM      2  O60 RES X   1      40.226  -3.621  -3.150  1.00 -0.19    -0.324 OA
BRANCH   2   3
ATOM      3  C50 RES X   1      40.538  -4.777  -2.376  1.00  0.15     0.271 C 
ATOM      4  O61 RES X   1      40.398  -4.497  -0.976  1.00 -0.16    -0.324 OA
ATOM      5  C52 RES X   1      39.101  -4.010  -0.646  1.00  0.06     0.176 C 
ATOM      6  C56 RES X   1      38.041  -5.072  -0.987  1.00  0.04     0.168 C 
ATOM      7  C53 RES X   1      38.121  -5.377  -2.488  1.00  0.05     0.153 C 
ATOM      8  C51 RES X   1      39.549  -5.891  -2.792  1.00  0.06     0.100 C 
BRANCH   3   9
ATOM      9  C69 RES X   1      41.996  -5.202  -2.632  1.00  0.20     0.240 C 
ATOM     10  O71 RES X   1      42.409  -5.540  -3.956  1.00 -0.82    -0.644 OA
ATOM     11  O70 RES X   1      42.822  -5.251  -1.679  1.00 -0.59    -0.644 OA
ENDBRANCH   3   9
BRANCH   5  12
ATOM     12  C64 RES X   1      39.063  -3.707   0.862  1.00  0.03     0.170 C 
BRANCH  12  13
ATOM     13  O72 RES X   1      37.726  -3.877   1.344  1.00 -0.08    -0.380 OA
ATOM     14  H72 RES X   1      37.198  -4.283   0.667  1.00  0.00     0.211 HD
ENDBRANCH  12  13
BRANCH  12  15
ATOM     15  C66 RES X   1      39.508  -2.253   1.099  1.00 -0.03     0.169 C 
BRANCH  15  16
ATOM     16  O74 RES X   1      40.915  -2.137   0.869  1.00  0.30    -0.380 OA
ATOM     17  H74 RES X   1      41.387  -2.644   1.519  1.00  0.00     0.211 HD
ENDBRANCH  15  16
ENDBRANCH  12  15
ENDBRANCH   5  12
BRANCH   6  18
ATOM     18  O62 RES X   1      38.325  -6.303  -0.312  1.00 -0.09    -0.380 OA
ATOM     19  H62 RES X   1      38.900  -6.153   0.430  1.00  0.00     0.211 HD
ENDBRANCH   6  18
BRANCH   7  20
ATOM     20  O86 RES X   1      37.127  -6.347  -2.842  1.00 -0.07    -0.327 OA
BRANCH  20  21
ATOM     21  C76 RES X   1      36.371  -5.865  -3.956  1.00  0.14     0.271 C 
ATOM     22  C77 RES X   1      34.921  -6.379  -3.836  1.00  0.07     0.099 C 
ATOM     23  C79 RES X   1      34.940  -7.909  -3.816  1.00  0.05     0.145 C 
ATOM     24  C82 RES X   1      35.601  -8.386  -5.111  1.00  0.05     0.167 C 
ATOM     25  C78 RES X   1      37.019  -7.793  -5.193  1.00  0.01     0.176 C 
ATOM     26  O87 RES X   1      36.955  -6.351  -5.182  1.00 -0.27    -0.324 OA
BRANCH  23  27
ATOM     27  O88 RES X   1      33.607  -8.419  -3.725  1.00 -0.14    -0.382 OA
ATOM     28  H88 RES X   1      33.045  -7.792  -3.286  1.00  0.00     0.210 HD
ENDBRANCH  23  27
BRANCH  24  29
ATOM     29  O90 RES X   1      34.830  -7.941  -6.232  1.00 -0.31    -0.380 OA
ATOM     30  H90 RES X   1      35.187  -7.123  -6.556  1.00  0.00     0.211 HD
ENDBRANCH  24  29
BRANCH  25  31
ATOM     31  C93 RES X   1      37.686  -8.277  -6.496  1.00  0.01     0.170 C 
BRANCH  31  32
ATOM     32  O10 RES X   1      38.767  -9.156  -6.171  1.00 -0.35    -0.380 OA
ATOM     33  H10 RES X   1      39.413  -8.690  -5.653  1.00  0.00     0.211 HD
ENDBRANCH  31  32
BRANCH  31  34
ATOM     34  C95 RES X   1      38.221  -7.072  -7.286  1.00 -0.10     0.169 C 
BRANCH  34  35
ATOM     35  O10 RES X   1      37.132  -6.392  -7.915  1.00 -0.04    -0.380 OA
ATOM     36  H10 RES X   1      37.364  -5.481  -8.053  1.00  0.00     0.211 HD
ENDBRANCH  34  35
ENDBRANCH  31  34
ENDBRANCH  25  31
BRANCH  21  37
ATOM     37  C92 RES X   1      36.371  -4.328  -3.959  1.00  0.15     0.240 C 
ATOM     38  O99 RES X   1      35.593  -3.694  -3.202  1.00 -0.32    -0.644 OA
ATOM     39  O98 RES X   1      37.259  -3.623  -4.830  1.00 -0.51    -0.644 OA
ENDBRANCH  21  37
ENDBRANCH  20  21
ENDBRANCH   7  20
ENDBRANCH   2   3
ENDBRANCH   1   2
BRANCH   1  40
ATOM     40  C29 RES X   1      40.384  -1.141  -2.941  1.00  0.10     0.178 C 
ATOM     41  C32 RES X   1      41.335  -0.317  -3.829  1.00  0.12     0.186 C 
ATOM     42  C30 RES X   1      40.802   1.091  -4.005  1.00  0.10     0.174 C 
ATOM     43  C27 RES X   1      40.674   1.710  -2.618  1.00  0.13     0.263 C 
ATOM     44  C26 RES X   1      39.679   0.855  -1.806  1.00  0.12     0.267 C 
ATOM     45  O37 RES X   1      40.199  -0.495  -1.655  1.00 -0.15    -0.327 OA
BRANCH  41  46
ATOM     46  O39 RES X   1      41.456  -0.939  -5.109  1.00 -0.20    -0.261 OA
BRANCH  46  47
ATOM     47  P45 RES X   1      43.030  -1.248  -5.821  1.00  0.46     0.423 P 
ATOM     48  O46 RES X   1      43.748  -2.657  -5.051  1.00 -0.34    -0.617 OA
ATOM     49  O48 RES X   1      44.067   0.153  -5.579  1.00 -1.25    -0.617 OA
ATOM     50  O49 RES X   1      42.842  -1.548  -7.548  1.00 -0.72    -0.617 OA
ENDBRANCH  46  47
ENDBRANCH  41  46
BRANCH  42  51
ATOM     51  O38 RES X   1      41.705   1.855  -4.809  1.00 -0.22    -0.380 OA
ATOM     52  H38 RES X   1      41.606   2.779  -4.615  1.00  0.00     0.211 HD
ENDBRANCH  42  51
BRANCH  43  53
ATOM     53  N40 RES X   1      40.180   3.086  -2.749  1.00  0.04    -0.059 N 
ATOM     54 3H40 RES X   1      39.969   3.331  -3.717  1.00  0.00     0.275 HD
ATOM     55 1H40 RES X   1      40.853   3.725  -2.326  1.00  0.00     0.275 HD
ATOM     56 2H40 RES X   1      39.242   3.199  -2.365  1.00  0.00     0.275 HD
ENDBRANCH  43  53
BRANCH  44  57
ATOM     57  O36 RES X   1      39.490   1.456  -0.511  1.00 -0.14    -0.327 OA
BRANCH  57  58
ATOM     58  C23 RES X   1      40.652   1.255   0.311  1.00  0.09     0.177 C 
BRANCH  58  59
ATOM     59  C2  RES X   1      41.028   2.623   0.932  1.00  0.08     0.177 C 
ATOM     60  C1  RES X   1      39.743   3.461   1.064  1.00  0.08     0.169 C 
ATOM     61  C5  RES X   1      40.090   4.796   1.717  1.00  0.07     0.173 C 
ATOM     62  C4  RES X   1      41.119   5.503   0.838  1.00  0.11     0.263 C 
ATOM     63  C3  RES X   1      42.359   4.598   0.687  1.00  0.13     0.278 C 
ATOM     64  O15 RES X   1      41.985   3.323   0.100  1.00 -0.16    -0.327 OA
BRANCH  60  65
ATOM     65  O13 RES X   1      38.794   2.764   1.872  1.00 -0.16    -0.380 OA
ATOM     66  H13 RES X   1      37.924   3.113   1.717  1.00  0.00     0.211 HD
ENDBRANCH  60  65
BRANCH  61  67
ATOM     67  O12 RES X   1      38.915   5.599   1.842  1.00 -0.17    -0.380 OA
ATOM     68  H12 RES X   1      38.358   5.259   2.531  1.00  0.00     0.211 HD
ENDBRANCH  61  67
BRANCH  62  69
ATOM     69  N16 RES X   1      41.505   6.782   1.458  1.00  0.02    -0.059 N 
ATOM     70 3H16 RES X   1      41.414   6.760   2.475  1.00  0.00     0.275 HD
ATOM     71 1H16 RES X   1      40.965   7.542   1.042  1.00  0.00     0.275 HD
ATOM     72 2H16 RES X   1      42.509   6.949   1.404  1.00  0.00     0.275 HD
ENDBRANCH  62  69
BRANCH  63  73
ATOM     73  O11 RES X   1      43.300   5.268  -0.154  1.00 -0.11    -0.236 OA
BRANCH  73  74
ATOM     74  P18 RES X   1      44.783   5.653   0.713  1.00  0.29     0.425 P 
ATOM     75  O19 RES X   1      44.712   7.314   1.281  1.00 -0.22    -0.617 OA
ATOM     76  O21 RES X   1      44.943   4.565   2.089  1.00 -0.51    -0.617 OA
ATOM     77  O22 RES X   1      46.169   5.451  -0.357  1.00 -0.48    -0.617 OA
ENDBRANCH  73  74
ENDBRANCH  63  73
ENDBRANCH  58  59
ENDBRANCH  57  58
ENDBRANCH  44  57
ENDBRANCH   1  40
TORSDOF 30
ENDMDL
