REMARK AutoDockVina VirtualScreeningResult  Sun Mar  6 21:26:19 2016
USER  AD>  8 of 9 MODELS
USER  AD>  ligand efficiency  -0.3615
USER  AD>  -4.70,  9.896, 11.886
USER  AD> macro_close_ats: 10
USER  AD> hepi:A:SER10:OG
USER  AD> hepi:A:ASP261:CG
USER  AD> hepi:A:MET11:H
USER  AD> hepi:A:SER10:H
USER  AD> hepi:A:LYS192:H
USER  AD> hepi:A:GLY12:CA
USER  AD> hepi:A:LYS192:H
USER  AD> hepi:A:LYS192:NZ
USER  AD> hepi:A:GLY12:H
USER  AD> hepi:A:LYS192:H

USER  AD> lig_close_ats: 6
USER  AD> h11b_aam_b3_m8_model1: :LIG1:O,C,H,H,H,O
MODEL 8
REMARK VINA RESULT:      -4.7      9.896     11.886
REMARK  6 active torsions:
REMARK  status: ('A' for Active; 'I' for Inactive)
REMARK    1  A    between atoms: C_1  and  O_7 
REMARK    2  A    between atoms: C_2  and  O_10 
REMARK    3  A    between atoms: C_3  and  O_11 
REMARK    4  A    between atoms: C_4  and  O_12 
REMARK    5  A    between atoms: C_6  and  C_8 
REMARK    6  A    between atoms: C_8  and  O_9 
ROOT
HETATM    1  C   LIG     1      39.929   3.345   1.445  1.00  0.00     0.180 C 
HETATM    2  C   LIG     1      40.147   4.843   1.706  1.00  0.00     0.183 C 
HETATM    3  C   LIG     1      41.009   5.458   0.597  1.00  0.00     0.204 C 
HETATM    4  C   LIG     1      42.322   4.656   0.462  1.00  0.00     0.290 C 
HETATM    5  O   LIG     1      41.999   3.282   0.160  1.00  0.00    -0.349 OA
HETATM    6  C   LIG     1      41.286   2.645   1.239  1.00  0.00     0.179 C 
ENDROOT
BRANCH   6   7
HETATM    7  C   LIG     1      41.139   1.155   0.910  1.00  0.00     0.198 C 
BRANCH   7   8
HETATM    8  O   LIG     1      42.406   0.511   0.851  1.00  0.00    -0.398 OA
HETATM    9  H   LIG     1      43.051   1.090   1.293  1.00  0.00     0.209 HD
ENDBRANCH   7   8
ENDBRANCH   6   7
BRANCH   1  10
HETATM   10  O   LIG     1      39.088   3.241   0.276  1.00  0.00    -0.390 OA
HETATM   11  H   LIG     1      39.583   2.746  -0.403  1.00  0.00     0.210 HD
ENDBRANCH   1  10
BRANCH   2  12
HETATM   12  O   LIG     1      38.884   5.532   1.727  1.00  0.00    -0.390 OA
HETATM   13  H   LIG     1      38.980   6.269   1.087  1.00  0.00     0.210 HD
ENDBRANCH   2  12
BRANCH   4  14
HETATM   14  O   LIG     1      43.156   4.679   1.623  1.00  0.00    -0.363 OA
HETATM   15  C   LIG     1      44.503   5.046   1.355  1.00  0.00     0.204 C 
ENDBRANCH   4  14
BRANCH   3  16
HETATM   16  O   LIG     1      41.207   6.854   0.847  1.00  0.00    -0.388 OA
HETATM   17  H   LIG     1      40.325   7.192   1.104  1.00  0.00     0.210 HD
ENDBRANCH   3  16
TORSDOF 6
ENDMDL
