REMARK AutoDockVina VirtualScreeningResult  Sun Mar  6 21:24:39 2016
USER  AD>  8 of 9 MODELS
USER  AD>  ligand efficiency  -0.3615
USER  AD>  -4.70,  1.755,  3.854
USER  AD> macro_close_ats: 8
USER  AD> hepi:A:SER10:OG
USER  AD> hepi:A:ASP261:OD1
USER  AD> hepi:A:SER10:H
USER  AD> hepi:A:GLY12:C
USER  AD> hepi:A:LYS192:H
USER  AD> hepi:A:ASP261:CG
USER  AD> hepi:A:GLY12:CA
USER  AD> hepi:A:MET11:H

USER  AD> lig_close_ats: 6
USER  AD> h11b_abm_b1_m8_model1: :LIG1:O,H,H,C,O,O
MODEL 8
REMARK VINA RESULT:      -4.7      1.755      3.854
REMARK  6 active torsions:
REMARK  status: ('A' for Active; 'I' for Inactive)
REMARK    1  A    between atoms: C_1  and  O_7 
REMARK    2  A    between atoms: C_2  and  O_10 
REMARK    3  A    between atoms: C_3  and  O_12 
REMARK    4  A    between atoms: C_4  and  O_11 
REMARK    5  A    between atoms: C_6  and  C_8 
REMARK    6  A    between atoms: C_8  and  O_9 
ROOT
HETATM    1  C   LIG     1      40.092   3.389   1.409  1.00  0.00     0.180 C 
HETATM    2  C   LIG     1      40.396   4.777   1.972  1.00  0.00     0.183 C 
HETATM    3  C   LIG     1      41.509   5.472   1.181  1.00  0.00     0.204 C 
HETATM    4  C   LIG     1      42.719   4.532   0.996  1.00  0.00     0.290 C 
HETATM    5  O   LIG     1      42.326   3.245   0.499  1.00  0.00    -0.349 OA
HETATM    6  C   LIG     1      41.396   2.578   1.363  1.00  0.00     0.179 C 
ENDROOT
BRANCH   6   7
HETATM    7  C   LIG     1      41.168   1.155   0.842  1.00  0.00     0.198 C 
BRANCH   7   8
HETATM    8  O   LIG     1      42.385   0.418   0.836  1.00  0.00    -0.398 OA
HETATM    9  H   LIG     1      42.721   0.392   1.751  1.00  0.00     0.209 HD
ENDBRANCH   7   8
ENDBRANCH   6   7
BRANCH   1  10
HETATM   10  O   LIG     1      39.529   3.568   0.095  1.00  0.00    -0.390 OA
HETATM   11  H   LIG     1      40.235   3.386  -0.555  1.00  0.00     0.210 HD
ENDBRANCH   1  10
BRANCH   2  12
HETATM   12  O   LIG     1      39.220   5.603   1.928  1.00  0.00    -0.390 OA
HETATM   13  H   LIG     1      38.555   5.141   2.481  1.00  0.00     0.210 HD
ENDBRANCH   2  12
BRANCH   4  14
HETATM   14  O   LIG     1      43.597   5.133   0.040  1.00  0.00    -0.363 OA
HETATM   15  C   LIG     1      44.897   5.344   0.564  1.00  0.00     0.204 C 
ENDBRANCH   4  14
BRANCH   3  16
HETATM   16  O   LIG     1      41.885   6.665   1.891  1.00  0.00    -0.388 OA
HETATM   17  H   LIG     1      42.066   7.331   1.200  1.00  0.00     0.210 HD
ENDBRANCH   3  16
TORSDOF 6
ENDMDL
