REMARK AutoDockVina VirtualScreeningResult  Sun Mar  6 21:25:28 2016
USER  AD>  7 of 9 MODELS
USER  AD>  ligand efficiency  -0.3615
USER  AD>  -4.70,  1.386,  3.736
USER  AD> macro_close_ats: 7
USER  AD> hepi:A:ARG120:CD
USER  AD> hepi:A:MET114:SD
USER  AD> hepi:A:LYS7:H
USER  AD> hepi:A:LYS7:NZ
USER  AD> hepi:A:ARG143:NH1
USER  AD> hepi:A:LYS7:H
USER  AD> hepi:A:ARG143:H

USER  AD> lig_close_ats: 7
USER  AD> h11b_aam_b2_m7_model1: :LIG1:O,C,O,H,O,H,C
MODEL 7
REMARK VINA RESULT:      -4.7      1.386      3.736
REMARK  6 active torsions:
REMARK  status: ('A' for Active; 'I' for Inactive)
REMARK    1  A    between atoms: C_1  and  O_7 
REMARK    2  A    between atoms: C_2  and  O_10 
REMARK    3  A    between atoms: C_3  and  O_11 
REMARK    4  A    between atoms: C_4  and  O_12 
REMARK    5  A    between atoms: C_6  and  C_8 
REMARK    6  A    between atoms: C_8  and  O_9 
ROOT
HETATM    1  C   LIG     1      41.723  -4.964  -3.266  1.00  0.00     0.180 C 
HETATM    2  C   LIG     1      40.958  -6.195  -2.756  1.00  0.00     0.183 C 
HETATM    3  C   LIG     1      41.930  -7.217  -2.154  1.00  0.00     0.204 C 
HETATM    4  C   LIG     1      43.026  -7.555  -3.188  1.00  0.00     0.290 C 
HETATM    5  O   LIG     1      43.715  -6.338  -3.550  1.00  0.00    -0.349 OA
HETATM    6  C   LIG     1      42.847  -5.405  -4.222  1.00  0.00     0.179 C 
ENDROOT
BRANCH   6   7
HETATM    7  C   LIG     1      43.694  -4.229  -4.721  1.00  0.00     0.198 C 
BRANCH   7   8
HETATM    8  O   LIG     1      44.588  -3.771  -3.715  1.00  0.00    -0.398 OA
HETATM    9  H   LIG     1      45.231  -4.483  -3.547  1.00  0.00     0.209 HD
ENDBRANCH   7   8
ENDBRANCH   6   7
BRANCH   1  10
HETATM   10  O   LIG     1      42.242  -4.283  -2.104  1.00  0.00    -0.390 OA
HETATM   11  H   LIG     1      43.096  -4.695  -1.875  1.00  0.00     0.210 HD
ENDBRANCH   1  10
BRANCH   2  12
HETATM   12  O   LIG     1      40.022  -5.809  -1.733  1.00  0.00    -0.390 OA
HETATM   13  H   LIG     1      40.414  -5.017  -1.308  1.00  0.00     0.210 HD
ENDBRANCH   2  12
BRANCH   4  14
HETATM   14  O   LIG     1      42.546  -8.174  -4.384  1.00  0.00    -0.363 OA
HETATM   15  C   LIG     1      43.574  -8.536  -5.296  1.00  0.00     0.204 C 
ENDBRANCH   4  14
BRANCH   3  16
HETATM   16  O   LIG     1      41.209  -8.360  -1.680  1.00  0.00    -0.388 OA
HETATM   17  H   LIG     1      41.853  -8.855  -1.133  1.00  0.00     0.210 HD
ENDBRANCH   3  16
TORSDOF 6
ENDMDL
