REMARK AutoDockVina VirtualScreeningResult  Sun Mar  6 21:25:21 2016
USER  AD>  5 of 9 MODELS
USER  AD>  ligand efficiency  -0.2025
USER  AD>  -8.10,  1.867,  3.140
USER  AD> macro_close_ats: 33
USER  AD> hepi:A:THR262:H
USER  AD> hepi:A:TRP217:CA
USER  AD> hepi:A:THR187:OG1
USER  AD> hepi:A:LYS192:H
USER  AD> hepi:A:ASP261:O
USER  AD> hepi:A:HIS266:NE2
USER  AD> hepi:A:HIS266:CE1
USER  AD> hepi:A:GLY218:N
USER  AD> hepi:A:ASP261:CG
USER  AD> hepi:A:LEU244:CA
USER  AD> hepi:A:MET11:H
USER  AD> hepi:A:ALA186:CB
USER  AD> hepi:A:SER10:H
USER  AD> hepi:A:MET11:N
USER  AD> hepi:A:LYS192:NZ
USER  AD> hepi:A:HIS266:CD2
USER  AD> hepi:A:SER243:C
USER  AD> hepi:A:LEU264:CD1
USER  AD> hepi:A:GLY263:H
USER  AD> hepi:A:GLY12:CA
USER  AD> hepi:A:SER10:OG
USER  AD> hepi:A:THR188:CA
USER  AD> hepi:A:LYS192:H
USER  AD> hepi:A:ASP261:C
USER  AD> hepi:A:LYS241:H
USER  AD> hepi:A:GLY218:CA
USER  AD> hepi:A:TRP217:C
USER  AD> hepi:A:THR188:CB
USER  AD> hepi:A:VAL247:CG1
USER  AD> hepi:A:THR188:H
USER  AD> hepi:A:GLY12:H
USER  AD> hepi:A:GLY12:N
USER  AD> hepi:A:GLY218:H

USER  AD> lig_close_ats: 21
USER  AD> h11b_adph_b2_m5_model1: :   1:C,H,C,O,H,H,O,H,C,H,O,O,O,O,O,H,N,O,H,H,C
MODEL 5
REMARK VINA RESULT:      -8.1      1.867      3.140
REMARK  19 active torsions:
REMARK  status: ('A' for Active; 'I' for Inactive)
REMARK    1  A    between atoms: C_1  and  C_3 
REMARK    2  A    between atoms: C_1  and  O_13 
REMARK    3  A    between atoms: O_2  and  C_3 
REMARK    4  A    between atoms: C_3  and  C_11 
REMARK    5  A    between atoms: O_4  and  C_5 
REMARK    6  A    between atoms: O_6  and  C_7 
REMARK    7  A    between atoms: O_8  and  C_9 
REMARK    8  A    between atoms: C_12  and  O_40 
REMARK    9  A    between atoms: C_22  and  N_23 
REMARK   10  A    between atoms: C_24  and  O_25 
REMARK   11  A    between atoms: C_26  and  O_27 
REMARK   12  A    between atoms: C_28  and  C_31 
REMARK   13  A    between atoms: C_31  and  O_32 
REMARK   14  A    between atoms: O_32  and  P_33 
REMARK   15  A    between atoms: P_33  and  O_35 
REMARK   16  A    between atoms: P_33  and  O_36 
REMARK   17  A    between atoms: O_36  and  P_37 
REMARK   18  A    between atoms: P_37  and  O_40 
REMARK   19  A    between atoms: P_37  and  O_39 
ROOT
HETATM    1  P           1      44.495   9.068   2.918  0.00  0.00     0.401 P 
HETATM    2  O           1      45.175   8.612   4.158  0.00  0.00    -0.631 OA
ENDROOT
BRANCH   1   3
HETATM    3  O           1      44.092  10.651   3.169  0.00  0.00    -0.294 OA
BRANCH   3   4
HETATM    4  C           1      45.111  11.600   3.356  0.00  0.00     0.215 C 
BRANCH   4   5
HETATM    5  C           1      45.638  11.492   4.782  0.00  0.00     0.180 C 
HETATM    6  C           1      45.322  12.691   5.672  0.00  0.00     0.182 C 
HETATM    7  C           1      46.680  13.121   6.195  0.00  0.00     0.198 C 
HETATM    8  C           1      47.524  11.882   5.968  0.00  0.00     0.262 C 
HETATM    9  N           1      48.972  12.122   5.912  0.00  0.00    -0.294 N 
HETATM   10  O           1      47.032  11.353   4.759  0.00  0.00    -0.353 OA
HETATM   11  C           1      49.539  12.809   5.014  0.00  0.00     0.214 A 
HETATM   12  C           1      49.802  11.655   6.741  0.00  0.00     0.167 A 
HETATM   13  N           1      50.788  12.820   5.220  0.00  0.00    -0.236 NA
HETATM   14  C           1      50.969  12.125   6.266  0.00  0.00     0.149 A 
HETATM   15  C           1      52.108  11.817   6.908  0.00  0.00     0.155 A 
HETATM   16  N           1      52.024  11.090   7.945  0.00  0.00    -0.222 NA
HETATM   17  C           1      50.877  10.696   8.319  0.00  0.00     0.237 A 
HETATM   18  N           1      49.757  10.935   7.777  0.00  0.00    -0.222 NA
BRANCH   6  19
HETATM   19  O           1      44.526  12.295   6.763  0.00  0.00    -0.390 OA
HETATM   20  H           1      45.057  11.854   7.430  0.00  0.00     0.210 HD
ENDBRANCH   6  19
BRANCH   7  21
HETATM   21  O           1      46.622  13.476   7.557  0.00  0.00    -0.388 OA
HETATM   22  H           1      47.075  14.313   7.684  0.00  0.00     0.210 HD
ENDBRANCH   7  21
BRANCH  15  23
HETATM   23  N           1      53.206  12.264   6.457  0.00  0.00    -0.382 N 
HETATM   24  H           1      54.114  11.855   6.785  0.00  0.00     0.157 HD
HETATM   25  H           1      53.210  13.044   5.755  0.00  0.00     0.157 HD
ENDBRANCH  15  23
ENDBRANCH   4   5
ENDBRANCH   3   4
ENDBRANCH   1   3
BRANCH   1  26
HETATM   26  O           1      45.629   9.481   1.833  0.00  0.00    -0.307 OA
HETATM   27  H           1      45.741  10.415   1.828  0.00  0.00     0.222 HD
ENDBRANCH   1  26
BRANCH   1  28
HETATM   28  O           1      43.259   8.178   2.464  0.00  0.00    -0.195 OA
BRANCH  28  29
HETATM   29  P           1      42.458   8.626   1.161  0.00  0.00     0.404 P 
HETATM   30  O           1      41.145   9.253   1.472  0.00  0.00    -0.631 OA
BRANCH  29  31
HETATM   31  O           1      42.375   7.680  -0.168  0.00  0.00    -0.263 OA
BRANCH  31  32
HETATM   32  C           1      42.300   6.273  -0.056  0.00  0.00     0.303 C 
HETATM   33  C           1      43.549   5.757   0.627  0.00  0.00     0.205 C 
HETATM   34  C           1      43.404   4.263   0.850  0.00  0.00     0.183 C 
HETATM   35  C           1      42.156   4.066   1.683  0.00  0.00     0.181 C 
HETATM   36  C           1      40.948   4.658   0.960  0.00  0.00     0.186 C 
HETATM   37  O           1      41.163   6.030   0.751  0.00  0.00    -0.347 OA
BRANCH  33  38
HETATM   38  O           1      44.669   5.980  -0.192  0.00  0.00    -0.388 OA
HETATM   39  H           1      45.339   6.431   0.328  0.00  0.00     0.210 HD
ENDBRANCH  33  38
BRANCH  34  40
HETATM   40  O           1      44.531   3.757   1.524  0.00  0.00    -0.390 OA
HETATM   41  H           1      45.204   4.440   1.586  0.00  0.00     0.210 HD
ENDBRANCH  34  40
BRANCH  35  42
HETATM   42  O           1      41.978   2.696   1.935  0.00  0.00    -0.390 OA
HETATM   43  H           1      42.556   2.454   2.663  0.00  0.00     0.210 HD
ENDBRANCH  35  42
BRANCH  36  44
HETATM   44  C           1      39.642   4.427   1.720  0.00  0.00     0.173 C 
BRANCH  44  45
HETATM   45  C           1      38.820   3.250   1.229  0.00  0.00     0.198 C 
BRANCH  45  46
HETATM   46  O           1      38.760   2.241   2.214  0.00  0.00    -0.398 OA
HETATM   47  H           1      39.472   2.370   2.845  0.00  0.00     0.209 HD
ENDBRANCH  45  46
ENDBRANCH  44  45
BRANCH  44  48
HETATM   48  O           1      38.833   5.579   1.666  0.00  0.00    -0.391 OA
HETATM   49  H           1      38.928   6.061   2.492  0.00  0.00     0.210 HD
ENDBRANCH  44  48
ENDBRANCH  36  44
ENDBRANCH  31  32
ENDBRANCH  29  31
BRANCH  29  50
HETATM   50  O           1      43.280   9.790   0.352  0.00  0.00    -0.307 OA
HETATM   51  H           1      42.683  10.474   0.102  0.00  0.00     0.222 HD
ENDBRANCH  29  50
ENDBRANCH  28  29
ENDBRANCH   1  28
TORSDOF 19
ENDMDL
