REMARK AutoDockVina VirtualScreeningResult  Sun Mar  6 21:24:44 2016
USER  AD>  8 of 9 MODELS
USER  AD>  ligand efficiency  -0.2842
USER  AD>  -5.40,  2.297,  3.365
USER  AD> macro_close_ats: 18
USER  AD> hepi:A:GLY263:H
USER  AD> hepi:A:GLY12:N
USER  AD> hepi:A:MET11:N
USER  AD> hepi:A:THR188:CB
USER  AD> hepi:A:THR262:CA
USER  AD> hepi:A:SER10:H
USER  AD> hepi:A:THR188:CG2
USER  AD> hepi:A:GLY12:H
USER  AD> hepi:A:SER10:OG
USER  AD> hepi:A:LYS192:H
USER  AD> hepi:A:LEU264:CG
USER  AD> hepi:A:LYS192:NZ
USER  AD> hepi:A:SER10:CA
USER  AD> hepi:A:THR262:CB
USER  AD> hepi:A:LYS192:H
USER  AD> hepi:A:THR262:OG1
USER  AD> hepi:A:MET11:H
USER  AD> hepi:A:GLY263:CA

USER  AD> lig_close_ats: 12
USER  AD> h11b_ab6_b1_m8_model1: :LIG1:C,C,H,O,C,O,H,O,H,C,H,O
MODEL 8
REMARK VINA RESULT:      -5.4      2.297      3.365
REMARK  11 active torsions:
REMARK  status: ('A' for Active; 'I' for Inactive)
REMARK    1  A    between atoms: C_1  and  O_7 
REMARK    2  A    between atoms: C_2  and  O_10 
REMARK    3  A    between atoms: C_3  and  O_11 
REMARK    4  A    between atoms: C_4  and  O_12 
REMARK    5  A    between atoms: C_6  and  C_8 
REMARK    6  A    between atoms: C_8  and  O_9 
REMARK    7  A    between atoms: O_12  and  C_13 
REMARK    8  A    between atoms: C_13  and  C_14 
REMARK    9  A    between atoms: C_15  and  C_16 
REMARK   10  A    between atoms: C_16  and  C_17 
REMARK   11  A    between atoms: C_17  and  C_18 
ROOT
HETATM    1  C   LIG     1      41.540   5.877   0.844  1.00  0.00     0.180 C 
HETATM    2  C   LIG     1      42.518   4.699   0.756  1.00  0.00     0.183 C 
HETATM    3  C   LIG     1      43.681   4.833   1.754  1.00  0.00     0.204 C 
HETATM    4  C   LIG     1      44.291   6.246   1.651  1.00  0.00     0.291 C 
HETATM    5  O   LIG     1      43.283   7.257   1.764  1.00  0.00    -0.348 OA
HETATM    6  C   LIG     1      42.332   7.186   0.698  1.00  0.00     0.179 C 
ENDROOT
BRANCH   4   7
HETATM    7  O   LIG     1      45.236   6.481   2.695  1.00  0.00    -0.355 OA
BRANCH   7   8
HETATM    8  C   LIG     1      45.870   7.746   2.547  1.00  0.00     0.198 C 
BRANCH   8   9
HETATM    9  C   LIG     1      45.842   8.465   3.860  1.00  0.00    -0.005 C 
HETATM   10  C   LIG     1      46.655   9.498   4.122  1.00  0.00    -0.029 C 
BRANCH  10  11
HETATM   11  C   LIG     1      46.662  10.272   5.410  1.00  0.00     0.027 C 
BRANCH  11  12
HETATM   12  C   LIG     1      45.298  10.924   5.656  1.00  0.00     0.003 C 
BRANCH  12  13
HETATM   13  C   LIG     1      45.252  12.363   5.148  1.00  0.00    -0.004 C 
HETATM   14  C   LIG     1      44.388  12.475   3.901  1.00  0.00     0.005 C 
ENDBRANCH  12  13
ENDBRANCH  11  12
ENDBRANCH  10  11
ENDBRANCH   8   9
ENDBRANCH   7   8
ENDBRANCH   4   7
BRANCH   3  15
HETATM   15  O   LIG     1      44.662   3.830   1.431  1.00  0.00    -0.388 OA
HETATM   16  H   LIG     1      44.872   3.963   0.484  1.00  0.00     0.210 HD
ENDBRANCH   3  15
BRANCH   2  17
HETATM   17  O   LIG     1      41.840   3.458   1.000  1.00  0.00    -0.390 OA
HETATM   18  H   LIG     1      42.215   2.820   0.356  1.00  0.00     0.210 HD
ENDBRANCH   2  17
BRANCH   6  19
HETATM   19  C   LIG     1      41.451   8.433   0.757  1.00  0.00     0.198 C 
BRANCH  19  20
HETATM   20  O   LIG     1      40.978   8.654   2.080  1.00  0.00    -0.398 OA
HETATM   21  H   LIG     1      41.621   8.259   2.692  1.00  0.00     0.209 HD
ENDBRANCH  19  20
ENDBRANCH   6  19
BRANCH   1  22
HETATM   22  O   LIG     1      40.877   5.791   2.118  1.00  0.00    -0.390 OA
HETATM   23  H   LIG     1      40.066   6.335   2.066  1.00  0.00     0.210 HD
ENDBRANCH   1  22
TORSDOF 11
ENDMDL
