REMARK AutoDockVina VirtualScreeningResult  Sun Mar  6 21:24:55 2016
USER  AD>  8 of 9 MODELS
USER  AD>  ligand efficiency  -0.2130
USER  AD>  -4.90, 14.849, 18.108
USER  AD> macro_close_ats: 12
USER  AD> hepi:A:ARG143:H
USER  AD> hepi:A:LYS7:H
USER  AD> hepi:A:MET114:SD
USER  AD> hepi:A:LYS7:H
USER  AD> hepi:A:ARG120:CD
USER  AD> hepi:A:ARG143:NH1
USER  AD> hepi:A:ARG143:H
USER  AD> hepi:A:ARG120:H
USER  AD> hepi:A:ARG143:CD
USER  AD> hepi:A:LYS7:NZ
USER  AD> hepi:A:LEU286:CD2
USER  AD> hepi:A:THR118:O

USER  AD> lig_close_ats: 9
USER  AD> h11b_ab10_b1_m8_model1: :LIG1:C,O,O,C,O,H,C,H,C
MODEL 8
REMARK VINA RESULT:      -4.9     14.849     18.108
REMARK  15 active torsions:
REMARK  status: ('A' for Active; 'I' for Inactive)
REMARK    1  A    between atoms: C_1  and  O_7 
REMARK    2  A    between atoms: C_2  and  O_10 
REMARK    3  A    between atoms: C_3  and  O_11 
REMARK    4  A    between atoms: C_4  and  O_12 
REMARK    5  A    between atoms: C_6  and  C_8 
REMARK    6  A    between atoms: C_8  and  O_9 
REMARK    7  A    between atoms: O_12  and  C_13 
REMARK    8  A    between atoms: C_13  and  C_14 
REMARK    9  A    between atoms: C_15  and  C_16 
REMARK   10  A    between atoms: C_16  and  C_17 
REMARK   11  A    between atoms: C_17  and  C_18 
REMARK   12  A    between atoms: C_18  and  C_19 
REMARK   13  A    between atoms: C_19  and  C_20 
REMARK   14  A    between atoms: C_20  and  C_21 
REMARK   15  A    between atoms: C_21  and  C_22 
ROOT
HETATM    1  C   LIG     1      43.339  -6.398  -4.548  1.00  0.00     0.180 C 
HETATM    2  C   LIG     1      43.000  -5.012  -3.998  1.00  0.00     0.183 C 
HETATM    3  C   LIG     1      42.087  -5.087  -2.765  1.00  0.00     0.204 C 
HETATM    4  C   LIG     1      40.883  -6.032  -3.021  1.00  0.00     0.291 C 
HETATM    5  O   LIG     1      41.344  -7.290  -3.554  1.00  0.00    -0.348 OA
HETATM    6  C   LIG     1      42.025  -7.144  -4.805  1.00  0.00     0.179 C 
ENDROOT
BRANCH   4   7
HETATM    7  O   LIG     1      40.177  -6.374  -1.825  1.00  0.00    -0.355 OA
BRANCH   7   8
HETATM    8  C   LIG     1      38.959  -5.678  -1.596  1.00  0.00     0.198 C 
BRANCH   8   9
HETATM    9  C   LIG     1      37.784  -6.405  -2.181  1.00  0.00    -0.005 C 
HETATM   10  C   LIG     1      37.862  -7.638  -2.709  1.00  0.00    -0.029 C 
BRANCH  10  11
HETATM   11  C   LIG     1      36.714  -8.368  -3.345  1.00  0.00     0.027 C 
BRANCH  11  12
HETATM   12  C   LIG     1      36.950  -8.546  -4.848  1.00  0.00     0.004 C 
BRANCH  12  13
HETATM   13  C   LIG     1      35.824  -7.924  -5.678  1.00  0.00     0.000 C 
BRANCH  13  14
HETATM   14  C   LIG     1      34.515  -7.885  -4.887  1.00  0.00     0.000 C 
BRANCH  14  15
HETATM   15  C   LIG     1      33.962  -6.463  -4.776  1.00  0.00     0.000 C 
BRANCH  15  16
HETATM   16  C   LIG     1      34.819  -5.473  -5.567  1.00  0.00    -0.000 C 
BRANCH  16  17
HETATM   17  C   LIG     1      35.610  -4.552  -4.639  1.00  0.00    -0.005 C 
HETATM   18  C   LIG     1      35.123  -4.658  -3.201  1.00  0.00     0.005 C 
ENDBRANCH  16  17
ENDBRANCH  15  16
ENDBRANCH  14  15
ENDBRANCH  13  14
ENDBRANCH  12  13
ENDBRANCH  11  12
ENDBRANCH  10  11
ENDBRANCH   8   9
ENDBRANCH   7   8
ENDBRANCH   4   7
BRANCH   3  19
HETATM   19  O   LIG     1      41.683  -3.740  -2.461  1.00  0.00    -0.388 OA
HETATM   20  H   LIG     1      40.885  -3.833  -1.899  1.00  0.00     0.210 HD
ENDBRANCH   3  19
BRANCH   2  21
HETATM   21  O   LIG     1      44.200  -4.310  -3.629  1.00  0.00    -0.390 OA
HETATM   22  H   LIG     1      44.939  -4.891  -3.907  1.00  0.00     0.210 HD
ENDBRANCH   2  21
BRANCH   6  23
HETATM   23  C   LIG     1      42.250  -8.528  -5.413  1.00  0.00     0.198 C 
BRANCH  23  24
HETATM   24  O   LIG     1      41.056  -8.961  -6.056  1.00  0.00    -0.398 OA
HETATM   25  H   LIG     1      41.224  -9.856  -6.401  1.00  0.00     0.209 HD
ENDBRANCH  23  24
ENDBRANCH   6  23
BRANCH   1  26
HETATM   26  O   LIG     1      44.149  -7.069  -3.563  1.00  0.00    -0.390 OA
HETATM   27  H   LIG     1      43.548  -7.375  -2.855  1.00  0.00     0.210 HD
ENDBRANCH   1  26
TORSDOF 15
ENDMDL
