REMARK AutoDockVina VirtualScreeningResult  Sun Mar  6 21:26:47 2016
USER  AD>  4 of 9 MODELS
USER  AD>  ligand efficiency  -0.2789
USER  AD>  -5.30,  1.559,  2.466
USER  AD> macro_close_ats: 10
USER  AD> hepi:A:ASP261:CG
USER  AD> hepi:A:GLY263:H
USER  AD> hepi:A:ASP261:OD1
USER  AD> hepi:A:LYS192:NZ
USER  AD> hepi:A:SER10:OG
USER  AD> hepi:A:GLY12:H
USER  AD> hepi:A:LYS192:H
USER  AD> hepi:A:HIS266:NE2
USER  AD> hepi:A:THR188:CB
USER  AD> hepi:A:GLY263:CA

USER  AD> lig_close_ats: 9
USER  AD> h11b_gb6_b3_m4_model1: :LIG1:C,H,O,C,H,C,H,O,O
MODEL 4
REMARK VINA RESULT:      -5.3      1.559      2.466
REMARK  11 active torsions:
REMARK  status: ('A' for Active; 'I' for Inactive)
REMARK    1  A    between atoms: C_1  and  O_19 
REMARK    2  A    between atoms: C_2  and  O_9 
REMARK    3  A    between atoms: C_3  and  O_10 
REMARK    4  A    between atoms: C_4  and  O_11 
REMARK    5  A    between atoms: C_6  and  C_7 
REMARK    6  A    between atoms: C_7  and  O_8 
REMARK    7  A    between atoms: O_11  and  C_12 
REMARK    8  A    between atoms: C_12  and  C_13 
REMARK    9  A    between atoms: C_14  and  C_15 
REMARK   10  A    between atoms: C_15  and  C_16 
REMARK   11  A    between atoms: C_16  and  C_17 
ROOT
HETATM    1  C   LIG     1      39.782   3.090   1.160  1.00  0.00     0.180 C 
HETATM    2  C   LIG     1      39.892   4.612   1.346  1.00  0.00     0.183 C 
HETATM    3  C   LIG     1      40.849   5.196   0.312  1.00  0.00     0.204 C 
HETATM    4  C   LIG     1      42.217   4.509   0.472  1.00  0.00     0.291 C 
HETATM    5  O   LIG     1      42.060   3.110   0.196  1.00  0.00    -0.348 OA
HETATM    6  C   LIG     1      41.178   2.430   1.105  1.00  0.00     0.179 C 
ENDROOT
BRANCH   4   7
HETATM    7  O   LIG     1      42.783   4.677   1.777  1.00  0.00    -0.355 OA
BRANCH   7   8
HETATM    8  C   LIG     1      44.204   4.771   1.732  1.00  0.00     0.198 C 
BRANCH   8   9
HETATM    9  C   LIG     1      44.589   6.050   1.050  1.00  0.00    -0.005 C 
HETATM   10  C   LIG     1      44.534   7.236   1.672  1.00  0.00    -0.029 C 
BRANCH  10  11
HETATM   11  C   LIG     1      44.863   8.555   1.032  1.00  0.00     0.027 C 
BRANCH  11  12
HETATM   12  C   LIG     1      43.668   9.087   0.233  1.00  0.00     0.003 C 
BRANCH  12  13
HETATM   13  C   LIG     1      43.919   9.037  -1.273  1.00  0.00    -0.004 C 
HETATM   14  C   LIG     1      43.052   7.981  -1.941  1.00  0.00     0.005 C 
ENDBRANCH  12  13
ENDBRANCH  11  12
ENDBRANCH  10  11
ENDBRANCH   8   9
ENDBRANCH   7   8
ENDBRANCH   4   7
BRANCH   3  15
HETATM   15  O   LIG     1      40.896   6.620   0.446  1.00  0.00    -0.388 OA
HETATM   16  H   LIG     1      40.042   6.865   0.860  1.00  0.00     0.210 HD
ENDBRANCH   3  15
BRANCH   2  17
HETATM   17  O   LIG     1      38.623   5.274   1.195  1.00  0.00    -0.390 OA
HETATM   18  H   LIG     1      38.570   5.976   1.871  1.00  0.00     0.210 HD
ENDBRANCH   2  17
BRANCH   6  19
HETATM   19  C   LIG     1      41.108   0.965   0.628  1.00  0.00     0.198 C 
BRANCH  19  20
HETATM   20  O   LIG     1      42.291   0.220   0.871  1.00  0.00    -0.398 OA
HETATM   21  H   LIG     1      42.036  -0.647   1.227  1.00  0.00     0.209 HD
ENDBRANCH  19  20
ENDBRANCH   6  19
BRANCH   1  22
HETATM   22  O   LIG     1      38.960   2.560   2.204  1.00  0.00    -0.390 OA
HETATM   23  H   LIG     1      38.956   3.188   2.949  1.00  0.00     0.210 HD
ENDBRANCH   1  22
TORSDOF 11
ENDMDL
