REMARK AutoDockVina VirtualScreeningResult  Sun Mar  6 21:25:48 2016
USER  AD>  5 of 9 MODELS
USER  AD>  ligand efficiency  -0.4083
USER  AD>  -4.90,  0.973,  4.668
USER  AD> macro_close_ats: 11
USER  AD> hepi:A:GLY263:N
USER  AD> hepi:A:ASP261:OD1
USER  AD> hepi:A:GLY263:H
USER  AD> hepi:A:LYS192:NZ
USER  AD> hepi:A:SER10:H
USER  AD> hepi:A:HIS266:NE2
USER  AD> hepi:A:LYS192:H
USER  AD> hepi:A:GLY12:H
USER  AD> hepi:A:LYS192:H
USER  AD> hepi:A:ASP261:CG
USER  AD> hepi:A:HIS266:CD2

USER  AD> lig_close_ats: 8
USER  AD> h11b_gb_b2_m5_model1: :LIG1:C,H,C,O,O,H,H,O
MODEL 5
REMARK VINA RESULT:      -4.9      0.973      4.668
REMARK  6 active torsions:
REMARK  status: ('A' for Active; 'I' for Inactive)
REMARK    1  A    between atoms: C_1  and  O_12 
REMARK    2  A    between atoms: C_2  and  O_9 
REMARK    3  A    between atoms: C_3  and  O_11 
REMARK    4  A    between atoms: C_4  and  O_10 
REMARK    5  A    between atoms: C_6  and  C_7 
REMARK    6  A    between atoms: C_7  and  O_8 
ROOT
HETATM    1  C   LIG     1      42.925   4.232   1.200  1.00  0.00     0.180 C 
HETATM    2  C   LIG     1      41.885   3.288   1.810  1.00  0.00     0.183 C 
HETATM    3  C   LIG     1      40.467   3.786   1.518  1.00  0.00     0.204 C 
HETATM    4  C   LIG     1      40.347   5.248   1.996  1.00  0.00     0.288 C 
HETATM    5  O   LIG     1      41.292   6.051   1.296  1.00  0.00    -0.349 OA
HETATM    6  C   LIG     1      42.645   5.690   1.603  1.00  0.00     0.179 C 
ENDROOT
BRANCH   6   7
HETATM    7  C   LIG     1      43.597   6.642   0.863  1.00  0.00     0.198 C 
BRANCH   7   8
HETATM    8  O   LIG     1      44.865   6.738   1.502  1.00  0.00    -0.398 OA
HETATM    9  H   LIG     1      45.164   7.669   1.423  1.00  0.00     0.209 HD
ENDBRANCH   7   8
ENDBRANCH   6   7
BRANCH   1  10
HETATM   10  O   LIG     1      44.236   3.828   1.616  1.00  0.00    -0.390 OA
HETATM   11  H   LIG     1      44.408   4.319   2.449  1.00  0.00     0.210 HD
ENDBRANCH   1  10
BRANCH   2  12
HETATM   12  O   LIG     1      42.122   1.972   1.285  1.00  0.00    -0.390 OA
HETATM   13  H   LIG     1      41.294   1.651   0.879  1.00  0.00     0.210 HD
ENDBRANCH   2  12
BRANCH   4  14
HETATM   14  O   LIG     1      39.045   5.764   1.768  1.00  0.00    -0.369 OA
HETATM   15  H   LIG     1      39.139   6.644   1.364  1.00  0.00     0.212 HD
ENDBRANCH   4  14
BRANCH   3  16
HETATM   16  O   LIG     1      39.495   2.926   2.116  1.00  0.00    -0.388 OA
HETATM   17  H   LIG     1      38.699   3.449   2.327  1.00  0.00     0.210 HD
ENDBRANCH   3  16
TORSDOF 6
ENDMDL
