REMARK AutoDockVina VirtualScreeningResult  Sun Mar  6 21:26:11 2016
USER  AD>  1 of 9 MODELS
USER  AD>  ligand efficiency  -0.2200
USER  AD>  -8.80,  0.000,  0.000
USER  AD> macro_close_ats: 20
USER  AD> hepi:A:SER10:CA
USER  AD> hepi:A:ILE287:CB
USER  AD> hepi:A:LYS241:NZ
USER  AD> hepi:A:GLY263:N
USER  AD> hepi:A:ALA186:C
USER  AD> hepi:A:THR262:CA
USER  AD> hepi:A:MET242:O
USER  AD> hepi:A:SER10:H
USER  AD> hepi:A:ASP13:CG
USER  AD> hepi:A:SER10:OG
USER  AD> hepi:A:THR262:H
USER  AD> hepi:A:SER10:C
USER  AD> hepi:A:MET11:N
USER  AD> hepi:A:GLY263:H
USER  AD> hepi:A:ALA186:O
USER  AD> hepi:A:ASP13:OD1
USER  AD> hepi:A:LYS241:H
USER  AD> hepi:A:GLY12:H
USER  AD> hepi:A:MET11:H
USER  AD> hepi:A:GLY12:N

USER  AD> lig_close_ats: 14
USER  AD> h11b_adph_b3_m1_model1: :   1:C,H,O,H,O,H,H,H,O,C,N,H,O,O
MODEL 1
REMARK VINA RESULT:      -8.8      0.000      0.000
REMARK  19 active torsions:
REMARK  status: ('A' for Active; 'I' for Inactive)
REMARK    1  A    between atoms: C_1  and  C_3 
REMARK    2  A    between atoms: C_1  and  O_13 
REMARK    3  A    between atoms: O_2  and  C_3 
REMARK    4  A    between atoms: C_3  and  C_11 
REMARK    5  A    between atoms: O_4  and  C_5 
REMARK    6  A    between atoms: O_6  and  C_7 
REMARK    7  A    between atoms: O_8  and  C_9 
REMARK    8  A    between atoms: C_12  and  O_40 
REMARK    9  A    between atoms: C_22  and  N_23 
REMARK   10  A    between atoms: C_24  and  O_25 
REMARK   11  A    between atoms: C_26  and  O_27 
REMARK   12  A    between atoms: C_28  and  C_31 
REMARK   13  A    between atoms: C_31  and  O_32 
REMARK   14  A    between atoms: O_32  and  P_33 
REMARK   15  A    between atoms: P_33  and  O_35 
REMARK   16  A    between atoms: P_33  and  O_36 
REMARK   17  A    between atoms: O_36  and  P_37 
REMARK   18  A    between atoms: P_37  and  O_40 
REMARK   19  A    between atoms: P_37  and  O_39 
ROOT
HETATM    1  P           1      44.099   7.917   1.800  0.00  0.00     0.401 P 
HETATM    2  O           1      44.434   8.491   0.471  0.00  0.00    -0.631 OA
ENDROOT
BRANCH   1   3
HETATM    3  O           1      44.516   9.064   2.915  0.00  0.00    -0.294 OA
BRANCH   3   4
HETATM    4  C           1      45.477   8.757   3.893  0.00  0.00     0.215 C 
BRANCH   4   5
HETATM    5  C           1      45.577   9.917   4.876  0.00  0.00     0.180 C 
HETATM    6  C           1      45.201  11.279   4.297  0.00  0.00     0.182 C 
HETATM    7  C           1      46.412  12.144   4.591  0.00  0.00     0.198 C 
HETATM    8  C           1      47.106  11.369   5.694  0.00  0.00     0.262 C 
HETATM    9  N           1      48.534  11.672   5.859  0.00  0.00    -0.294 N 
HETATM   10  O           1      46.892  10.020   5.348  0.00  0.00    -0.353 OA
HETATM   11  C           1      49.413  11.429   4.982  0.00  0.00     0.214 A 
HETATM   12  C           1      49.035  12.191   6.896  0.00  0.00     0.167 A 
HETATM   13  N           1      50.547  11.782   5.416  0.00  0.00    -0.236 NA
HETATM   14  C           1      50.341  12.248   6.578  0.00  0.00     0.149 A 
HETATM   15  C           1      51.209  12.753   7.471  0.00  0.00     0.155 A 
HETATM   16  N           1      50.747  13.154   8.583  0.00  0.00    -0.222 NA
HETATM   17  C           1      49.499  13.061   8.791  0.00  0.00     0.237 A 
HETATM   18  N           1      48.612  12.601   8.012  0.00  0.00    -0.222 NA
BRANCH   6  19
HETATM   19  O           1      44.091  11.811   4.981  0.00  0.00    -0.390 OA
HETATM   20  H           1      43.477  12.219   4.367  0.00  0.00     0.210 HD
ENDBRANCH   6  19
BRANCH   7  21
HETATM   21  O           1      46.037  13.435   5.011  0.00  0.00    -0.388 OA
HETATM   22  H           1      45.853  13.419   5.953  0.00  0.00     0.210 HD
ENDBRANCH   7  21
BRANCH  15  23
HETATM   23  N           1      52.438  12.807   7.166  0.00  0.00    -0.382 N 
HETATM   24  H           1      52.764  13.458   6.412  0.00  0.00     0.157 HD
HETATM   25  H           1      53.134  12.201   7.666  0.00  0.00     0.157 HD
ENDBRANCH  15  23
ENDBRANCH   4   5
ENDBRANCH   3   4
ENDBRANCH   1   3
BRANCH   1  26
HETATM   26  O           1      42.518   8.157   2.078  0.00  0.00    -0.307 OA
HETATM   27  H           1      42.159   7.419   2.537  0.00  0.00     0.222 HD
ENDBRANCH   1  26
BRANCH   1  28
HETATM   28  O           1      44.745   6.496   2.100  0.00  0.00    -0.195 OA
BRANCH  28  29
HETATM   29  P           1      44.587   5.360   0.994  0.00  0.00     0.404 P 
HETATM   30  O           1      45.741   5.295   0.057  0.00  0.00    -0.631 OA
BRANCH  29  31
HETATM   31  O           1      43.170   5.096   0.224  0.00  0.00    -0.263 OA
BRANCH  31  32
HETATM   32  C           1      42.055   4.567   0.914  0.00  0.00     0.303 C 
HETATM   33  C           1      40.789   5.211   0.389  0.00  0.00     0.205 C 
HETATM   34  C           1      39.593   4.551   1.050  0.00  0.00     0.183 C 
HETATM   35  C           1      39.677   3.074   0.727  0.00  0.00     0.181 C 
HETATM   36  C           1      41.001   2.505   1.235  0.00  0.00     0.186 C 
HETATM   37  O           1      42.062   3.184   0.615  0.00  0.00    -0.347 OA
BRANCH  33  38
HETATM   38  O           1      40.779   6.579   0.712  0.00  0.00    -0.388 OA
HETATM   39  H           1      41.681   6.907   0.668  0.00  0.00     0.210 HD
ENDBRANCH  33  38
BRANCH  34  40
HETATM   40  O           1      38.396   5.097   0.551  0.00  0.00    -0.390 OA
HETATM   41  H           1      38.431   5.132  -0.409  0.00  0.00     0.210 HD
ENDBRANCH  34  40
BRANCH  35  42
HETATM   42  O           1      38.582   2.411   1.303  0.00  0.00    -0.390 OA
HETATM   43  H           1      38.595   2.587   2.248  0.00  0.00     0.210 HD
ENDBRANCH  35  42
BRANCH  36  44
HETATM   44  C           1      41.115   0.998   1.001  0.00  0.00     0.173 C 
BRANCH  44  45
HETATM   45  C           1      40.842   0.554  -0.425  0.00  0.00     0.198 C 
BRANCH  45  46
HETATM   46  O           1      42.013   0.648  -1.207  0.00  0.00    -0.398 OA
HETATM   47  H           1      42.125  -0.162  -1.709  0.00  0.00     0.209 HD
ENDBRANCH  45  46
ENDBRANCH  44  45
BRANCH  44  48
HETATM   48  O           1      40.236   0.302   1.853  0.00  0.00    -0.391 OA
HETATM   49  H           1      39.362   0.293   1.453  0.00  0.00     0.210 HD
ENDBRANCH  44  48
ENDBRANCH  36  44
ENDBRANCH  31  32
ENDBRANCH  29  31
BRANCH  29  50
HETATM   50  O           1      44.549   3.878   1.692  0.00  0.00    -0.307 OA
HETATM   51  H           1      45.055   3.278   1.171  0.00  0.00     0.222 HD
ENDBRANCH  29  50
ENDBRANCH  28  29
ENDBRANCH   1  28
TORSDOF 19
ENDMDL
