REMARK AutoDockVina VirtualScreeningResult  Sun Mar  6 21:24:57 2016
USER  AD>  6 of 9 MODELS
USER  AD>  ligand efficiency  -0.4083
USER  AD>  -4.90,  1.167,  4.442
USER  AD> macro_close_ats: 8
USER  AD> hepi:A:GLY263:H
USER  AD> hepi:A:THR262:CA
USER  AD> hepi:A:THR188:H
USER  AD> hepi:A:GLY263:N
USER  AD> hepi:A:GLY12:H
USER  AD> hepi:A:SER10:OG
USER  AD> hepi:A:LYS192:H
USER  AD> hepi:A:HIS266:NE2

USER  AD> lig_close_ats: 10
USER  AD> h11b_gb_b1_m6_model1: :LIG1:O,O,O,O,C,C,H,H,C,H
MODEL 6
REMARK VINA RESULT:      -4.9      1.167      4.442
REMARK  6 active torsions:
REMARK  status: ('A' for Active; 'I' for Inactive)
REMARK    1  A    between atoms: C_1  and  O_12 
REMARK    2  A    between atoms: C_2  and  O_9 
REMARK    3  A    between atoms: C_3  and  O_11 
REMARK    4  A    between atoms: C_4  and  O_10 
REMARK    5  A    between atoms: C_6  and  C_7 
REMARK    6  A    between atoms: C_7  and  O_8 
ROOT
HETATM    1  C   LIG     1      42.847   6.063   1.320  1.00  0.00     0.180 C 
HETATM    2  C   LIG     1      42.599   4.632   1.805  1.00  0.00     0.183 C 
HETATM    3  C   LIG     1      41.250   4.117   1.298  1.00  0.00     0.204 C 
HETATM    4  C   LIG     1      40.151   5.120   1.707  1.00  0.00     0.288 C 
HETATM    5  O   LIG     1      40.431   6.389   1.123  1.00  0.00    -0.349 OA
HETATM    6  C   LIG     1      41.640   6.965   1.632  1.00  0.00     0.179 C 
ENDROOT
BRANCH   6   7
HETATM    7  C   LIG     1      41.834   8.354   1.005  1.00  0.00     0.198 C 
BRANCH   7   8
HETATM    8  O   LIG     1      41.490   9.403   1.904  1.00  0.00    -0.398 OA
HETATM    9  H   LIG     1      42.327   9.805   2.219  1.00  0.00     0.209 HD
ENDBRANCH   7   8
ENDBRANCH   6   7
BRANCH   1  10
HETATM   10  O   LIG     1      44.039   6.573   1.932  1.00  0.00    -0.390 OA
HETATM   11  H   LIG     1      43.740   7.300   2.520  1.00  0.00     0.210 HD
ENDBRANCH   1  10
BRANCH   2  12
HETATM   12  O   LIG     1      43.697   3.819   1.362  1.00  0.00    -0.390 OA
HETATM   13  H   LIG     1      43.917   4.075   0.446  1.00  0.00     0.210 HD
ENDBRANCH   2  12
BRANCH   4  14
HETATM   14  O   LIG     1      38.869   4.688   1.278  1.00  0.00    -0.369 OA
HETATM   15  H   LIG     1      38.822   4.803   0.314  1.00  0.00     0.212 HD
ENDBRANCH   4  14
BRANCH   3  16
HETATM   16  O   LIG     1      40.999   2.794   1.779  1.00  0.00    -0.388 OA
HETATM   17  H   LIG     1      40.142   2.786   2.243  1.00  0.00     0.210 HD
ENDBRANCH   3  16
TORSDOF 6
ENDMDL
