REMARK AutoDockVina VirtualScreeningResult  Sun Mar  6 21:26:52 2016
USER  AD>  4 of 9 MODELS
USER  AD>  ligand efficiency  -0.2429
USER  AD>  -5.10, 13.205, 16.335
USER  AD> macro_close_ats: 14
USER  AD> hepi:A:THR188:H
USER  AD> hepi:A:GLY263:CA
USER  AD> hepi:A:GLU38:CG
USER  AD> hepi:A:THR187:OG1
USER  AD> hepi:A:MET11:N
USER  AD> hepi:A:SER10:H
USER  AD> hepi:A:PHE41:CZ
USER  AD> hepi:A:GLY12:H
USER  AD> hepi:A:SER10:CA
USER  AD> hepi:A:LYS192:NZ
USER  AD> hepi:A:GLY12:N
USER  AD> hepi:A:SER10:OG
USER  AD> hepi:A:LYS192:H
USER  AD> hepi:A:LYS192:H

USER  AD> lig_close_ats: 11
USER  AD> h11b_ga8_b3_m4_model1: :LIG1:C,C,C,O,C,H,O,C,C,H,O
MODEL 4
REMARK VINA RESULT:      -5.1     13.205     16.335
REMARK  13 active torsions:
REMARK  status: ('A' for Active; 'I' for Inactive)
REMARK    1  A    between atoms: C_1  and  O_21 
REMARK    2  A    between atoms: C_2  and  O_9 
REMARK    3  A    between atoms: C_3  and  O_10 
REMARK    4  A    between atoms: C_4  and  O_11 
REMARK    5  A    between atoms: C_6  and  C_7 
REMARK    6  A    between atoms: C_7  and  O_8 
REMARK    7  A    between atoms: O_11  and  C_12 
REMARK    8  A    between atoms: C_12  and  C_13 
REMARK    9  A    between atoms: C_14  and  C_15 
REMARK   10  A    between atoms: C_15  and  C_16 
REMARK   11  A    between atoms: C_16  and  C_17 
REMARK   12  A    between atoms: C_17  and  C_18 
REMARK   13  A    between atoms: C_18  and  C_19 
ROOT
HETATM    1  C   LIG     1      41.780   6.352   1.503  1.00  0.00     0.180 C 
HETATM    2  C   LIG     1      42.460   5.000   1.237  1.00  0.00     0.183 C 
HETATM    3  C   LIG     1      43.926   5.059   1.647  1.00  0.00     0.204 C 
HETATM    4  C   LIG     1      44.606   6.200   0.869  1.00  0.00     0.291 C 
HETATM    5  O   LIG     1      43.986   7.439   1.238  1.00  0.00    -0.348 OA
HETATM    6  C   LIG     1      42.591   7.519   0.896  1.00  0.00     0.179 C 
ENDROOT
BRANCH   4   7
HETATM    7  O   LIG     1      44.532   6.034  -0.552  1.00  0.00    -0.355 OA
BRANCH   7   8
HETATM    8  C   LIG     1      45.818   5.822  -1.130  1.00  0.00     0.198 C 
BRANCH   8   9
HETATM    9  C   LIG     1      46.483   7.148  -1.330  1.00  0.00    -0.005 C 
HETATM   10  C   LIG     1      47.763   7.260  -1.728  1.00  0.00    -0.029 C 
BRANCH  10  11
HETATM   11  C   LIG     1      48.489   8.563  -1.898  1.00  0.00     0.027 C 
BRANCH  11  12
HETATM   12  C   LIG     1      49.897   8.484  -1.296  1.00  0.00     0.004 C 
BRANCH  12  13
HETATM   13  C   LIG     1      50.973   8.403  -2.379  1.00  0.00     0.000 C 
BRANCH  13  14
HETATM   14  C   LIG     1      51.565   6.994  -2.460  1.00  0.00    -0.000 C 
BRANCH  14  15
HETATM   15  C   LIG     1      50.836   6.144  -3.499  1.00  0.00    -0.005 C 
HETATM   16  C   LIG     1      50.785   6.839  -4.851  1.00  0.00     0.005 C 
ENDBRANCH  14  15
ENDBRANCH  13  14
ENDBRANCH  12  13
ENDBRANCH  11  12
ENDBRANCH  10  11
ENDBRANCH   8   9
ENDBRANCH   7   8
ENDBRANCH   4   7
BRANCH   3  17
HETATM   17  O   LIG     1      44.534   3.779   1.447  1.00  0.00    -0.388 OA
HETATM   18  H   LIG     1      43.806   3.197   1.144  1.00  0.00     0.210 HD
ENDBRANCH   3  17
BRANCH   2  19
HETATM   19  O   LIG     1      41.839   3.932   1.977  1.00  0.00    -0.390 OA
HETATM   20  H   LIG     1      40.922   4.203   2.173  1.00  0.00     0.210 HD
ENDBRANCH   2  19
BRANCH   6  21
HETATM   21  C   LIG     1      42.099   8.890   1.400  1.00  0.00     0.198 C 
BRANCH  21  22
HETATM   22  O   LIG     1      40.815   8.856   2.006  1.00  0.00    -0.398 OA
HETATM   23  H   LIG     1      40.157   9.103   1.335  1.00  0.00     0.209 HD
ENDBRANCH  21  22
ENDBRANCH   6  21
BRANCH   1  24
HETATM   24  O   LIG     1      40.439   6.289   1.008  1.00  0.00    -0.390 OA
HETATM   25  H   LIG     1      40.270   5.390   0.676  1.00  0.00     0.210 HD
ENDBRANCH   1  24
TORSDOF 13
ENDMDL
