REMARK AutoDockVina VirtualScreeningResult  Sun Mar  6 21:26:36 2016
USER  AD>  2 of 9 MODELS
USER  AD>  ligand efficiency  -0.2261
USER  AD>  -5.20,  3.258,  4.407
USER  AD> macro_close_ats: 18
USER  AD> hepi:A:ASP261:O
USER  AD> hepi:A:LYS192:NZ
USER  AD> hepi:A:LEU244:CD1
USER  AD> hepi:A:LYS192:H
USER  AD> hepi:A:LEU244:CA
USER  AD> hepi:A:GLY263:CA
USER  AD> hepi:A:THR262:OG1
USER  AD> hepi:A:MET11:CE
USER  AD> hepi:A:THR188:H
USER  AD> hepi:A:MET11:H
USER  AD> hepi:A:GLY263:H
USER  AD> hepi:A:LYS192:H
USER  AD> hepi:A:LEU244:CB
USER  AD> hepi:A:MET11:N
USER  AD> hepi:A:GLY263:N
USER  AD> hepi:A:THR262:C
USER  AD> hepi:A:THR262:CA
USER  AD> hepi:A:THR262:H

USER  AD> lig_close_ats: 14
USER  AD> h11b_ab10_b3_m2_model1: :LIG1:O,O,H,C,O,H,C,C,O,C,C,H,C,C
MODEL 2
REMARK VINA RESULT:      -5.2      3.258      4.407
REMARK  15 active torsions:
REMARK  status: ('A' for Active; 'I' for Inactive)
REMARK    1  A    between atoms: C_1  and  O_7 
REMARK    2  A    between atoms: C_2  and  O_10 
REMARK    3  A    between atoms: C_3  and  O_11 
REMARK    4  A    between atoms: C_4  and  O_12 
REMARK    5  A    between atoms: C_6  and  C_8 
REMARK    6  A    between atoms: C_8  and  O_9 
REMARK    7  A    between atoms: O_12  and  C_13 
REMARK    8  A    between atoms: C_13  and  C_14 
REMARK    9  A    between atoms: C_15  and  C_16 
REMARK   10  A    between atoms: C_16  and  C_17 
REMARK   11  A    between atoms: C_17  and  C_18 
REMARK   12  A    between atoms: C_18  and  C_19 
REMARK   13  A    between atoms: C_19  and  C_20 
REMARK   14  A    between atoms: C_20  and  C_21 
REMARK   15  A    between atoms: C_21  and  C_22 
ROOT
HETATM    1  C   LIG     1      42.789   6.834   0.927  1.00  0.00     0.180 C 
HETATM    2  C   LIG     1      44.097   6.155   0.515  1.00  0.00     0.183 C 
HETATM    3  C   LIG     1      45.153   6.210   1.629  1.00  0.00     0.204 C 
HETATM    4  C   LIG     1      45.281   7.645   2.204  1.00  0.00     0.291 C 
HETATM    5  O   LIG     1      43.977   8.168   2.530  1.00  0.00    -0.348 OA
HETATM    6  C   LIG     1      43.116   8.257   1.391  1.00  0.00     0.179 C 
ENDROOT
BRANCH   4   7
HETATM    7  O   LIG     1      46.015   7.693   3.430  1.00  0.00    -0.355 OA
BRANCH   7   8
HETATM    8  C   LIG     1      45.616   8.689   4.362  1.00  0.00     0.198 C 
BRANCH   8   9
HETATM    9  C   LIG     1      46.796   9.362   4.999  1.00  0.00    -0.005 C 
HETATM   10  C   LIG     1      46.781  10.636   5.428  1.00  0.00    -0.029 C 
BRANCH  10  11
HETATM   11  C   LIG     1      47.962  11.348   6.023  1.00  0.00     0.027 C 
BRANCH  11  12
HETATM   12  C   LIG     1      49.020  10.346   6.493  1.00  0.00     0.004 C 
BRANCH  12  13
HETATM   13  C   LIG     1      49.856  10.902   7.648  1.00  0.00     0.000 C 
BRANCH  13  14
HETATM   14  C   LIG     1      51.331  10.528   7.488  1.00  0.00     0.000 C 
BRANCH  14  15
HETATM   15  C   LIG     1      52.007  11.347   6.387  1.00  0.00     0.000 C 
BRANCH  15  16
HETATM   16  C   LIG     1      53.388  10.785   6.047  1.00  0.00    -0.000 C 
BRANCH  16  17
HETATM   17  C   LIG     1      53.289   9.382   5.448  1.00  0.00    -0.005 C 
HETATM   18  C   LIG     1      52.333   9.348   4.264  1.00  0.00     0.005 C 
ENDBRANCH  16  17
ENDBRANCH  15  16
ENDBRANCH  14  15
ENDBRANCH  13  14
ENDBRANCH  12  13
ENDBRANCH  11  12
ENDBRANCH  10  11
ENDBRANCH   8   9
ENDBRANCH   7   8
ENDBRANCH   4   7
BRANCH   3  19
HETATM   19  O   LIG     1      46.383   5.725   1.064  1.00  0.00    -0.388 OA
HETATM   20  H   LIG     1      46.192   4.805   0.787  1.00  0.00     0.210 HD
ENDBRANCH   3  19
BRANCH   2  21
HETATM   21  O   LIG     1      43.863   4.776   0.180  1.00  0.00    -0.390 OA
HETATM   22  H   LIG     1      44.051   4.704  -0.778  1.00  0.00     0.210 HD
ENDBRANCH   2  21
BRANCH   6  23
HETATM   23  C   LIG     1      41.864   9.047   1.773  1.00  0.00     0.198 C 
BRANCH  23  24
HETATM   24  O   LIG     1      40.720   8.211   1.640  1.00  0.00    -0.398 OA
HETATM   25  H   LIG     1      40.303   8.151   2.518  1.00  0.00     0.209 HD
ENDBRANCH  23  24
ENDBRANCH   6  23
BRANCH   1  26
HETATM   26  O   LIG     1      42.209   6.048   1.986  1.00  0.00    -0.390 OA
HETATM   27  H   LIG     1      42.807   6.117   2.758  1.00  0.00     0.210 HD
ENDBRANCH   1  26
TORSDOF 15
ENDMDL
