REMARK AutoDockVina VirtualScreeningResult  Sun Mar  6 21:26:03 2016
USER  AD>  9 of 9 MODELS
USER  AD>  ligand efficiency  -0.2476
USER  AD>  -5.20,  3.295,  5.598
USER  AD> macro_close_ats: 17
USER  AD> hepi:A:THR188:N
USER  AD> hepi:A:GLY263:CA
USER  AD> hepi:A:GLY12:H
USER  AD> hepi:A:MET11:H
USER  AD> hepi:A:LYS192:H
USER  AD> hepi:A:LYS192:H
USER  AD> hepi:A:GLY263:H
USER  AD> hepi:A:SER10:H
USER  AD> hepi:A:PHE41:CZ
USER  AD> hepi:A:THR188:H
USER  AD> hepi:A:THR262:CA
USER  AD> hepi:A:SER10:CA
USER  AD> hepi:A:THR188:CB
USER  AD> hepi:A:LYS192:NZ
USER  AD> hepi:A:GLY12:N
USER  AD> hepi:A:SER10:OG
USER  AD> hepi:A:LYS192:H

USER  AD> lig_close_ats: 13
USER  AD> h11b_gb8_b2_m9_model1: :LIG1:O,C,C,C,H,C,H,H,C,O,C,O,C
MODEL 9
REMARK VINA RESULT:      -5.2      3.295      5.598
REMARK  13 active torsions:
REMARK  status: ('A' for Active; 'I' for Inactive)
REMARK    1  A    between atoms: C_1  and  O_21 
REMARK    2  A    between atoms: C_2  and  O_9 
REMARK    3  A    between atoms: C_3  and  O_10 
REMARK    4  A    between atoms: C_4  and  O_11 
REMARK    5  A    between atoms: C_6  and  C_7 
REMARK    6  A    between atoms: C_7  and  O_8 
REMARK    7  A    between atoms: O_11  and  C_12 
REMARK    8  A    between atoms: C_12  and  C_13 
REMARK    9  A    between atoms: C_14  and  C_15 
REMARK   10  A    between atoms: C_15  and  C_16 
REMARK   11  A    between atoms: C_16  and  C_17 
REMARK   12  A    between atoms: C_17  and  C_18 
REMARK   13  A    between atoms: C_18  and  C_19 
ROOT
HETATM    1  C   LIG     1      41.436   6.179   1.058  1.00  0.00     0.180 C 
HETATM    2  C   LIG     1      42.373   4.994   0.778  1.00  0.00     0.183 C 
HETATM    3  C   LIG     1      43.634   5.016   1.651  1.00  0.00     0.204 C 
HETATM    4  C   LIG     1      44.288   6.399   1.475  1.00  0.00     0.291 C 
HETATM    5  O   LIG     1      43.383   7.415   1.898  1.00  0.00    -0.348 OA
HETATM    6  C   LIG     1      42.213   7.507   1.085  1.00  0.00     0.179 C 
ENDROOT
BRANCH   4   7
HETATM    7  O   LIG     1      45.468   6.511   2.267  1.00  0.00    -0.355 OA
BRANCH   7   8
HETATM    8  C   LIG     1      46.490   7.211   1.567  1.00  0.00     0.198 C 
BRANCH   8   9
HETATM    9  C   LIG     1      46.322   7.003   0.097  1.00  0.00    -0.005 C 
HETATM   10  C   LIG     1      46.999   6.051  -0.559  1.00  0.00    -0.029 C 
BRANCH  10  11
HETATM   11  C   LIG     1      46.863   5.767  -2.028  1.00  0.00     0.027 C 
BRANCH  11  12
HETATM   12  C   LIG     1      47.699   6.757  -2.845  1.00  0.00     0.004 C 
BRANCH  12  13
HETATM   13  C   LIG     1      49.107   6.232  -3.114  1.00  0.00     0.000 C 
BRANCH  13  14
HETATM   14  C   LIG     1      50.158   7.260  -2.691  1.00  0.00    -0.000 C 
BRANCH  14  15
HETATM   15  C   LIG     1      51.575   6.727  -2.885  1.00  0.00    -0.005 C 
HETATM   16  C   LIG     1      52.414   6.918  -1.632  1.00  0.00     0.005 C 
ENDBRANCH  14  15
ENDBRANCH  13  14
ENDBRANCH  12  13
ENDBRANCH  11  12
ENDBRANCH  10  11
ENDBRANCH   8   9
ENDBRANCH   7   8
ENDBRANCH   4   7
BRANCH   3  17
HETATM   17  O   LIG     1      44.521   3.953   1.273  1.00  0.00    -0.388 OA
HETATM   18  H   LIG     1      44.069   3.100   1.393  1.00  0.00     0.210 HD
ENDBRANCH   3  17
BRANCH   2  19
HETATM   19  O   LIG     1      41.636   3.770   0.914  1.00  0.00    -0.390 OA
HETATM   20  H   LIG     1      41.507   3.594   1.865  1.00  0.00     0.210 HD
ENDBRANCH   2  19
BRANCH   6  21
HETATM   21  C   LIG     1      41.368   8.668   1.640  1.00  0.00     0.198 C 
BRANCH  21  22
HETATM   22  O   LIG     1      42.110   9.830   1.981  1.00  0.00    -0.398 OA
HETATM   23  H   LIG     1      42.009  10.485   1.268  1.00  0.00     0.209 HD
ENDBRANCH  21  22
ENDBRANCH   6  21
BRANCH   1  24
HETATM   24  O   LIG     1      40.450   6.214   0.017  1.00  0.00    -0.390 OA
HETATM   25  H   LIG     1      39.597   5.995   0.448  1.00  0.00     0.210 HD
ENDBRANCH   1  24
TORSDOF 13
ENDMDL
