REMARK AutoDockVina VirtualScreeningResult  Sun Mar  6 21:26:50 2016
USER  AD>  7 of 9 MODELS
USER  AD>  ligand efficiency  -0.2700
USER  AD>  -5.40,  7.413, 11.305
USER  AD> macro_close_ats: 10
USER  AD> hepi:A:LYS7:NZ
USER  AD> hepi:A:ARG143:H
USER  AD> hepi:A:ILE287:CG2
USER  AD> hepi:A:ALA93:O
USER  AD> hepi:A:ARG143:NH1
USER  AD> hepi:A:LYS7:H
USER  AD> hepi:A:LYS7:H
USER  AD> hepi:A:ALA140:CA
USER  AD> hepi:A:ARG143:H
USER  AD> hepi:A:ALA140:CB

USER  AD> lig_close_ats: 10
USER  AD> h11b_gb7_b3_m7_model1: :LIG1:O,O,O,O,C,H,H,H,H,C
MODEL 7
REMARK VINA RESULT:      -5.4      7.413     11.305
REMARK  12 active torsions:
REMARK  status: ('A' for Active; 'I' for Inactive)
REMARK    1  A    between atoms: C_1  and  O_20 
REMARK    2  A    between atoms: C_2  and  O_9 
REMARK    3  A    between atoms: C_3  and  O_10 
REMARK    4  A    between atoms: C_4  and  O_11 
REMARK    5  A    between atoms: C_6  and  C_7 
REMARK    6  A    between atoms: C_7  and  O_8 
REMARK    7  A    between atoms: O_11  and  C_12 
REMARK    8  A    between atoms: C_12  and  C_13 
REMARK    9  A    between atoms: C_14  and  C_15 
REMARK   10  A    between atoms: C_15  and  C_16 
REMARK   11  A    between atoms: C_16  and  C_17 
REMARK   12  A    between atoms: C_17  and  C_18 
ROOT
HETATM    1  C   LIG     1      43.008  -6.157  -3.944  1.00  0.00     0.180 C 
HETATM    2  C   LIG     1      42.275  -7.193  -3.099  1.00  0.00     0.183 C 
HETATM    3  C   LIG     1      40.817  -6.808  -2.848  1.00  0.00     0.204 C 
HETATM    4  C   LIG     1      40.733  -5.366  -2.290  1.00  0.00     0.291 C 
HETATM    5  O   LIG     1      41.449  -4.461  -3.150  1.00  0.00    -0.348 OA
HETATM    6  C   LIG     1      42.833  -4.773  -3.302  1.00  0.00     0.179 C 
ENDROOT
BRANCH   4   7
HETATM    7  O   LIG     1      39.401  -4.853  -2.232  1.00  0.00    -0.355 OA
BRANCH   7   8
HETATM    8  C   LIG     1      38.968  -4.281  -1.004  1.00  0.00     0.198 C 
BRANCH   8   9
HETATM    9  C   LIG     1      38.972  -2.780  -1.035  1.00  0.00    -0.005 C 
HETATM   10  C   LIG     1      39.796  -2.008  -0.311  1.00  0.00    -0.029 C 
BRANCH  10  11
HETATM   11  C   LIG     1      39.789  -0.505  -0.346  1.00  0.00     0.027 C 
BRANCH  11  12
HETATM   12  C   LIG     1      40.076   0.097   1.031  1.00  0.00     0.004 C 
BRANCH  12  13
HETATM   13  C   LIG     1      39.673   1.573   1.080  1.00  0.00    -0.000 C 
BRANCH  13  14
HETATM   14  C   LIG     1      40.725   2.466   0.421  1.00  0.00    -0.005 C 
HETATM   15  C   LIG     1      41.515   3.248   1.459  1.00  0.00     0.005 C 
ENDBRANCH  13  14
ENDBRANCH  12  13
ENDBRANCH  11  12
ENDBRANCH  10  11
ENDBRANCH   8   9
ENDBRANCH   7   8
ENDBRANCH   4   7
BRANCH   3  16
HETATM   16  O   LIG     1      40.283  -7.788  -1.941  1.00  0.00    -0.388 OA
HETATM   17  H   LIG     1      40.610  -7.515  -1.059  1.00  0.00     0.210 HD
ENDBRANCH   3  16
BRANCH   2  18
HETATM   18  O   LIG     1      42.320  -8.479  -3.744  1.00  0.00    -0.390 OA
HETATM   19  H   LIG     1      41.404  -8.820  -3.678  1.00  0.00     0.210 HD
ENDBRANCH   2  18
BRANCH   6  20
HETATM   20  C   LIG     1      43.469  -3.675  -4.167  1.00  0.00     0.198 C 
BRANCH  20  21
HETATM   21  O   LIG     1      44.875  -3.597  -3.941  1.00  0.00    -0.398 OA
HETATM   22  H   LIG     1      45.156  -4.484  -3.647  1.00  0.00     0.209 HD
ENDBRANCH  20  21
ENDBRANCH   6  20
BRANCH   1  23
HETATM   23  O   LIG     1      44.380  -6.563  -4.025  1.00  0.00    -0.390 OA
HETATM   24  H   LIG     1      44.469  -7.357  -3.452  1.00  0.00     0.210 HD
ENDBRANCH   1  23
TORSDOF 12
ENDMDL
