REMARK AutoDockVina VirtualScreeningResult  Sun Mar  6 21:26:52 2016
USER  AD>  8 of 9 MODELS
USER  AD>  ligand efficiency  -0.2429
USER  AD>  -5.10, 15.580, 18.738
USER  AD> macro_close_ats: 9
USER  AD> hepi:A:GLY263:H
USER  AD> hepi:A:LYS192:NZ
USER  AD> hepi:A:GLY263:N
USER  AD> hepi:A:THR262:H
USER  AD> hepi:A:VAL247:CG1
USER  AD> hepi:A:LYS192:H
USER  AD> hepi:A:THR188:H
USER  AD> hepi:A:LYS192:H
USER  AD> hepi:A:THR262:CA

USER  AD> lig_close_ats: 8
USER  AD> h11b_ga8_b3_m8_model1: :LIG1:O,C,H,O,C,C,O,C
MODEL 8
REMARK VINA RESULT:      -5.1     15.580     18.738
REMARK  13 active torsions:
REMARK  status: ('A' for Active; 'I' for Inactive)
REMARK    1  A    between atoms: C_1  and  O_21 
REMARK    2  A    between atoms: C_2  and  O_9 
REMARK    3  A    between atoms: C_3  and  O_10 
REMARK    4  A    between atoms: C_4  and  O_11 
REMARK    5  A    between atoms: C_6  and  C_7 
REMARK    6  A    between atoms: C_7  and  O_8 
REMARK    7  A    between atoms: O_11  and  C_12 
REMARK    8  A    between atoms: C_12  and  C_13 
REMARK    9  A    between atoms: C_14  and  C_15 
REMARK   10  A    between atoms: C_15  and  C_16 
REMARK   11  A    between atoms: C_16  and  C_17 
REMARK   12  A    between atoms: C_17  and  C_18 
REMARK   13  A    between atoms: C_18  and  C_19 
ROOT
HETATM    1  C   LIG     1      42.407   6.753   1.073  1.00  0.00     0.180 C 
HETATM    2  C   LIG     1      42.056   8.080   1.763  1.00  0.00     0.183 C 
HETATM    3  C   LIG     1      43.117   9.130   1.457  1.00  0.00     0.204 C 
HETATM    4  C   LIG     1      44.484   8.593   1.920  1.00  0.00     0.291 C 
HETATM    5  O   LIG     1      44.790   7.410   1.168  1.00  0.00    -0.348 OA
HETATM    6  C   LIG     1      43.863   6.331   1.374  1.00  0.00     0.179 C 
ENDROOT
BRANCH   4   7
HETATM    7  O   LIG     1      44.525   8.292   3.320  1.00  0.00    -0.355 OA
BRANCH   7   8
HETATM    8  C   LIG     1      45.852   8.346   3.837  1.00  0.00     0.198 C 
BRANCH   8   9
HETATM    9  C   LIG     1      46.312   9.771   3.839  1.00  0.00    -0.005 C 
HETATM   10  C   LIG     1      47.588  10.117   3.591  1.00  0.00    -0.029 C 
BRANCH  10  11
HETATM   11  C   LIG     1      48.109  11.525   3.626  1.00  0.00     0.027 C 
BRANCH  11  12
HETATM   12  C   LIG     1      49.169  11.685   4.723  1.00  0.00     0.004 C 
BRANCH  12  13
HETATM   13  C   LIG     1      48.626  11.293   6.098  1.00  0.00     0.000 C 
BRANCH  13  14
HETATM   14  C   LIG     1      49.460  10.168   6.715  1.00  0.00    -0.000 C 
BRANCH  14  15
HETATM   15  C   LIG     1      50.009  10.570   8.083  1.00  0.00    -0.005 C 
HETATM   16  C   LIG     1      51.435  11.089   7.980  1.00  0.00     0.005 C 
ENDBRANCH  14  15
ENDBRANCH  13  14
ENDBRANCH  12  13
ENDBRANCH  11  12
ENDBRANCH  10  11
ENDBRANCH   8   9
ENDBRANCH   7   8
ENDBRANCH   4   7
BRANCH   3  17
HETATM   17  O   LIG     1      42.752  10.376   2.058  1.00  0.00    -0.388 OA
HETATM   18  H   LIG     1      43.313  11.045   1.613  1.00  0.00     0.210 HD
ENDBRANCH   3  17
BRANCH   2  19
HETATM   19  O   LIG     1      40.787   8.597   1.320  1.00  0.00    -0.390 OA
HETATM   20  H   LIG     1      40.307   7.867   0.885  1.00  0.00     0.210 HD
ENDBRANCH   2  19
BRANCH   6  21
HETATM   21  C   LIG     1      44.330   5.178   0.465  1.00  0.00     0.198 C 
BRANCH  21  22
HETATM   22  O   LIG     1      43.280   4.537  -0.244  1.00  0.00    -0.398 OA
HETATM   23  H   LIG     1      42.703   4.095   0.402  1.00  0.00     0.209 HD
ENDBRANCH  21  22
ENDBRANCH   6  21
BRANCH   1  24
HETATM   24  O   LIG     1      41.447   5.769   1.470  1.00  0.00    -0.390 OA
HETATM   25  H   LIG     1      40.560   6.075   1.212  1.00  0.00     0.210 HD
ENDBRANCH   1  24
TORSDOF 13
ENDMDL
