REMARK AutoDockVina VirtualScreeningResult  Sun Mar  6 21:25:05 2016
USER  AD>  1 of 9 MODELS
USER  AD>  ligand efficiency  -0.2947
USER  AD>  -5.60,  0.000,  0.000
USER  AD> macro_close_ats: 10
USER  AD> hepi:A:ASP13:OD1
USER  AD> hepi:A:GLY12:H
USER  AD> hepi:A:LEU264:CG
USER  AD> hepi:A:MET11:CB
USER  AD> hepi:A:LYS192:H
USER  AD> hepi:A:ASP261:CG
USER  AD> hepi:A:HIS266:NE2
USER  AD> hepi:A:HIS266:CD2
USER  AD> hepi:A:GLY263:CA
USER  AD> hepi:A:HIS266:CE1

USER  AD> lig_close_ats: 8
USER  AD> h11b_gb6_b1_m1_model1: :LIG1:C,C,O,H,H,C,H,O
MODEL 1
REMARK VINA RESULT:      -5.6      0.000      0.000
REMARK  11 active torsions:
REMARK  status: ('A' for Active; 'I' for Inactive)
REMARK    1  A    between atoms: C_1  and  O_19 
REMARK    2  A    between atoms: C_2  and  O_9 
REMARK    3  A    between atoms: C_3  and  O_10 
REMARK    4  A    between atoms: C_4  and  O_11 
REMARK    5  A    between atoms: C_6  and  C_7 
REMARK    6  A    between atoms: C_7  and  O_8 
REMARK    7  A    between atoms: O_11  and  C_12 
REMARK    8  A    between atoms: C_12  and  C_13 
REMARK    9  A    between atoms: C_14  and  C_15 
REMARK   10  A    between atoms: C_15  and  C_16 
REMARK   11  A    between atoms: C_16  and  C_17 
ROOT
HETATM    1  C   LIG     1      39.730   3.102   1.177  1.00  0.00     0.180 C 
HETATM    2  C   LIG     1      39.818   4.633   1.289  1.00  0.00     0.183 C 
HETATM    3  C   LIG     1      40.790   5.177   0.248  1.00  0.00     0.204 C 
HETATM    4  C   LIG     1      42.163   4.517   0.471  1.00  0.00     0.291 C 
HETATM    5  O   LIG     1      42.028   3.104   0.261  1.00  0.00    -0.348 OA
HETATM    6  C   LIG     1      41.135   2.458   1.184  1.00  0.00     0.179 C 
ENDROOT
BRANCH   4   7
HETATM    7  O   LIG     1      42.698   4.757   1.777  1.00  0.00    -0.355 OA
BRANCH   7   8
HETATM    8  C   LIG     1      44.121   4.833   1.763  1.00  0.00     0.198 C 
BRANCH   8   9
HETATM    9  C   LIG     1      44.533   6.258   1.548  1.00  0.00    -0.005 C 
HETATM   10  C   LIG     1      45.721   6.728   1.953  1.00  0.00    -0.029 C 
BRANCH  10  11
HETATM   11  C   LIG     1      46.175   8.153   1.805  1.00  0.00     0.027 C 
BRANCH  11  12
HETATM   12  C   LIG     1      45.561   9.035   2.897  1.00  0.00     0.003 C 
BRANCH  12  13
HETATM   13  C   LIG     1      45.871   8.511   4.298  1.00  0.00    -0.004 C 
HETATM   14  C   LIG     1      46.665   9.528   5.104  1.00  0.00     0.005 C 
ENDBRANCH  12  13
ENDBRANCH  11  12
ENDBRANCH  10  11
ENDBRANCH   8   9
ENDBRANCH   7   8
ENDBRANCH   4   7
BRANCH   3  15
HETATM   15  O   LIG     1      40.818   6.606   0.311  1.00  0.00    -0.388 OA
HETATM   16  H   LIG     1      40.433   6.830   1.185  1.00  0.00     0.210 HD
ENDBRANCH   3  15
BRANCH   2  17
HETATM   17  O   LIG     1      38.545   5.270   1.079  1.00  0.00    -0.390 OA
HETATM   18  H   LIG     1      38.052   4.744   0.421  1.00  0.00     0.210 HD
ENDBRANCH   2  17
BRANCH   6  19
HETATM   19  C   LIG     1      41.092   0.971   0.779  1.00  0.00     0.198 C 
BRANCH  19  20
HETATM   20  O   LIG     1      42.348   0.314   0.858  1.00  0.00    -0.398 OA
HETATM   21  H   LIG     1      42.187  -0.640   0.949  1.00  0.00     0.209 HD
ENDBRANCH  19  20
ENDBRANCH   6  19
BRANCH   1  22
HETATM   22  O   LIG     1      38.892   2.615   2.229  1.00  0.00    -0.390 OA
HETATM   23  H   LIG     1      39.397   2.621   3.061  1.00  0.00     0.210 HD
ENDBRANCH   1  22
TORSDOF 11
ENDMDL
