REMARK AutoDockVina VirtualScreeningResult  Sun Mar  6 21:25:43 2016
USER  AD>  7 of 9 MODELS
USER  AD>  ligand efficiency  -0.2304
USER  AD>  -5.30, 27.054, 29.377
USER  AD> macro_close_ats: 12
USER  AD> hepi:A:ASN293:H
USER  AD> hepi:A:PRO274:CB
USER  AD> hepi:A:ILE316:CG2
USER  AD> hepi:A:ASN293:ND2
USER  AD> hepi:A:ALA320:CB
USER  AD> hepi:A:ASN293:H
USER  AD> hepi:A:ALA320:CA
USER  AD> hepi:A:PRO274:CG
USER  AD> hepi:A:GLU317:CG
USER  AD> hepi:A:ALA320:N
USER  AD> hepi:A:PHE256:CE2
USER  AD> hepi:A:LEU206:CD2

USER  AD> lig_close_ats: 11
USER  AD> h11b_aa10_b2_m7_model1: :LIG1:O,C,O,C,C,H,C,C,H,C,C
MODEL 7
REMARK VINA RESULT:      -5.3     27.054     29.377
REMARK  15 active torsions:
REMARK  status: ('A' for Active; 'I' for Inactive)
REMARK    1  A    between atoms: C_1  and  O_7 
REMARK    2  A    between atoms: C_2  and  O_10 
REMARK    3  A    between atoms: C_3  and  O_11 
REMARK    4  A    between atoms: C_4  and  O_12 
REMARK    5  A    between atoms: C_6  and  C_8 
REMARK    6  A    between atoms: C_8  and  O_9 
REMARK    7  A    between atoms: O_12  and  C_13 
REMARK    8  A    between atoms: C_13  and  C_14 
REMARK    9  A    between atoms: C_15  and  C_16 
REMARK   10  A    between atoms: C_16  and  C_17 
REMARK   11  A    between atoms: C_17  and  C_18 
REMARK   12  A    between atoms: C_18  and  C_19 
REMARK   13  A    between atoms: C_19  and  C_20 
REMARK   14  A    between atoms: C_20  and  C_21 
REMARK   15  A    between atoms: C_21  and  C_22 
ROOT
HETATM    1  C   LIG     1      37.083   0.131  25.235  1.00  0.00     0.180 C 
HETATM    2  C   LIG     1      35.810   0.680  24.578  1.00  0.00     0.183 C 
HETATM    3  C   LIG     1      36.183   1.684  23.483  1.00  0.00     0.204 C 
HETATM    4  C   LIG     1      37.040   2.803  24.113  1.00  0.00     0.291 C 
HETATM    5  O   LIG     1      38.239   2.214  24.662  1.00  0.00    -0.348 OA
HETATM    6  C   LIG     1      37.966   1.293  25.734  1.00  0.00     0.179 C 
ENDROOT
BRANCH   4   7
HETATM    7  O   LIG     1      36.353   3.530  25.140  1.00  0.00    -0.355 OA
BRANCH   7   8
HETATM    8  C   LIG     1      36.197   4.907  24.810  1.00  0.00     0.198 C 
BRANCH   8   9
HETATM    9  C   LIG     1      35.222   5.531  25.759  1.00  0.00    -0.005 C 
HETATM   10  C   LIG     1      34.108   6.152  25.330  1.00  0.00    -0.029 C 
BRANCH  10  11
HETATM   11  C   LIG     1      33.112   6.835  26.218  1.00  0.00     0.027 C 
BRANCH  11  12
HETATM   12  C   LIG     1      31.946   7.391  25.393  1.00  0.00     0.004 C 
BRANCH  12  13
HETATM   13  C   LIG     1      31.524   8.776  25.874  1.00  0.00     0.000 C 
BRANCH  13  14
HETATM   14  C   LIG     1      32.033   9.867  24.930  1.00  0.00     0.000 C 
BRANCH  14  15
HETATM   15  C   LIG     1      32.993  10.811  25.653  1.00  0.00     0.000 C 
BRANCH  15  16
HETATM   16  C   LIG     1      34.451  10.465  25.353  1.00  0.00    -0.000 C 
BRANCH  16  17
HETATM   17  C   LIG     1      35.253  10.313  26.645  1.00  0.00    -0.005 C 
HETATM   18  C   LIG     1      36.142   9.081  26.608  1.00  0.00     0.005 C 
ENDBRANCH  16  17
ENDBRANCH  15  16
ENDBRANCH  14  15
ENDBRANCH  13  14
ENDBRANCH  12  13
ENDBRANCH  11  12
ENDBRANCH  10  11
ENDBRANCH   8   9
ENDBRANCH   7   8
ENDBRANCH   4   7
BRANCH   3  19
HETATM   19  O   LIG     1      35.005   2.150  22.820  1.00  0.00    -0.388 OA
HETATM   20  H   LIG     1      34.359   2.320  23.537  1.00  0.00     0.210 HD
ENDBRANCH   3  19
BRANCH   2  21
HETATM   21  O   LIG     1      35.055  -0.384  23.971  1.00  0.00    -0.390 OA
HETATM   22  H   LIG     1      35.242  -0.319  23.010  1.00  0.00     0.210 HD
ENDBRANCH   2  21
BRANCH   6  23
HETATM   23  C   LIG     1      39.308   0.806  26.297  1.00  0.00     0.198 C 
BRANCH  23  24
HETATM   24  O   LIG     1      40.404   1.282  25.526  1.00  0.00    -0.398 OA
HETATM   25  H   LIG     1      40.041   1.717  24.735  1.00  0.00     0.209 HD
ENDBRANCH  23  24
ENDBRANCH   6  23
BRANCH   1  26
HETATM   26  O   LIG     1      37.750  -0.672  24.240  1.00  0.00    -0.390 OA
HETATM   27  H   LIG     1      37.724  -1.601  24.537  1.00  0.00     0.210 HD
ENDBRANCH   1  26
TORSDOF 15
ENDMDL
