REMARK AutoDockVina VirtualScreeningResult  Sun Mar  6 21:25:01 2016
USER  AD>  5 of 9 MODELS
USER  AD>  ligand efficiency  -0.3692
USER  AD>  -4.80, 22.169, 24.013
USER  AD> macro_close_ats: 9
USER  AD> hepi:A:LYS7:H
USER  AD> hepi:A:ARG120:N
USER  AD> hepi:A:ARG120:H
USER  AD> hepi:A:ARG143:H
USER  AD> hepi:A:ALA119:C
USER  AD> hepi:A:GLN94:O
USER  AD> hepi:A:ARG143:H
USER  AD> hepi:A:LYS7:NZ
USER  AD> hepi:A:ARG120:CD

USER  AD> lig_close_ats: 9
USER  AD> h11b_gbm_b1_m5_model1: :LIG1:C,C,O,C,H,O,C,H,O
MODEL 5
REMARK VINA RESULT:      -4.8     22.169     24.013
REMARK  6 active torsions:
REMARK  status: ('A' for Active; 'I' for Inactive)
REMARK    1  A    between atoms: C_1  and  O_13 
REMARK    2  A    between atoms: C_2  and  O_9 
REMARK    3  A    between atoms: C_3  and  O_11 
REMARK    4  A    between atoms: C_4  and  O_10 
REMARK    5  A    between atoms: C_6  and  C_7 
REMARK    6  A    between atoms: C_7  and  O_8 
ROOT
HETATM    1  C   LIG     1      42.999  -6.577  -3.582  1.00  0.00     0.180 C 
HETATM    2  C   LIG     1      42.471  -5.321  -2.884  1.00  0.00     0.183 C 
HETATM    3  C   LIG     1      41.057  -5.534  -2.350  1.00  0.00     0.204 C 
HETATM    4  C   LIG     1      40.160  -6.098  -3.472  1.00  0.00     0.290 C 
HETATM    5  O   LIG     1      40.708  -7.291  -4.029  1.00  0.00    -0.349 OA
HETATM    6  C   LIG     1      41.987  -7.057  -4.637  1.00  0.00     0.179 C 
ENDROOT
BRANCH   6   7
HETATM    7  C   LIG     1      42.468  -8.347  -5.314  1.00  0.00     0.198 C 
BRANCH   7   8
HETATM    8  O   LIG     1      41.424  -8.996  -6.031  1.00  0.00    -0.398 OA
HETATM    9  H   LIG     1      41.848  -9.509  -6.754  1.00  0.00     0.209 HD
ENDBRANCH   7   8
ENDBRANCH   6   7
BRANCH   1  10
HETATM   10  O   LIG     1      44.269  -6.291  -4.179  1.00  0.00    -0.390 OA
HETATM   11  H   LIG     1      44.089  -6.226  -5.142  1.00  0.00     0.210 HD
ENDBRANCH   1  10
BRANCH   2  12
HETATM   12  O   LIG     1      43.364  -4.979  -1.811  1.00  0.00    -0.390 OA
HETATM   13  H   LIG     1      42.812  -4.996  -1.001  1.00  0.00     0.210 HD
ENDBRANCH   2  12
BRANCH   4  14
HETATM   14  O   LIG     1      38.813  -6.289  -3.024  1.00  0.00    -0.363 OA
HETATM   15  C   LIG     1      38.673  -7.172  -1.920  1.00  0.00     0.204 C 
ENDBRANCH   4  14
BRANCH   3  16
HETATM   16  O   LIG     1      40.570  -4.275  -1.855  1.00  0.00    -0.388 OA
HETATM   17  H   LIG     1      41.305  -3.865  -1.363  1.00  0.00     0.210 HD
ENDBRANCH   3  16
TORSDOF 6
ENDMDL
