REMARK AutoDockVina VirtualScreeningResult  Sun Mar  6 21:25:52 2016
USER  AD>  2 of 9 MODELS
USER  AD>  ligand efficiency  -0.3923
USER  AD>  -5.10, 12.216, 14.419
USER  AD> macro_close_ats: 7
USER  AD> hepi:A:SER10:OG
USER  AD> hepi:A:ASP261:CG
USER  AD> hepi:A:LYS192:H
USER  AD> hepi:A:ASP261:O
USER  AD> hepi:A:THR262:CA
USER  AD> hepi:A:ASP261:C
USER  AD> hepi:A:GLY263:H

USER  AD> lig_close_ats: 4
USER  AD> h11b_gbm_b2_m2_model1: :LIG1:O,H,O,O
MODEL 2
REMARK VINA RESULT:      -5.1     12.216     14.419
REMARK  6 active torsions:
REMARK  status: ('A' for Active; 'I' for Inactive)
REMARK    1  A    between atoms: C_1  and  O_13 
REMARK    2  A    between atoms: C_2  and  O_9 
REMARK    3  A    between atoms: C_3  and  O_11 
REMARK    4  A    between atoms: C_4  and  O_10 
REMARK    5  A    between atoms: C_6  and  C_7 
REMARK    6  A    between atoms: C_7  and  O_8 
ROOT
HETATM    1  C   LIG     1      40.004   3.445   1.404  1.00  0.00     0.180 C 
HETATM    2  C   LIG     1      40.482   4.763   2.017  1.00  0.00     0.183 C 
HETATM    3  C   LIG     1      41.698   5.313   1.276  1.00  0.00     0.204 C 
HETATM    4  C   LIG     1      42.770   4.209   1.153  1.00  0.00     0.290 C 
HETATM    5  O   LIG     1      42.246   3.039   0.529  1.00  0.00    -0.349 OA
HETATM    6  C   LIG     1      41.180   2.459   1.294  1.00  0.00     0.179 C 
ENDROOT
BRANCH   6   7
HETATM    7  C   LIG     1      40.738   1.147   0.632  1.00  0.00     0.198 C 
BRANCH   7   8
HETATM    8  O   LIG     1      41.831   0.450   0.044  1.00  0.00    -0.398 OA
HETATM    9  H   LIG     1      41.662   0.417  -0.923  1.00  0.00     0.209 HD
ENDBRANCH   7   8
ENDBRANCH   6   7
BRANCH   1  10
HETATM   10  O   LIG     1      38.949   2.902   2.207  1.00  0.00    -0.390 OA
HETATM   11  H   LIG     1      38.754   2.025   1.812  1.00  0.00     0.210 HD
ENDBRANCH   1  10
BRANCH   2  12
HETATM   12  O   LIG     1      39.402   5.711   1.975  1.00  0.00    -0.390 OA
HETATM   13  H   LIG     1      39.203   5.916   2.912  1.00  0.00     0.210 HD
ENDBRANCH   2  12
BRANCH   4  14
HETATM   14  O   LIG     1      43.944   4.687   0.486  1.00  0.00    -0.363 OA
HETATM   15  C   LIG     1      43.726   5.168  -0.833  1.00  0.00     0.204 C 
ENDBRANCH   4  14
BRANCH   3  16
HETATM   16  O   LIG     1      42.185   6.456   1.999  1.00  0.00    -0.388 OA
HETATM   17  H   LIG     1      42.544   7.074   1.336  1.00  0.00     0.210 HD
ENDBRANCH   3  16
TORSDOF 6
ENDMDL
