REMARK AutoDockVina VirtualScreeningResult  Sun Mar  6 21:25:16 2016
USER  AD>  5 of 9 MODELS
USER  AD>  ligand efficiency  -0.2261
USER  AD>  -5.20, 15.800, 19.252
USER  AD> macro_close_ats: 13
USER  AD> hepi:A:THR144:OG1
USER  AD> hepi:A:ARG120:CD
USER  AD> hepi:A:LYS7:H
USER  AD> hepi:A:ASP13:CG
USER  AD> hepi:A:ASP13:OD1
USER  AD> hepi:A:MET114:CE
USER  AD> hepi:A:ARG120:CB
USER  AD> hepi:A:LYS136:CB
USER  AD> hepi:A:GLN94:O
USER  AD> hepi:A:ALA140:CB
USER  AD> hepi:A:LYS136:H
USER  AD> hepi:A:ARG120:CA
USER  AD> hepi:A:LYS7:H

USER  AD> lig_close_ats: 14
USER  AD> h11b_ga10_b1_m5_model1: :LIG1:C,C,C,C,H,C,H,H,O,O,C,H,C,C
MODEL 5
REMARK VINA RESULT:      -5.2     15.800     19.252
REMARK  15 active torsions:
REMARK  status: ('A' for Active; 'I' for Inactive)
REMARK    1  A    between atoms: C_1  and  O_23 
REMARK    2  A    between atoms: C_2  and  O_9 
REMARK    3  A    between atoms: C_3  and  O_10 
REMARK    4  A    between atoms: C_4  and  O_11 
REMARK    5  A    between atoms: C_6  and  C_7 
REMARK    6  A    between atoms: C_7  and  O_8 
REMARK    7  A    between atoms: O_11  and  C_12 
REMARK    8  A    between atoms: C_12  and  C_13 
REMARK    9  A    between atoms: C_14  and  C_15 
REMARK   10  A    between atoms: C_15  and  C_16 
REMARK   11  A    between atoms: C_16  and  C_17 
REMARK   12  A    between atoms: C_17  and  C_18 
REMARK   13  A    between atoms: C_18  and  C_19 
REMARK   14  A    between atoms: C_19  and  C_20 
REMARK   15  A    between atoms: C_20  and  C_21 
ROOT
HETATM    1  C   LIG     1      43.459  -6.840  -3.834  1.00  0.00     0.180 C 
HETATM    2  C   LIG     1      43.029  -5.439  -4.291  1.00  0.00     0.183 C 
HETATM    3  C   LIG     1      43.147  -4.449  -3.140  1.00  0.00     0.204 C 
HETATM    4  C   LIG     1      42.291  -4.956  -1.964  1.00  0.00     0.291 C 
HETATM    5  O   LIG     1      42.810  -6.221  -1.530  1.00  0.00    -0.348 OA
HETATM    6  C   LIG     1      42.743  -7.253  -2.528  1.00  0.00     0.179 C 
ENDROOT
BRANCH   4   7
HETATM    7  O   LIG     1      40.907  -5.100  -2.300  1.00  0.00    -0.355 OA
BRANCH   7   8
HETATM    8  C   LIG     1      40.116  -4.050  -1.750  1.00  0.00     0.198 C 
BRANCH   8   9
HETATM    9  C   LIG     1      38.951  -4.653  -1.027  1.00  0.00    -0.005 C 
HETATM   10  C   LIG     1      38.388  -5.809  -1.404  1.00  0.00    -0.029 C 
BRANCH  10  11
HETATM   11  C   LIG     1      37.191  -6.429  -0.741  1.00  0.00     0.027 C 
BRANCH  11  12
HETATM   12  C   LIG     1      36.748  -7.693  -1.484  1.00  0.00     0.004 C 
BRANCH  12  13
HETATM   13  C   LIG     1      37.387  -7.783  -2.869  1.00  0.00     0.000 C 
BRANCH  13  14
HETATM   14  C   LIG     1      36.501  -8.573  -3.834  1.00  0.00     0.000 C 
BRANCH  14  15
HETATM   15  C   LIG     1      36.730  -8.131  -5.278  1.00  0.00     0.000 C 
BRANCH  15  16
HETATM   16  C   LIG     1      38.172  -7.670  -5.501  1.00  0.00    -0.000 C 
BRANCH  16  17
HETATM   17  C   LIG     1      38.764  -8.308  -6.756  1.00  0.00    -0.005 C 
HETATM   18  C   LIG     1      38.042  -7.849  -8.012  1.00  0.00     0.005 C 
ENDBRANCH  16  17
ENDBRANCH  15  16
ENDBRANCH  14  15
ENDBRANCH  13  14
ENDBRANCH  12  13
ENDBRANCH  11  12
ENDBRANCH  10  11
ENDBRANCH   8   9
ENDBRANCH   7   8
ENDBRANCH   4   7
BRANCH   3  19
HETATM   19  O   LIG     1      42.791  -3.139  -3.591  1.00  0.00    -0.388 OA
HETATM   20  H   LIG     1      42.585  -2.638  -2.774  1.00  0.00     0.210 HD
ENDBRANCH   3  19
BRANCH   2  21
HETATM   21  O   LIG     1      43.851  -4.957  -5.370  1.00  0.00    -0.390 OA
HETATM   22  H   LIG     1      44.112  -5.731  -5.906  1.00  0.00     0.210 HD
ENDBRANCH   2  21
BRANCH   6  23
HETATM   23  C   LIG     1      43.374  -8.509  -1.897  1.00  0.00     0.198 C 
BRANCH  23  24
HETATM   24  O   LIG     1      43.054  -8.687  -0.526  1.00  0.00    -0.398 OA
HETATM   25  H   LIG     1      43.246  -9.608  -0.287  1.00  0.00     0.209 HD
ENDBRANCH  23  24
ENDBRANCH   6  23
BRANCH   1  26
HETATM   26  O   LIG     1      43.229  -7.752  -4.914  1.00  0.00    -0.390 OA
HETATM   27  H   LIG     1      42.913  -7.248  -5.685  1.00  0.00     0.210 HD
ENDBRANCH   1  26
TORSDOF 15
ENDMDL
