REMARK AutoDockVina VirtualScreeningResult  Sun Mar  6 21:26:50 2016
USER  AD>  9 of 9 MODELS
USER  AD>  ligand efficiency  -0.2700
USER  AD>  -5.40,  4.392,  6.048
USER  AD> macro_close_ats: 11
USER  AD> hepi:A:MET11:N
USER  AD> hepi:A:THR262:CA
USER  AD> hepi:A:THR262:C
USER  AD> hepi:A:HIS266:CD2
USER  AD> hepi:A:GLY263:H
USER  AD> hepi:A:THR262:OG1
USER  AD> hepi:A:MET11:CB
USER  AD> hepi:A:GLY12:H
USER  AD> hepi:A:LYS192:H
USER  AD> hepi:A:THR187:CA
USER  AD> hepi:A:MET11:H

USER  AD> lig_close_ats: 8
USER  AD> h11b_gb7_b3_m9_model1: :LIG1:C,C,C,C,O,H,O,H
MODEL 9
REMARK VINA RESULT:      -5.4      4.392      6.048
REMARK  12 active torsions:
REMARK  status: ('A' for Active; 'I' for Inactive)
REMARK    1  A    between atoms: C_1  and  O_20 
REMARK    2  A    between atoms: C_2  and  O_9 
REMARK    3  A    between atoms: C_3  and  O_10 
REMARK    4  A    between atoms: C_4  and  O_11 
REMARK    5  A    between atoms: C_6  and  C_7 
REMARK    6  A    between atoms: C_7  and  O_8 
REMARK    7  A    between atoms: O_11  and  C_12 
REMARK    8  A    between atoms: C_12  and  C_13 
REMARK    9  A    between atoms: C_14  and  C_15 
REMARK   10  A    between atoms: C_15  and  C_16 
REMARK   11  A    between atoms: C_16  and  C_17 
REMARK   12  A    between atoms: C_17  and  C_18 
ROOT
HETATM    1  C   LIG     1      42.391   4.668   1.618  1.00  0.00     0.180 C 
HETATM    2  C   LIG     1      43.761   5.090   1.099  1.00  0.00     0.183 C 
HETATM    3  C   LIG     1      44.190   6.453   1.642  1.00  0.00     0.204 C 
HETATM    4  C   LIG     1      43.075   7.500   1.401  1.00  0.00     0.291 C 
HETATM    5  O   LIG     1      41.824   7.018   1.922  1.00  0.00    -0.348 OA
HETATM    6  C   LIG     1      41.383   5.793   1.340  1.00  0.00     0.179 C 
ENDROOT
BRANCH   4   7
HETATM    7  O   LIG     1      43.305   8.743   2.067  1.00  0.00    -0.355 OA
BRANCH   7   8
HETATM    8  C   LIG     1      43.439   9.908   1.261  1.00  0.00     0.198 C 
BRANCH   8   9
HETATM    9  C   LIG     1      44.145  11.023   1.976  1.00  0.00    -0.005 C 
HETATM   10  C   LIG     1      43.883  11.405   3.236  1.00  0.00    -0.029 C 
BRANCH  10  11
HETATM   11  C   LIG     1      44.593  12.526   3.941  1.00  0.00     0.027 C 
BRANCH  11  12
HETATM   12  C   LIG     1      45.889  12.914   3.227  1.00  0.00     0.004 C 
BRANCH  12  13
HETATM   13  C   LIG     1      47.105  12.669   4.124  1.00  0.00    -0.000 C 
BRANCH  13  14
HETATM   14  C   LIG     1      47.355  11.176   4.339  1.00  0.00    -0.005 C 
HETATM   15  C   LIG     1      47.670  10.871   5.795  1.00  0.00     0.005 C 
ENDBRANCH  13  14
ENDBRANCH  12  13
ENDBRANCH  11  12
ENDBRANCH  10  11
ENDBRANCH   8   9
ENDBRANCH   7   8
ENDBRANCH   4   7
BRANCH   3  16
HETATM   16  O   LIG     1      45.423   6.790   0.981  1.00  0.00    -0.388 OA
HETATM   17  H   LIG     1      45.682   7.654   1.365  1.00  0.00     0.210 HD
ENDBRANCH   3  16
BRANCH   2  18
HETATM   18  O   LIG     1      44.749   4.107   1.456  1.00  0.00    -0.390 OA
HETATM   19  H   LIG     1      45.594   4.602   1.475  1.00  0.00     0.210 HD
ENDBRANCH   2  18
BRANCH   6  20
HETATM   20  C   LIG     1      40.004   5.462   1.931  1.00  0.00     0.198 C 
BRANCH  20  21
HETATM   21  O   LIG     1      40.110   4.463   2.944  1.00  0.00    -0.398 OA
HETATM   22  H   LIG     1      40.743   4.806   3.604  1.00  0.00     0.209 HD
ENDBRANCH  20  21
ENDBRANCH   6  20
BRANCH   1  23
HETATM   23  O   LIG     1      42.046   3.438   0.967  1.00  0.00    -0.390 OA
HETATM   24  H   LIG     1      41.619   2.874   1.649  1.00  0.00     0.210 HD
ENDBRANCH   1  23
TORSDOF 12
ENDMDL
