REMARK AutoDockVina VirtualScreeningResult  Sun Mar  6 21:25:03 2016
USER  AD>  8 of 9 MODELS
USER  AD>  ligand efficiency  -0.3333
USER  AD>  -5.00, 10.614, 13.181
USER  AD> macro_close_ats: 11
USER  AD> hepi:A:LYS192:NZ
USER  AD> hepi:A:LYS192:H
USER  AD> hepi:A:GLY263:H
USER  AD> hepi:A:PHE41:CZ
USER  AD> hepi:A:THR262:CA
USER  AD> hepi:A:LYS192:H
USER  AD> hepi:A:ASP261:CG
USER  AD> hepi:A:MET11:H
USER  AD> hepi:A:SER10:CA
USER  AD> hepi:A:LYS192:H
USER  AD> hepi:A:ASP261:O

USER  AD> lig_close_ats: 10
USER  AD> h11b_gb3_b1_m8_model1: :LIG1:O,C,C,O,H,C,C,H,C,O
MODEL 8
REMARK VINA RESULT:      -5.0     10.614     13.181
REMARK  8 active torsions:
REMARK  status: ('A' for Active; 'I' for Inactive)
REMARK    1  A    between atoms: C_1  and  O_15 
REMARK    2  A    between atoms: C_2  and  O_9 
REMARK    3  A    between atoms: C_3  and  O_10 
REMARK    4  A    between atoms: C_4  and  O_11 
REMARK    5  A    between atoms: C_6  and  C_7 
REMARK    6  A    between atoms: C_7  and  O_8 
REMARK    7  A    between atoms: O_11  and  C_12 
REMARK    8  A    between atoms: C_12  and  C_13 
ROOT
HETATM    1  C   LIG     1      40.417   5.319   1.266  1.00  0.00     0.180 C 
HETATM    2  C   LIG     1      41.343   6.430   1.758  1.00  0.00     0.183 C 
HETATM    3  C   LIG     1      42.777   6.226   1.270  1.00  0.00     0.204 C 
HETATM    4  C   LIG     1      43.257   4.801   1.620  1.00  0.00     0.291 C 
HETATM    5  O   LIG     1      42.337   3.818   1.129  1.00  0.00    -0.348 OA
HETATM    6  C   LIG     1      41.015   3.956   1.646  1.00  0.00     0.179 C 
ENDROOT
BRANCH   4   7
HETATM    7  O   LIG     1      44.502   4.537   0.969  1.00  0.00    -0.355 OA
BRANCH   7   8
HETATM    8  C   LIG     1      44.601   5.077  -0.344  1.00  0.00     0.197 C 
BRANCH   8   9
HETATM    9  C   LIG     1      45.917   5.779  -0.493  1.00  0.00    -0.011 C 
HETATM   10  C   LIG     1      46.580   6.356   0.515  1.00  0.00     0.009 C 
ENDBRANCH   8   9
ENDBRANCH   7   8
ENDBRANCH   4   7
BRANCH   3  11
HETATM   11  O   LIG     1      43.600   7.239   1.870  1.00  0.00    -0.388 OA
HETATM   12  H   LIG     1      43.077   8.063   1.791  1.00  0.00     0.210 HD
ENDBRANCH   3  11
BRANCH   2  13
HETATM   13  O   LIG     1      40.865   7.708   1.305  1.00  0.00    -0.390 OA
HETATM   14  H   LIG     1      40.035   7.506   0.825  1.00  0.00     0.210 HD
ENDBRANCH   2  13
BRANCH   6  15
HETATM   15  C   LIG     1      40.175   2.800   1.083  1.00  0.00     0.198 C 
BRANCH  15  16
HETATM   16  O   LIG     1      38.976   2.624   1.833  1.00  0.00    -0.398 OA
HETATM   17  H   LIG     1      38.240   2.834   1.227  1.00  0.00     0.209 HD
ENDBRANCH  15  16
ENDBRANCH   6  15
BRANCH   1  18
HETATM   18  O   LIG     1      39.128   5.543   1.849  1.00  0.00    -0.390 OA
HETATM   19  H   LIG     1      38.934   6.500   1.734  1.00  0.00     0.210 HD
ENDBRANCH   1  18
TORSDOF 8
ENDMDL
