REMARK AutoDockVina VirtualScreeningResult  Sun Mar  6 21:26:34 2016
USER  AD>  1 of 9 MODELS
USER  AD>  ligand efficiency  -0.2478
USER  AD>  -5.70,  0.000,  0.000
USER  AD> macro_close_ats: 15
USER  AD> hepi:A:ARG143:H
USER  AD> hepi:A:LEU286:O
USER  AD> hepi:A:ARG120:CA
USER  AD> hepi:A:LYS7:H
USER  AD> hepi:A:GLN94:O
USER  AD> hepi:A:ARG143:NH1
USER  AD> hepi:A:LYS7:NZ
USER  AD> hepi:A:ARG120:CB
USER  AD> hepi:A:ASP13:CG
USER  AD> hepi:A:ARG143:H
USER  AD> hepi:A:ARG120:H
USER  AD> hepi:A:ARG120:N
USER  AD> hepi:A:GLN94:C
USER  AD> hepi:A:MET114:SD
USER  AD> hepi:A:LYS7:H

USER  AD> lig_close_ats: 9
USER  AD> h11b_aa10_b3_m1_model1: :LIG1:O,C,O,H,H,H,C,C,O
MODEL 1
REMARK VINA RESULT:      -5.7      0.000      0.000
REMARK  15 active torsions:
REMARK  status: ('A' for Active; 'I' for Inactive)
REMARK    1  A    between atoms: C_1  and  O_7 
REMARK    2  A    between atoms: C_2  and  O_10 
REMARK    3  A    between atoms: C_3  and  O_11 
REMARK    4  A    between atoms: C_4  and  O_12 
REMARK    5  A    between atoms: C_6  and  C_8 
REMARK    6  A    between atoms: C_8  and  O_9 
REMARK    7  A    between atoms: O_12  and  C_13 
REMARK    8  A    between atoms: C_13  and  C_14 
REMARK    9  A    between atoms: C_15  and  C_16 
REMARK   10  A    between atoms: C_16  and  C_17 
REMARK   11  A    between atoms: C_17  and  C_18 
REMARK   12  A    between atoms: C_18  and  C_19 
REMARK   13  A    between atoms: C_19  and  C_20 
REMARK   14  A    between atoms: C_20  and  C_21 
REMARK   15  A    between atoms: C_21  and  C_22 
ROOT
HETATM    1  C   LIG     1      43.124  -6.199  -4.564  1.00  0.00     0.180 C 
HETATM    2  C   LIG     1      42.789  -5.082  -3.567  1.00  0.00     0.183 C 
HETATM    3  C   LIG     1      42.489  -5.687  -2.192  1.00  0.00     0.204 C 
HETATM    4  C   LIG     1      41.334  -6.701  -2.341  1.00  0.00     0.291 C 
HETATM    5  O   LIG     1      41.746  -7.742  -3.251  1.00  0.00    -0.348 OA
HETATM    6  C   LIG     1      41.998  -7.252  -4.582  1.00  0.00     0.179 C 
ENDROOT
BRANCH   4   7
HETATM    7  O   LIG     1      40.119  -6.105  -2.817  1.00  0.00    -0.355 OA
BRANCH   7   8
HETATM    8  C   LIG     1      39.073  -6.177  -1.853  1.00  0.00     0.198 C 
BRANCH   8   9
HETATM    9  C   LIG     1      38.564  -4.796  -1.579  1.00  0.00    -0.005 C 
HETATM   10  C   LIG     1      39.053  -4.043  -0.577  1.00  0.00    -0.029 C 
BRANCH  10  11
HETATM   11  C   LIG     1      38.563  -2.672  -0.218  1.00  0.00     0.027 C 
BRANCH  11  12
HETATM   12  C   LIG     1      39.697  -1.646  -0.335  1.00  0.00     0.004 C 
BRANCH  12  13
HETATM   13  C   LIG     1      40.100  -1.416  -1.788  1.00  0.00     0.000 C 
BRANCH  13  14
HETATM   14  C   LIG     1      40.468   0.049  -2.033  1.00  0.00     0.000 C 
BRANCH  14  15
HETATM   15  C   LIG     1      40.601   0.807  -0.712  1.00  0.00     0.000 C 
BRANCH  15  16
HETATM   16  C   LIG     1      39.696   2.038  -0.680  1.00  0.00    -0.000 C 
BRANCH  16  17
HETATM   17  C   LIG     1      39.414   2.470   0.759  1.00  0.00    -0.005 C 
HETATM   18  C   LIG     1      38.765   3.844   0.812  1.00  0.00     0.005 C 
ENDBRANCH  16  17
ENDBRANCH  15  16
ENDBRANCH  14  15
ENDBRANCH  13  14
ENDBRANCH  12  13
ENDBRANCH  11  12
ENDBRANCH  10  11
ENDBRANCH   8   9
ENDBRANCH   7   8
ENDBRANCH   4   7
BRANCH   3  19
HETATM   19  O   LIG     1      42.240  -4.649  -1.241  1.00  0.00    -0.388 OA
HETATM   20  H   LIG     1      41.302  -4.402  -1.373  1.00  0.00     0.210 HD
ENDBRANCH   3  19
BRANCH   2  21
HETATM   21  O   LIG     1      43.899  -4.178  -3.426  1.00  0.00    -0.390 OA
HETATM   22  H   LIG     1      44.265  -4.355  -2.534  1.00  0.00     0.210 HD
ENDBRANCH   2  21
BRANCH   6  23
HETATM   23  C   LIG     1      42.336  -8.453  -5.476  1.00  0.00     0.198 C 
BRANCH  23  24
HETATM   24  O   LIG     1      41.169  -9.011  -6.066  1.00  0.00    -0.398 OA
HETATM   25  H   LIG     1      40.982  -8.514  -6.881  1.00  0.00     0.209 HD
ENDBRANCH  23  24
ENDBRANCH   6  23
BRANCH   1  26
HETATM   26  O   LIG     1      44.387  -6.759  -4.148  1.00  0.00    -0.390 OA
HETATM   27  H   LIG     1      44.608  -7.489  -4.758  1.00  0.00     0.210 HD
ENDBRANCH   1  26
TORSDOF 15
ENDMDL
