REMARK AutoDockVina VirtualScreeningResult  Sun Mar  6 21:26:59 2016
USER  AD>  7 of 9 MODELS
USER  AD>  ligand efficiency  -0.2261
USER  AD>  -5.20, 22.704, 24.176
USER  AD> macro_close_ats: 12
USER  AD> hepi:A:ASN293:H
USER  AD> hepi:A:PRO274:CB
USER  AD> hepi:A:ILE211:CD1
USER  AD> hepi:A:PHE256:CE2
USER  AD> hepi:A:ILE316:CG2
USER  AD> hepi:A:ASN293:H
USER  AD> hepi:A:ASN319:O
USER  AD> hepi:A:PRO274:CG
USER  AD> hepi:A:ASN319:C
USER  AD> hepi:A:LYS255:CE
USER  AD> hepi:A:ALA320:CA
USER  AD> hepi:A:LEU206:CD2

USER  AD> lig_close_ats: 12
USER  AD> h11b_ga10_b3_m7_model1: :LIG1:C,H,C,C,C,C,C,C,O,O,H,C
MODEL 7
REMARK VINA RESULT:      -5.2     22.704     24.176
REMARK  15 active torsions:
REMARK  status: ('A' for Active; 'I' for Inactive)
REMARK    1  A    between atoms: C_1  and  O_23 
REMARK    2  A    between atoms: C_2  and  O_9 
REMARK    3  A    between atoms: C_3  and  O_10 
REMARK    4  A    between atoms: C_4  and  O_11 
REMARK    5  A    between atoms: C_6  and  C_7 
REMARK    6  A    between atoms: C_7  and  O_8 
REMARK    7  A    between atoms: O_11  and  C_12 
REMARK    8  A    between atoms: C_12  and  C_13 
REMARK    9  A    between atoms: C_14  and  C_15 
REMARK   10  A    between atoms: C_15  and  C_16 
REMARK   11  A    between atoms: C_16  and  C_17 
REMARK   12  A    between atoms: C_17  and  C_18 
REMARK   13  A    between atoms: C_18  and  C_19 
REMARK   14  A    between atoms: C_19  and  C_20 
REMARK   15  A    between atoms: C_20  and  C_21 
ROOT
HETATM    1  C   LIG     1      36.920   1.329  23.916  1.00  0.00     0.180 C 
HETATM    2  C   LIG     1      35.654   2.045  23.425  1.00  0.00     0.183 C 
HETATM    3  C   LIG     1      35.947   3.517  23.166  1.00  0.00     0.204 C 
HETATM    4  C   LIG     1      36.495   4.146  24.460  1.00  0.00     0.291 C 
HETATM    5  O   LIG     1      37.725   3.492  24.803  1.00  0.00    -0.348 OA
HETATM    6  C   LIG     1      37.582   2.090  25.087  1.00  0.00     0.179 C 
ENDROOT
BRANCH   4   7
HETATM    7  O   LIG     1      35.583   4.051  25.559  1.00  0.00    -0.355 OA
BRANCH   7   8
HETATM    8  C   LIG     1      35.956   4.909  26.634  1.00  0.00     0.198 C 
BRANCH   8   9
HETATM    9  C   LIG     1      35.931   6.326  26.149  1.00  0.00    -0.005 C 
HETATM   10  C   LIG     1      36.393   7.348  26.883  1.00  0.00    -0.029 C 
BRANCH  10  11
HETATM   11  C   LIG     1      36.345   8.789  26.460  1.00  0.00     0.027 C 
BRANCH  11  12
HETATM   12  C   LIG     1      35.988   9.693  27.644  1.00  0.00     0.004 C 
BRANCH  12  13
HETATM   13  C   LIG     1      35.425  11.034  27.176  1.00  0.00     0.000 C 
BRANCH  13  14
HETATM   14  C   LIG     1      34.876  10.935  25.752  1.00  0.00     0.000 C 
BRANCH  14  15
HETATM   15  C   LIG     1      33.354  10.806  25.757  1.00  0.00     0.000 C 
BRANCH  15  16
HETATM   16  C   LIG     1      32.867   9.855  24.663  1.00  0.00    -0.000 C 
BRANCH  16  17
HETATM   17  C   LIG     1      31.826   8.879  25.207  1.00  0.00    -0.005 C 
HETATM   18  C   LIG     1      32.458   7.563  25.628  1.00  0.00     0.005 C 
ENDBRANCH  16  17
ENDBRANCH  15  16
ENDBRANCH  14  15
ENDBRANCH  13  14
ENDBRANCH  12  13
ENDBRANCH  11  12
ENDBRANCH  10  11
ENDBRANCH   8   9
ENDBRANCH   7   8
ENDBRANCH   4   7
BRANCH   3  19
HETATM   19  O   LIG     1      34.773   4.162  22.663  1.00  0.00    -0.388 OA
HETATM   20  H   LIG     1      34.640   3.782  21.769  1.00  0.00     0.210 HD
ENDBRANCH   3  19
BRANCH   2  21
HETATM   21  O   LIG     1      35.162   1.473  22.199  1.00  0.00    -0.390 OA
HETATM   22  H   LIG     1      34.646   0.678  22.434  1.00  0.00     0.210 HD
ENDBRANCH   2  21
BRANCH   6  23
HETATM   23  C   LIG     1      38.996   1.562  25.392  1.00  0.00     0.198 C 
BRANCH  23  24
HETATM   24  O   LIG     1      40.024   2.209  24.656  1.00  0.00    -0.398 OA
HETATM   25  H   LIG     1      40.389   1.573  24.020  1.00  0.00     0.209 HD
ENDBRANCH  23  24
ENDBRANCH   6  23
BRANCH   1  26
HETATM   26  O   LIG     1      36.570  -0.019  24.248  1.00  0.00    -0.390 OA
HETATM   27  H   LIG     1      35.682  -0.205  23.896  1.00  0.00     0.210 HD
ENDBRANCH   1  26
TORSDOF 15
ENDMDL
