REMARK AutoDockVina VirtualScreeningResult  Sun Mar  6 21:24:59 2016
USER  AD>  9 of 9 MODELS
USER  AD>  ligand efficiency  -0.3692
USER  AD>  -4.80,  9.356, 11.398
USER  AD> macro_close_ats: 6
USER  AD> hepi:A:GLN94:O
USER  AD> hepi:A:ASP13:OD1
USER  AD> hepi:A:ASP13:CG
USER  AD> hepi:A:ARG143:H
USER  AD> hepi:A:LYS7:H
USER  AD> hepi:A:LYS7:H

USER  AD> lig_close_ats: 5
USER  AD> h11b_gam_b1_m9_model1: :LIG1:C,H,O,H,O
MODEL 9
REMARK VINA RESULT:      -4.8      9.356     11.398
REMARK  6 active torsions:
REMARK  status: ('A' for Active; 'I' for Inactive)
REMARK    1  A    between atoms: C_1  and  O_13 
REMARK    2  A    between atoms: C_2  and  O_9 
REMARK    3  A    between atoms: C_3  and  O_10 
REMARK    4  A    between atoms: C_4  and  O_11 
REMARK    5  A    between atoms: C_6  and  C_7 
REMARK    6  A    between atoms: C_7  and  O_8 
ROOT
HETATM    1  C   LIG     1      43.256  -5.988  -4.115  1.00  0.00     0.180 C 
HETATM    2  C   LIG     1      42.697  -4.889  -3.205  1.00  0.00     0.183 C 
HETATM    3  C   LIG     1      42.098  -5.491  -1.935  1.00  0.00     0.204 C 
HETATM    4  C   LIG     1      41.048  -6.553  -2.322  1.00  0.00     0.290 C 
HETATM    5  O   LIG     1      41.711  -7.593  -3.064  1.00  0.00    -0.349 OA
HETATM    6  C   LIG     1      42.222  -7.114  -4.316  1.00  0.00     0.179 C 
ENDROOT
BRANCH   6   7
HETATM    7  C   LIG     1      42.849  -8.297  -5.065  1.00  0.00     0.198 C 
BRANCH   7   8
HETATM    8  O   LIG     1      44.268  -8.286  -4.910  1.00  0.00    -0.398 OA
HETATM    9  H   LIG     1      44.481  -7.503  -4.369  1.00  0.00     0.209 HD
ENDBRANCH   7   8
ENDBRANCH   6   7
BRANCH   1  10
HETATM   10  O   LIG     1      43.650  -5.378  -5.351  1.00  0.00    -0.390 OA
HETATM   11  H   LIG     1      44.528  -4.966  -5.197  1.00  0.00     0.210 HD
ENDBRANCH   1  10
BRANCH   2  12
HETATM   12  O   LIG     1      43.749  -3.977  -2.834  1.00  0.00    -0.390 OA
HETATM   13  H   LIG     1      43.517  -3.684  -1.930  1.00  0.00     0.210 HD
ENDBRANCH   2  12
BRANCH   4  14
HETATM   14  O   LIG     1      39.962  -6.060  -3.111  1.00  0.00    -0.363 OA
HETATM   15  C   LIG     1      38.730  -6.725  -2.880  1.00  0.00     0.204 C 
ENDBRANCH   4  14
BRANCH   3  16
HETATM   16  O   LIG     1      41.581  -4.452  -1.096  1.00  0.00    -0.388 OA
HETATM   17  H   LIG     1      40.715  -4.222  -1.493  1.00  0.00     0.210 HD
ENDBRANCH   3  16
TORSDOF 6
ENDMDL
