REMARK AutoDockVina VirtualScreeningResult  Sun Mar  6 21:25:43 2016
USER  AD>  5 of 9 MODELS
USER  AD>  ligand efficiency  -0.2348
USER  AD>  -5.40, 10.695, 14.699
USER  AD> macro_close_ats: 14
USER  AD> hepi:A:GLY12:H
USER  AD> hepi:A:GLY263:N
USER  AD> hepi:A:LYS192:H
USER  AD> hepi:A:GLY263:CA
USER  AD> hepi:A:THR262:OG1
USER  AD> hepi:A:MET11:H
USER  AD> hepi:A:LYS192:H
USER  AD> hepi:A:THR187:OG1
USER  AD> hepi:A:LEU264:CG
USER  AD> hepi:A:THR262:C
USER  AD> hepi:A:MET11:N
USER  AD> hepi:A:GLY263:H
USER  AD> hepi:A:THR262:CA
USER  AD> hepi:A:THR188:H

USER  AD> lig_close_ats: 10
USER  AD> h11b_aa10_b2_m5_model1: :LIG1:O,C,O,C,C,C,H,H,O,H
MODEL 5
REMARK VINA RESULT:      -5.4     10.695     14.699
REMARK  15 active torsions:
REMARK  status: ('A' for Active; 'I' for Inactive)
REMARK    1  A    between atoms: C_1  and  O_7 
REMARK    2  A    between atoms: C_2  and  O_10 
REMARK    3  A    between atoms: C_3  and  O_11 
REMARK    4  A    between atoms: C_4  and  O_12 
REMARK    5  A    between atoms: C_6  and  C_8 
REMARK    6  A    between atoms: C_8  and  O_9 
REMARK    7  A    between atoms: O_12  and  C_13 
REMARK    8  A    between atoms: C_13  and  C_14 
REMARK    9  A    between atoms: C_15  and  C_16 
REMARK   10  A    between atoms: C_16  and  C_17 
REMARK   11  A    between atoms: C_17  and  C_18 
REMARK   12  A    between atoms: C_18  and  C_19 
REMARK   13  A    between atoms: C_19  and  C_20 
REMARK   14  A    between atoms: C_20  and  C_21 
REMARK   15  A    between atoms: C_21  and  C_22 
ROOT
HETATM    1  C   LIG     1      42.197   6.876   0.738  1.00  0.00     0.180 C 
HETATM    2  C   LIG     1      43.079   5.674   0.373  1.00  0.00     0.183 C 
HETATM    3  C   LIG     1      43.986   5.319   1.555  1.00  0.00     0.204 C 
HETATM    4  C   LIG     1      44.822   6.562   1.927  1.00  0.00     0.291 C 
HETATM    5  O   LIG     1      43.924   7.627   2.306  1.00  0.00    -0.348 OA
HETATM    6  C   LIG     1      43.072   8.049   1.224  1.00  0.00     0.179 C 
ENDROOT
BRANCH   4   7
HETATM    7  O   LIG     1      45.670   7.011   0.861  1.00  0.00    -0.355 OA
BRANCH   7   8
HETATM    8  C   LIG     1      46.861   7.623   1.346  1.00  0.00     0.198 C 
BRANCH   8   9
HETATM    9  C   LIG     1      46.644   9.101   1.455  1.00  0.00    -0.005 C 
HETATM   10  C   LIG     1      47.595   9.928   1.924  1.00  0.00    -0.029 C 
BRANCH  10  11
HETATM   11  C   LIG     1      47.432  11.408   2.101  1.00  0.00     0.027 C 
BRANCH  11  12
HETATM   12  C   LIG     1      46.000  11.837   1.762  1.00  0.00     0.004 C 
BRANCH  12  13
HETATM   13  C   LIG     1      45.547  13.016   2.620  1.00  0.00     0.000 C 
BRANCH  13  14
HETATM   14  C   LIG     1      44.562  12.565   3.700  1.00  0.00     0.000 C 
BRANCH  14  15
HETATM   15  C   LIG     1      45.201  12.635   5.086  1.00  0.00     0.000 C 
BRANCH  15  16
HETATM   16  C   LIG     1      44.959  11.352   5.880  1.00  0.00    -0.000 C 
BRANCH  16  17
HETATM   17  C   LIG     1      45.845  10.218   5.367  1.00  0.00    -0.005 C 
HETATM   18  C   LIG     1      47.317  10.503   5.617  1.00  0.00     0.005 C 
ENDBRANCH  16  17
ENDBRANCH  15  16
ENDBRANCH  14  15
ENDBRANCH  13  14
ENDBRANCH  12  13
ENDBRANCH  11  12
ENDBRANCH  10  11
ENDBRANCH   8   9
ENDBRANCH   7   8
ENDBRANCH   4   7
BRANCH   3  19
HETATM   19  O   LIG     1      44.763   4.159   1.247  1.00  0.00    -0.388 OA
HETATM   20  H   LIG     1      45.649   4.502   1.008  1.00  0.00     0.210 HD
ENDBRANCH   3  19
BRANCH   2  21
HETATM   21  O   LIG     1      42.269   4.526   0.068  1.00  0.00    -0.390 OA
HETATM   22  H   LIG     1      41.423   4.672   0.542  1.00  0.00     0.210 HD
ENDBRANCH   2  21
BRANCH   6  23
HETATM   23  C   LIG     1      42.234   9.238   1.714  1.00  0.00     0.198 C 
BRANCH  23  24
HETATM   24  O   LIG     1      40.853   9.060   1.426  1.00  0.00    -0.398 OA
HETATM   25  H   LIG     1      40.539   8.298   1.943  1.00  0.00     0.209 HD
ENDBRANCH  23  24
ENDBRANCH   6  23
BRANCH   1  26
HETATM   26  O   LIG     1      41.280   6.422   1.755  1.00  0.00    -0.390 OA
HETATM   27  H   LIG     1      41.805   6.110   2.516  1.00  0.00     0.210 HD
ENDBRANCH   1  26
TORSDOF 15
ENDMDL
