REMARK AutoDockVina VirtualScreeningResult  Sun Mar  6 21:26:36 2016
USER  AD>  1 of 9 MODELS
USER  AD>  ligand efficiency  -0.2261
USER  AD>  -5.20,  0.000,  0.000
USER  AD> macro_close_ats: 16
USER  AD> hepi:A:GLY263:H
USER  AD> hepi:A:SER10:CA
USER  AD> hepi:A:LYS192:H
USER  AD> hepi:A:ASP261:C
USER  AD> hepi:A:THR262:N
USER  AD> hepi:A:GLY12:H
USER  AD> hepi:A:MET11:CE
USER  AD> hepi:A:HIS266:CD2
USER  AD> hepi:A:THR262:C
USER  AD> hepi:A:THR187:C
USER  AD> hepi:A:MET11:N
USER  AD> hepi:A:MET11:H
USER  AD> hepi:A:LEU264:CG
USER  AD> hepi:A:THR262:CA
USER  AD> hepi:A:GLY263:CA
USER  AD> hepi:A:THR188:H

USER  AD> lig_close_ats: 12
USER  AD> h11b_ab10_b3_m1_model1: :LIG1:C,C,O,H,C,H,C,H,C,O,O,C
MODEL 1
REMARK VINA RESULT:      -5.2      0.000      0.000
REMARK  15 active torsions:
REMARK  status: ('A' for Active; 'I' for Inactive)
REMARK    1  A    between atoms: C_1  and  O_7 
REMARK    2  A    between atoms: C_2  and  O_10 
REMARK    3  A    between atoms: C_3  and  O_11 
REMARK    4  A    between atoms: C_4  and  O_12 
REMARK    5  A    between atoms: C_6  and  C_8 
REMARK    6  A    between atoms: C_8  and  O_9 
REMARK    7  A    between atoms: O_12  and  C_13 
REMARK    8  A    between atoms: C_13  and  C_14 
REMARK    9  A    between atoms: C_15  and  C_16 
REMARK   10  A    between atoms: C_16  and  C_17 
REMARK   11  A    between atoms: C_17  and  C_18 
REMARK   12  A    between atoms: C_18  and  C_19 
REMARK   13  A    between atoms: C_19  and  C_20 
REMARK   14  A    between atoms: C_20  and  C_21 
REMARK   15  A    between atoms: C_21  and  C_22 
ROOT
HETATM    1  C   LIG     1      42.345   4.434   1.402  1.00  0.00     0.180 C 
HETATM    2  C   LIG     1      43.641   5.030   0.849  1.00  0.00     0.183 C 
HETATM    3  C   LIG     1      43.940   6.414   1.444  1.00  0.00     0.204 C 
HETATM    4  C   LIG     1      42.689   7.328   1.384  1.00  0.00     0.291 C 
HETATM    5  O   LIG     1      41.541   6.636   1.917  1.00  0.00    -0.348 OA
HETATM    6  C   LIG     1      41.220   5.451   1.182  1.00  0.00     0.179 C 
ENDROOT
BRANCH   4   7
HETATM    7  O   LIG     1      42.817   8.505   2.186  1.00  0.00    -0.355 OA
BRANCH   7   8
HETATM    8  C   LIG     1      42.995   9.727   1.483  1.00  0.00     0.198 C 
BRANCH   8   9
HETATM    9  C   LIG     1      43.787  10.720   2.282  1.00  0.00    -0.005 C 
HETATM   10  C   LIG     1      44.140  11.931   1.819  1.00  0.00    -0.029 C 
BRANCH  10  11
HETATM   11  C   LIG     1      44.974  12.923   2.578  1.00  0.00     0.027 C 
BRANCH  11  12
HETATM   12  C   LIG     1      46.463  12.720   2.281  1.00  0.00     0.004 C 
BRANCH  12  13
HETATM   13  C   LIG     1      47.260  12.417   3.553  1.00  0.00     0.000 C 
BRANCH  13  14
HETATM   14  C   LIG     1      46.469  12.806   4.803  1.00  0.00     0.000 C 
BRANCH  14  15
HETATM   15  C   LIG     1      46.488  11.694   5.853  1.00  0.00     0.000 C 
BRANCH  15  16
HETATM   16  C   LIG     1      45.624  10.508   5.419  1.00  0.00    -0.000 C 
BRANCH  16  17
HETATM   17  C   LIG     1      46.469   9.255   5.187  1.00  0.00    -0.005 C 
HETATM   18  C   LIG     1      45.905   8.404   4.059  1.00  0.00     0.005 C 
ENDBRANCH  16  17
ENDBRANCH  15  16
ENDBRANCH  14  15
ENDBRANCH  13  14
ENDBRANCH  12  13
ENDBRANCH  11  12
ENDBRANCH  10  11
ENDBRANCH   8   9
ENDBRANCH   7   8
ENDBRANCH   4   7
BRANCH   3  19
HETATM   19  O   LIG     1      45.058   6.950   0.714  1.00  0.00    -0.388 OA
HETATM   20  H   LIG     1      45.848   6.702   1.237  1.00  0.00     0.210 HD
ENDBRANCH   3  19
BRANCH   2  21
HETATM   21  O   LIG     1      44.754   4.164   1.134  1.00  0.00    -0.390 OA
HETATM   22  H   LIG     1      45.447   4.407   0.486  1.00  0.00     0.210 HD
ENDBRANCH   2  21
BRANCH   6  23
HETATM   23  C   LIG     1      39.862   4.928   1.651  1.00  0.00     0.198 C 
BRANCH  23  24
HETATM   24  O   LIG     1      39.899   4.714   3.057  1.00  0.00    -0.398 OA
HETATM   25  H   LIG     1      40.316   5.498   3.457  1.00  0.00     0.209 HD
ENDBRANCH  23  24
ENDBRANCH   6  23
BRANCH   1  26
HETATM   26  O   LIG     1      42.555   4.165   2.802  1.00  0.00    -0.390 OA
HETATM   27  H   LIG     1      41.726   4.395   3.268  1.00  0.00     0.210 HD
ENDBRANCH   1  26
TORSDOF 15
ENDMDL
