REMARK AutoDockVina VirtualScreeningResult  Sun Mar  6 21:25:26 2016
USER  AD>  5 of 9 MODELS
USER  AD>  ligand efficiency  -0.3917
USER  AD>  -4.70, 12.608, 13.693
USER  AD> macro_close_ats: 15
USER  AD> hepi:A:ASP261:OD1
USER  AD> hepi:A:GLY12:N
USER  AD> hepi:A:LYS192:H
USER  AD> hepi:A:HIS266:NE2
USER  AD> hepi:A:HIS266:CD2
USER  AD> hepi:A:ASP261:OD2
USER  AD> hepi:A:MET11:CA
USER  AD> hepi:A:MET11:N
USER  AD> hepi:A:MET11:CB
USER  AD> hepi:A:LYS192:H
USER  AD> hepi:A:LYS192:NZ
USER  AD> hepi:A:MET11:H
USER  AD> hepi:A:ASP261:CG
USER  AD> hepi:A:GLY12:H
USER  AD> hepi:A:SER10:C

USER  AD> lig_close_ats: 8
USER  AD> h11b_ab_b2_m5_model1: :LIG1:H,O,O,H,H,O,H,C
MODEL 5
REMARK VINA RESULT:      -4.7     12.608     13.693
REMARK  6 active torsions:
REMARK  status: ('A' for Active; 'I' for Inactive)
REMARK    1  A    between atoms: C_1  and  O_7 
REMARK    2  A    between atoms: C_2  and  O_10 
REMARK    3  A    between atoms: C_3  and  O_12 
REMARK    4  A    between atoms: C_4  and  O_11 
REMARK    5  A    between atoms: C_6  and  C_8 
REMARK    6  A    between atoms: C_8  and  O_9 
ROOT
HETATM    1  C   LIG     1      41.823   4.067   1.807  1.00  0.00     0.180 C 
HETATM    2  C   LIG     1      40.326   4.385   1.911  1.00  0.00     0.183 C 
HETATM    3  C   LIG     1      39.798   4.952   0.590  1.00  0.00     0.204 C 
HETATM    4  C   LIG     1      40.690   6.117   0.114  1.00  0.00     0.288 C 
HETATM    5  O   LIG     1      42.055   5.701   0.043  1.00  0.00    -0.349 OA
HETATM    6  C   LIG     1      42.569   5.326   1.331  1.00  0.00     0.179 C 
ENDROOT
BRANCH   6   7
HETATM    7  C   LIG     1      44.079   5.101   1.211  1.00  0.00     0.198 C 
BRANCH   7   8
HETATM    8  O   LIG     1      44.440   3.822   1.717  1.00  0.00    -0.398 OA
HETATM    9  H   LIG     1      45.400   3.830   1.881  1.00  0.00     0.209 HD
ENDBRANCH   7   8
ENDBRANCH   6   7
BRANCH   1  10
HETATM   10  O   LIG     1      41.961   2.981   0.871  1.00  0.00    -0.390 OA
HETATM   11  H   LIG     1      41.638   3.296   0.004  1.00  0.00     0.210 HD
ENDBRANCH   1  10
BRANCH   2  12
HETATM   12  O   LIG     1      39.580   3.198   2.223  1.00  0.00    -0.390 OA
HETATM   13  H   LIG     1      39.352   3.274   3.174  1.00  0.00     0.210 HD
ENDBRANCH   2  12
BRANCH   4  14
HETATM   14  O   LIG     1      40.285   6.549  -1.178  1.00  0.00    -0.369 OA
HETATM   15  H   LIG     1      39.311   6.611  -1.157  1.00  0.00     0.212 HD
ENDBRANCH   4  14
BRANCH   3  16
HETATM   16  O   LIG     1      38.440   5.385   0.745  1.00  0.00    -0.388 OA
HETATM   17  H   LIG     1      37.934   4.577   0.970  1.00  0.00     0.210 HD
ENDBRANCH   3  16
TORSDOF 6
ENDMDL
