REMARK AutoDockVina VirtualScreeningResult  Sun Mar  6 21:57:00 2016
USER  AD>  6 of 9 MODELS
USER  AD>  ligand efficiency  -0.2700
USER  AD>  -5.40,  5.566,  6.844
USER  AD> macro_close_ats: 12
USER  AD> hepi:A:MET11:H
USER  AD> hepi:A:GLY263:H
USER  AD> hepi:A:MET11:N
USER  AD> hepi:A:LYS192:H
USER  AD> hepi:A:THR187:C
USER  AD> hepi:A:LEU264:CG
USER  AD> hepi:A:THR188:H
USER  AD> hepi:A:MET11:CE
USER  AD> hepi:A:LYS192:NZ
USER  AD> hepi:A:THR188:N
USER  AD> hepi:A:LEU244:CD1
USER  AD> hepi:A:GLY12:H

USER  AD> lig_close_ats: 11
USER  AD> h11b_gb7_b1_m6_model1: :LIG1:C,C,C,O,C,O,H,H,C,C,O
MODEL 6
REMARK VINA RESULT:      -5.4      5.566      6.844
REMARK  12 active torsions:
REMARK  status: ('A' for Active; 'I' for Inactive)
REMARK    1  A    between atoms: C_1  and  O_20 
REMARK    2  A    between atoms: C_2  and  O_9 
REMARK    3  A    between atoms: C_3  and  O_10 
REMARK    4  A    between atoms: C_4  and  O_11 
REMARK    5  A    between atoms: C_6  and  C_7 
REMARK    6  A    between atoms: C_7  and  O_8 
REMARK    7  A    between atoms: O_11  and  C_12 
REMARK    8  A    between atoms: C_12  and  C_13 
REMARK    9  A    between atoms: C_14  and  C_15 
REMARK   10  A    between atoms: C_15  and  C_16 
REMARK   11  A    between atoms: C_16  and  C_17 
REMARK   12  A    between atoms: C_17  and  C_18 
ROOT
HETATM    1  C   LIG     1      42.877   6.569   0.871  1.00  0.00     0.180 C 
HETATM    2  C   LIG     1      42.148   7.778   1.446  1.00  0.00     0.183 C 
HETATM    3  C   LIG     1      43.015   9.037   1.430  1.00  0.00     0.204 C 
HETATM    4  C   LIG     1      44.384   8.752   2.094  1.00  0.00     0.291 C 
HETATM    5  O   LIG     1      44.996   7.599   1.488  1.00  0.00    -0.348 OA
HETATM    6  C   LIG     1      44.222   6.405   1.592  1.00  0.00     0.179 C 
ENDROOT
BRANCH   4   7
HETATM    7  O   LIG     1      45.330   9.810   1.928  1.00  0.00    -0.355 OA
BRANCH   7   8
HETATM    8  C   LIG     1      45.635  10.606   3.067  1.00  0.00     0.198 C 
BRANCH   8   9
HETATM    9  C   LIG     1      46.730  10.014   3.906  1.00  0.00    -0.005 C 
HETATM   10  C   LIG     1      47.120  10.497   5.096  1.00  0.00    -0.029 C 
BRANCH  10  11
HETATM   11  C   LIG     1      48.220   9.899   5.927  1.00  0.00     0.027 C 
BRANCH  11  12
HETATM   12  C   LIG     1      49.053  10.976   6.625  1.00  0.00     0.004 C 
BRANCH  12  13
HETATM   13  C   LIG     1      49.881  10.377   7.765  1.00  0.00    -0.000 C 
BRANCH  13  14
HETATM   14  C   LIG     1      51.321  10.890   7.746  1.00  0.00    -0.005 C 
HETATM   15  C   LIG     1      52.053  10.440   6.492  1.00  0.00     0.005 C 
ENDBRANCH  13  14
ENDBRANCH  12  13
ENDBRANCH  11  12
ENDBRANCH  10  11
ENDBRANCH   8   9
ENDBRANCH   7   8
ENDBRANCH   4   7
BRANCH   3  16
HETATM   16  O   LIG     1      42.268  10.060   2.111  1.00  0.00    -0.388 OA
HETATM   17  H   LIG     1      42.542  10.896   1.681  1.00  0.00     0.210 HD
ENDBRANCH   3  16
BRANCH   2  18
HETATM   18  O   LIG     1      40.940   8.027   0.704  1.00  0.00    -0.390 OA
HETATM   19  H   LIG     1      41.078   7.570  -0.152  1.00  0.00     0.210 HD
ENDBRANCH   2  18
BRANCH   6  20
HETATM   20  C   LIG     1      45.043   5.259   0.984  1.00  0.00     0.198 C 
BRANCH  20  21
HETATM   21  O   LIG     1      44.522   3.991   1.379  1.00  0.00    -0.398 OA
HETATM   22  H   LIG     1      44.269   4.078   2.318  1.00  0.00     0.209 HD
ENDBRANCH  20  21
ENDBRANCH   6  20
BRANCH   1  23
HETATM   23  O   LIG     1      42.017   5.433   1.032  1.00  0.00    -0.390 OA
HETATM   24  H   LIG     1      42.237   5.042   1.907  1.00  0.00     0.210 HD
ENDBRANCH   1  23
TORSDOF 12
ENDMDL
