REMARK AutoDockVina VirtualScreeningResult  Sun Mar  6 21:56:33 2016
USER  AD>  3 of 9 MODELS
USER  AD>  ligand efficiency  -0.3400
USER  AD>  -5.10, 12.712, 14.655
USER  AD> macro_close_ats: 12
USER  AD> hepi:A:GLY263:H
USER  AD> hepi:A:GLY263:N
USER  AD> hepi:A:ILE287:CD1
USER  AD> hepi:A:MET11:H
USER  AD> hepi:A:ASP261:OD1
USER  AD> hepi:A:GLY12:H
USER  AD> hepi:A:LYS192:H
USER  AD> hepi:A:THR262:C
USER  AD> hepi:A:SER10:H
USER  AD> hepi:A:ILE287:CA
USER  AD> hepi:A:ASP261:CG
USER  AD> hepi:A:SER10:OG

USER  AD> lig_close_ats: 9
USER  AD> h11b_ab3_b1_m3_model1: :LIG1:O,H,H,O,H,C,C,O,H
MODEL 3
REMARK VINA RESULT:      -5.1     12.712     14.655
REMARK  8 active torsions:
REMARK  status: ('A' for Active; 'I' for Inactive)
REMARK    1  A    between atoms: C_1  and  O_7 
REMARK    2  A    between atoms: C_2  and  O_10 
REMARK    3  A    between atoms: C_3  and  O_11 
REMARK    4  A    between atoms: C_4  and  O_12 
REMARK    5  A    between atoms: C_6  and  C_8 
REMARK    6  A    between atoms: C_8  and  O_9 
REMARK    7  A    between atoms: O_12  and  C_13 
REMARK    8  A    between atoms: C_13  and  C_14 
ROOT
HETATM    1  C   LIG     1      41.458   5.349   1.041  1.00  0.00     0.180 C 
HETATM    2  C   LIG     1      40.020   4.842   0.947  1.00  0.00     0.183 C 
HETATM    3  C   LIG     1      39.898   3.372   1.375  1.00  0.00     0.204 C 
HETATM    4  C   LIG     1      40.977   2.500   0.682  1.00  0.00     0.291 C 
HETATM    5  O   LIG     1      42.279   3.105   0.810  1.00  0.00    -0.348 OA
HETATM    6  C   LIG     1      42.357   4.410   0.228  1.00  0.00     0.179 C 
ENDROOT
BRANCH   4   7
HETATM    7  O   LIG     1      41.106   1.210   1.284  1.00  0.00    -0.355 OA
BRANCH   7   8
HETATM    8  C   LIG     1      40.537   0.123   0.565  1.00  0.00     0.197 C 
BRANCH   8   9
HETATM    9  C   LIG     1      39.701  -0.740   1.459  1.00  0.00    -0.011 C 
HETATM   10  C   LIG     1      39.349  -2.001   1.170  1.00  0.00     0.009 C 
ENDBRANCH   8   9
ENDBRANCH   7   8
ENDBRANCH   4   7
BRANCH   3  11
HETATM   11  O   LIG     1      38.560   2.951   1.059  1.00  0.00    -0.388 OA
HETATM   12  H   LIG     1      37.979   3.651   1.421  1.00  0.00     0.210 HD
ENDBRANCH   3  11
BRANCH   2  13
HETATM   13  O   LIG     1      39.154   5.628   1.784  1.00  0.00    -0.390 OA
HETATM   14  H   LIG     1      38.560   4.982   2.223  1.00  0.00     0.210 HD
ENDBRANCH   2  13
BRANCH   6  15
HETATM   15  C   LIG     1      43.819   4.864   0.234  1.00  0.00     0.198 C 
BRANCH  15  16
HETATM   16  O   LIG     1      44.547   4.183   1.248  1.00  0.00    -0.398 OA
HETATM   17  H   LIG     1      44.283   3.246   1.220  1.00  0.00     0.209 HD
ENDBRANCH  15  16
ENDBRANCH   6  15
BRANCH   1  18
HETATM   18  O   LIG     1      41.818   5.358   2.436  1.00  0.00    -0.390 OA
HETATM   19  H   LIG     1      42.441   6.101   2.570  1.00  0.00     0.210 HD
ENDBRANCH   1  18
TORSDOF 8
ENDMDL
