REMARK AutoDockVina VirtualScreeningResult  Sun Mar  6 21:58:49 2016
USER  AD>  4 of 9 MODELS
USER  AD>  ligand efficiency  -0.2524
USER  AD>  -5.30,  2.547,  4.537
USER  AD> macro_close_ats: 15
USER  AD> hepi:A:MET11:CE
USER  AD> hepi:A:GLY12:N
USER  AD> hepi:A:MET11:CA
USER  AD> hepi:A:LEU244:CA
USER  AD> hepi:A:MET11:H
USER  AD> hepi:A:THR188:H
USER  AD> hepi:A:GLY263:H
USER  AD> hepi:A:MET11:N
USER  AD> hepi:A:THR187:OG1
USER  AD> hepi:A:GLY12:H
USER  AD> hepi:A:THR262:CA
USER  AD> hepi:A:GLY263:CA
USER  AD> hepi:A:LYS192:H
USER  AD> hepi:A:MET11:CB
USER  AD> hepi:A:LEU264:CD1

USER  AD> lig_close_ats: 12
USER  AD> h11b_gb8y_b3_m4_model1: :LIG1:C,O,C,C,C,H,O,O,C,C,C,H
MODEL 4
REMARK VINA RESULT:      -5.3      2.547      4.537
REMARK  14 active torsions:
REMARK  status: ('A' for Active; 'I' for Inactive)
REMARK    1  A    between atoms: C_1  and  O_21 
REMARK    2  A    between atoms: C_2  and  O_9 
REMARK    3  A    between atoms: C_3  and  O_10 
REMARK    4  A    between atoms: C_4  and  O_11 
REMARK    5  A    between atoms: C_6  and  C_7 
REMARK    6  A    between atoms: C_7  and  O_8 
REMARK    7  A    between atoms: O_11  and  C_12 
REMARK    8  A    between atoms: C_12  and  C_13 
REMARK    9  A    between atoms: C_13  and  C_14 
REMARK   10  A    between atoms: C_14  and  C_15 
REMARK   11  A    between atoms: C_15  and  C_16 
REMARK   12  A    between atoms: C_16  and  C_17 
REMARK   13  A    between atoms: C_17  and  C_18 
REMARK   14  A    between atoms: C_18  and  C_19 
ROOT
HETATM    1  C   LIG L   1      41.846   6.618   0.948  1.00  0.00     0.180 C 
HETATM    2  C   LIG L   1      42.645   5.336   0.722  1.00  0.00     0.183 C 
HETATM    3  C   LIG L   1      43.823   5.228   1.696  1.00  0.00     0.204 C 
HETATM    4  C   LIG L   1      44.658   6.519   1.572  1.00  0.00     0.291 C 
HETATM    5  O   LIG L   1      43.853   7.645   1.922  1.00  0.00    -0.348 OA
HETATM    6  C   LIG L   1      42.766   7.849   1.017  1.00  0.00     0.179 C 
ENDROOT
BRANCH   4   7
HETATM    7  O   LIG L   1      45.790   6.469   2.442  1.00  0.00    -0.359 OA
BRANCH   7   8
HETATM    8  C   LIG L   1      45.926   7.695   3.157  1.00  0.00     0.171 C 
BRANCH   8   9
HETATM    9  C   LIG L   1      47.138   8.485   2.676  1.00  0.00     0.026 C 
BRANCH   9  10
HETATM   10  C   LIG L   1      47.200   9.819   3.422  1.00  0.00     0.002 C 
BRANCH  10  11
HETATM   11  C   LIG L   1      46.947   9.685   4.923  1.00  0.00     0.000 C 
BRANCH  11  12
HETATM   12  C   LIG L   1      48.187  10.132   5.702  1.00  0.00     0.000 C 
BRANCH  12  13
HETATM   13  C   LIG L   1      48.030  11.535   6.287  1.00  0.00     0.000 C 
BRANCH  13  14
HETATM   14  C   LIG L   1      49.354  12.028   6.875  1.00  0.00    -0.000 C 
BRANCH  14  15
HETATM   15  C   LIG L   1      49.755  11.225   8.111  1.00  0.00    -0.005 C 
HETATM   16  C   LIG L   1      51.226  10.842   8.069  1.00  0.00     0.005 C 
ENDBRANCH  14  15
ENDBRANCH  13  14
ENDBRANCH  12  13
ENDBRANCH  11  12
ENDBRANCH  10  11
ENDBRANCH   9  10
ENDBRANCH   8   9
ENDBRANCH   7   8
ENDBRANCH   4   7
BRANCH   3  17
HETATM   17  O   LIG L   1      44.547   4.029   1.371  1.00  0.00    -0.388 OA
HETATM   18  H   LIG L   1      45.078   3.767   2.140  1.00  0.00     0.210 HD
ENDBRANCH   3  17
BRANCH   2  19
HETATM   19  O   LIG L   1      41.751   4.221   0.863  1.00  0.00    -0.390 OA
HETATM   20  H   LIG L   1      42.298   3.413   0.765  1.00  0.00     0.210 HD
ENDBRANCH   2  19
BRANCH   6  21
HETATM   21  C   LIG L   1      41.958   9.076   1.476  1.00  0.00     0.198 C 
BRANCH  21  22
HETATM   22  O   LIG L   1      40.697   8.705   2.022  1.00  0.00    -0.398 OA
HETATM   23  H   LIG L   1      40.716   7.735   2.167  1.00  0.00     0.209 HD
ENDBRANCH  21  22
ENDBRANCH   6  21
BRANCH   1  24
HETATM   24  O   LIG L   1      40.890   6.774  -0.110  1.00  0.00    -0.390 OA
HETATM   25  H   LIG L   1      41.388   7.182  -0.851  1.00  0.00     0.210 HD
ENDBRANCH   1  24
TORSDOF 14
ENDMDL
