REMARK AutoDockVina VirtualScreeningResult  Sun Mar  6 21:58:26 2016
USER  AD>  9 of 9 MODELS
USER  AD>  ligand efficiency  -0.2476
USER  AD>  -5.20, 17.479, 20.105
USER  AD> macro_close_ats: 18
USER  AD> hepi:A:LEU286:CD2
USER  AD> hepi:A:ARG143:H
USER  AD> hepi:A:LYS7:NZ
USER  AD> hepi:A:LYS7:H
USER  AD> hepi:A:ALA140:CB
USER  AD> hepi:A:ARG120:CB
USER  AD> hepi:A:ARG143:H
USER  AD> hepi:A:ARG120:H
USER  AD> hepi:A:ALA140:C
USER  AD> hepi:A:ARG120:CD
USER  AD> hepi:A:ALA140:CA
USER  AD> hepi:A:ARG143:NH1
USER  AD> hepi:A:ALA93:O
USER  AD> hepi:A:LYS7:H
USER  AD> hepi:A:LYS7:H
USER  AD> hepi:A:LYS136:CB
USER  AD> hepi:A:ALA140:O
USER  AD> hepi:A:THR144:OG1

USER  AD> lig_close_ats: 13
USER  AD> h11b_ab8_b3_m9_model1: :LIG1:C,C,C,H,O,H,C,C,H,C,O,O,H
MODEL 9
REMARK VINA RESULT:      -5.2     17.479     20.105
REMARK  13 active torsions:
REMARK  status: ('A' for Active; 'I' for Inactive)
REMARK    1  A    between atoms: C_1  and  O_7 
REMARK    2  A    between atoms: C_2  and  O_10 
REMARK    3  A    between atoms: C_3  and  O_11 
REMARK    4  A    between atoms: C_4  and  O_12 
REMARK    5  A    between atoms: C_6  and  C_8 
REMARK    6  A    between atoms: C_8  and  O_9 
REMARK    7  A    between atoms: O_12  and  C_13 
REMARK    8  A    between atoms: C_13  and  C_14 
REMARK    9  A    between atoms: C_15  and  C_16 
REMARK   10  A    between atoms: C_16  and  C_17 
REMARK   11  A    between atoms: C_17  and  C_18 
REMARK   12  A    between atoms: C_18  and  C_19 
REMARK   13  A    between atoms: C_19  and  C_20 
ROOT
HETATM    1  C   LIG L   1      43.591  -7.722  -3.457  1.00  0.00     0.180 C 
HETATM    2  C   LIG L   1      42.812  -8.292  -4.648  1.00  0.00     0.183 C 
HETATM    3  C   LIG L   1      41.626  -7.397  -5.048  1.00  0.00     0.204 C 
HETATM    4  C   LIG L   1      40.804  -7.025  -3.795  1.00  0.00     0.291 C 
HETATM    5  O   LIG L   1      41.645  -6.490  -2.766  1.00  0.00    -0.348 OA
HETATM    6  C   LIG L   1      42.607  -7.446  -2.311  1.00  0.00     0.179 C 
ENDROOT
BRANCH   4   7
HETATM    7  O   LIG L   1      39.828  -6.026  -4.092  1.00  0.00    -0.355 OA
BRANCH   7   8
HETATM    8  C   LIG L   1      39.247  -5.487  -2.910  1.00  0.00     0.198 C 
BRANCH   8   9
HETATM    9  C   LIG L   1      37.864  -5.007  -3.230  1.00  0.00    -0.005 C 
HETATM   10  C   LIG L   1      36.786  -5.398  -2.534  1.00  0.00    -0.029 C 
BRANCH  10  11
HETATM   11  C   LIG L   1      35.381  -4.942  -2.808  1.00  0.00     0.027 C 
BRANCH  11  12
HETATM   12  C   LIG L   1      34.726  -5.820  -3.880  1.00  0.00     0.004 C 
BRANCH  12  13
HETATM   13  C   LIG L   1      34.463  -7.239  -3.376  1.00  0.00     0.000 C 
BRANCH  13  14
HETATM   14  C   LIG L   1      35.254  -8.261  -4.194  1.00  0.00    -0.000 C 
BRANCH  14  15
HETATM   15  C   LIG L   1      35.917  -7.614  -5.409  1.00  0.00    -0.005 C 
HETATM   16  C   LIG L   1      37.248  -8.274  -5.729  1.00  0.00     0.005 C 
ENDBRANCH  14  15
ENDBRANCH  13  14
ENDBRANCH  12  13
ENDBRANCH  11  12
ENDBRANCH  10  11
ENDBRANCH   8   9
ENDBRANCH   7   8
ENDBRANCH   4   7
BRANCH   3  17
HETATM   17  O   LIG L   1      40.825  -8.120  -6.000  1.00  0.00    -0.388 OA
HETATM   18  H   LIG L   1      39.929  -8.157  -5.607  1.00  0.00     0.210 HD
ENDBRANCH   3  17
BRANCH   2  19
HETATM   19  O   LIG L   1      43.673  -8.451  -5.786  1.00  0.00    -0.390 OA
HETATM   20  H   LIG L   1      43.208  -8.015  -6.531  1.00  0.00     0.210 HD
ENDBRANCH   2  19
BRANCH   6  21
HETATM   21  C   LIG L   1      43.284  -6.889  -1.058  1.00  0.00     0.198 C 
BRANCH  21  22
HETATM   22  O   LIG L   1      43.442  -7.907  -0.078  1.00  0.00    -0.398 OA
HETATM   23  H   LIG L   1      42.552  -8.189   0.199  1.00  0.00     0.209 HD
ENDBRANCH  21  22
ENDBRANCH   6  21
BRANCH   1  24
HETATM   24  O   LIG L   1      44.240  -6.518  -3.906  1.00  0.00    -0.390 OA
HETATM   25  H   LIG L   1      45.149  -6.523  -3.547  1.00  0.00     0.210 HD
ENDBRANCH   1  24
TORSDOF 13
ENDMDL
