REMARK AutoDockVina VirtualScreeningResult  Sun Mar  6 21:58:03 2016
USER  AD>  6 of 9 MODELS
USER  AD>  ligand efficiency  -0.2391
USER  AD>  -5.50, 12.481, 16.155
USER  AD> macro_close_ats: 12
USER  AD> hepi:A:ALA93:O
USER  AD> hepi:A:ARG120:CA
USER  AD> hepi:A:LYS7:H
USER  AD> hepi:A:MET114:CE
USER  AD> hepi:A:LYS7:NZ
USER  AD> hepi:A:GLN94:C
USER  AD> hepi:A:ARG120:CD
USER  AD> hepi:A:THR144:H
USER  AD> hepi:A:THR144:OG1
USER  AD> hepi:A:LYS136:CD
USER  AD> hepi:A:GLN94:O
USER  AD> hepi:A:LYS7:H

USER  AD> lig_close_ats: 9
USER  AD> h11b_gb10_b2_m6_model1: :LIG1:H,C,O,C,C,H,C,H,C
MODEL 6
REMARK VINA RESULT:      -5.5     12.481     16.155
REMARK  15 active torsions:
REMARK  status: ('A' for Active; 'I' for Inactive)
REMARK    1  A    between atoms: C_1  and  O_23 
REMARK    2  A    between atoms: C_2  and  O_9 
REMARK    3  A    between atoms: C_3  and  O_10 
REMARK    4  A    between atoms: C_4  and  O_11 
REMARK    5  A    between atoms: C_6  and  C_7 
REMARK    6  A    between atoms: C_7  and  O_8 
REMARK    7  A    between atoms: O_11  and  C_12 
REMARK    8  A    between atoms: C_12  and  C_13 
REMARK    9  A    between atoms: C_14  and  C_15 
REMARK   10  A    between atoms: C_15  and  C_16 
REMARK   11  A    between atoms: C_16  and  C_17 
REMARK   12  A    between atoms: C_17  and  C_18 
REMARK   13  A    between atoms: C_18  and  C_19 
REMARK   14  A    between atoms: C_19  and  C_20 
REMARK   15  A    between atoms: C_20  and  C_21 
ROOT
HETATM    1  C   LIG L   1      43.520  -6.758  -3.706  1.00  0.00     0.180 C 
HETATM    2  C   LIG L   1      42.980  -5.446  -4.292  1.00  0.00     0.183 C 
HETATM    3  C   LIG L   1      42.437  -4.498  -3.213  1.00  0.00     0.204 C 
HETATM    4  C   LIG L   1      41.416  -5.292  -2.378  1.00  0.00     0.291 C 
HETATM    5  O   LIG L   1      42.059  -6.407  -1.766  1.00  0.00    -0.348 OA
HETATM    6  C   LIG L   1      42.528  -7.375  -2.706  1.00  0.00     0.179 C 
ENDROOT
BRANCH   4   7
HETATM    7  O   LIG L   1      40.869  -4.483  -1.341  1.00  0.00    -0.355 OA
BRANCH   7   8
HETATM    8  C   LIG L   1      39.546  -4.071  -1.660  1.00  0.00     0.198 C 
BRANCH   8   9
HETATM    9  C   LIG L   1      38.723  -5.265  -2.022  1.00  0.00    -0.005 C 
HETATM   10  C   LIG L   1      37.383  -5.225  -1.999  1.00  0.00    -0.029 C 
BRANCH  10  11
HETATM   11  C   LIG L   1      36.492  -6.371  -2.374  1.00  0.00     0.027 C 
BRANCH  11  12
HETATM   12  C   LIG L   1      37.308  -7.660  -2.508  1.00  0.00     0.004 C 
BRANCH  12  13
HETATM   13  C   LIG L   1      36.780  -8.553  -3.629  1.00  0.00     0.000 C 
BRANCH  13  14
HETATM   14  C   LIG L   1      35.659  -7.849  -4.394  1.00  0.00     0.000 C 
BRANCH  14  15
HETATM   15  C   LIG L   1      35.910  -7.883  -5.899  1.00  0.00     0.000 C 
BRANCH  15  16
HETATM   16  C   LIG L   1      36.998  -6.887  -6.300  1.00  0.00    -0.000 C 
BRANCH  16  17
HETATM   17  C   LIG L   1      37.889  -7.458  -7.402  1.00  0.00    -0.005 C 
HETATM   18  C   LIG L   1      38.733  -8.613  -6.891  1.00  0.00     0.005 C 
ENDBRANCH  16  17
ENDBRANCH  15  16
ENDBRANCH  14  15
ENDBRANCH  13  14
ENDBRANCH  12  13
ENDBRANCH  11  12
ENDBRANCH  10  11
ENDBRANCH   8   9
ENDBRANCH   7   8
ENDBRANCH   4   7
BRANCH   3  19
HETATM   19  O   LIG L   1      41.851  -3.337  -3.822  1.00  0.00    -0.388 OA
HETATM   20  H   LIG L   1      41.483  -2.763  -3.130  1.00  0.00     0.210 HD
ENDBRANCH   3  19
BRANCH   2  21
HETATM   21  O   LIG L   1      44.001  -4.833  -5.093  1.00  0.00    -0.390 OA
HETATM   22  H   LIG L   1      44.862  -5.208  -4.831  1.00  0.00     0.210 HD
ENDBRANCH   2  21
BRANCH   6  23
HETATM   23  C   LIG L   1      43.155  -8.523  -1.895  1.00  0.00     0.198 C 
BRANCH  23  24
HETATM   24  O   LIG L   1      44.573  -8.492  -1.827  1.00  0.00    -0.398 OA
HETATM   25  H   LIG L   1      44.842  -8.517  -0.890  1.00  0.00     0.209 HD
ENDBRANCH  23  24
ENDBRANCH   6  23
BRANCH   1  26
HETATM   26  O   LIG L   1      43.741  -7.666  -4.795  1.00  0.00    -0.390 OA
HETATM   27  H   LIG L   1      44.674  -7.538  -5.065  1.00  0.00     0.210 HD
ENDBRANCH   1  26
TORSDOF 15
ENDMDL
