REMARK AutoDockVina VirtualScreeningResult  Sun Mar  6 21:58:00 2016
USER  AD>  1 of 9 MODELS
USER  AD>  ligand efficiency  -0.2478
USER  AD>  -5.70,  0.000,  0.000
USER  AD> macro_close_ats: 13
USER  AD> hepi:A:GLY263:H
USER  AD> hepi:A:LYS192:NZ
USER  AD> hepi:A:LYS192:H
USER  AD> hepi:A:LEU264:CD1
USER  AD> hepi:A:GLY218:CA
USER  AD> hepi:A:LYS192:H
USER  AD> hepi:A:GLY218:N
USER  AD> hepi:A:LEU264:CG
USER  AD> hepi:A:LEU244:CD1
USER  AD> hepi:A:THR262:CA
USER  AD> hepi:A:VAL247:CG1
USER  AD> hepi:A:THR262:OG1
USER  AD> hepi:A:THR262:H

USER  AD> lig_close_ats: 10
USER  AD> h11b_ga10_b2_m1_model1: :LIG1:O,C,C,C,H,C,C,C,C,O
MODEL 1
REMARK VINA RESULT:      -5.7      0.000      0.000
REMARK  15 active torsions:
REMARK  status: ('A' for Active; 'I' for Inactive)
REMARK    1  A    between atoms: C_1  and  O_23 
REMARK    2  A    between atoms: C_2  and  O_9 
REMARK    3  A    between atoms: C_3  and  O_10 
REMARK    4  A    between atoms: C_4  and  O_11 
REMARK    5  A    between atoms: C_6  and  C_7 
REMARK    6  A    between atoms: C_7  and  O_8 
REMARK    7  A    between atoms: O_11  and  C_12 
REMARK    8  A    between atoms: C_12  and  C_13 
REMARK    9  A    between atoms: C_14  and  C_15 
REMARK   10  A    between atoms: C_15  and  C_16 
REMARK   11  A    between atoms: C_16  and  C_17 
REMARK   12  A    between atoms: C_17  and  C_18 
REMARK   13  A    between atoms: C_18  and  C_19 
REMARK   14  A    between atoms: C_19  and  C_20 
REMARK   15  A    between atoms: C_20  and  C_21 
ROOT
HETATM    1  C   LIG     1      42.559   6.810   1.100  1.00  0.00     0.180 C 
HETATM    2  C   LIG     1      42.185   8.117   1.814  1.00  0.00     0.183 C 
HETATM    3  C   LIG     1      43.230   9.189   1.533  1.00  0.00     0.204 C 
HETATM    4  C   LIG     1      44.606   8.665   1.981  1.00  0.00     0.291 C 
HETATM    5  O   LIG     1      44.930   7.502   1.206  1.00  0.00    -0.348 OA
HETATM    6  C   LIG     1      44.021   6.405   1.392  1.00  0.00     0.179 C 
ENDROOT
BRANCH   4   7
HETATM    7  O   LIG     1      44.655   8.337   3.374  1.00  0.00    -0.355 OA
BRANCH   7   8
HETATM    8  C   LIG     1      45.869   8.771   3.979  1.00  0.00     0.198 C 
BRANCH   8   9
HETATM    9  C   LIG     1      45.710  10.197   4.409  1.00  0.00    -0.005 C 
HETATM   10  C   LIG     1      45.210  10.538   5.606  1.00  0.00    -0.029 C 
BRANCH  10  11
HETATM   11  C   LIG     1      44.987  11.951   6.063  1.00  0.00     0.027 C 
BRANCH  11  12
HETATM   12  C   LIG     1      46.279  12.767   5.966  1.00  0.00     0.004 C 
BRANCH  12  13
HETATM   13  C   LIG     1      46.785  13.186   7.345  1.00  0.00     0.000 C 
BRANCH  13  14
HETATM   14  C   LIG     1      48.196  12.654   7.600  1.00  0.00     0.000 C 
BRANCH  14  15
HETATM   15  C   LIG     1      48.737  11.921   6.374  1.00  0.00     0.000 C 
BRANCH  15  16
HETATM   16  C   LIG     1      49.103  10.472   6.703  1.00  0.00    -0.000 C 
BRANCH  16  17
HETATM   17  C   LIG     1      50.064  10.405   7.888  1.00  0.00    -0.005 C 
HETATM   18  C   LIG     1      51.471  10.821   7.493  1.00  0.00     0.005 C 
ENDBRANCH  16  17
ENDBRANCH  15  16
ENDBRANCH  14  15
ENDBRANCH  13  14
ENDBRANCH  12  13
ENDBRANCH  11  12
ENDBRANCH  10  11
ENDBRANCH   8   9
ENDBRANCH   7   8
ENDBRANCH   4   7
BRANCH   3  19
HETATM   19  O   LIG     1      42.845  10.415   2.163  1.00  0.00    -0.388 OA
HETATM   20  H   LIG     1      43.680  10.917   2.269  1.00  0.00     0.210 HD
ENDBRANCH   3  19
BRANCH   2  21
HETATM   21  O   LIG     1      40.911   8.619   1.370  1.00  0.00    -0.390 OA
HETATM   22  H   LIG     1      40.467   7.898   0.882  1.00  0.00     0.210 HD
ENDBRANCH   2  21
BRANCH   6  23
HETATM   23  C   LIG     1      44.504   5.278   0.460  1.00  0.00     0.198 C 
BRANCH  23  24
HETATM   24  O   LIG     1      43.455   4.579  -0.192  1.00  0.00    -0.398 OA
HETATM   25  H   LIG     1      43.416   4.880  -1.114  1.00  0.00     0.209 HD
ENDBRANCH  23  24
ENDBRANCH   6  23
BRANCH   1  26
HETATM   26  O   LIG     1      41.610   5.807   1.480  1.00  0.00    -0.390 OA
HETATM   27  H   LIG     1      41.033   6.172   2.174  1.00  0.00     0.210 HD
ENDBRANCH   1  26
TORSDOF 15
ENDMDL
