REMARK AutoDockVina VirtualScreeningResult  Sun Mar  6 21:58:06 2016
USER  AD>  9 of 9 MODELS
USER  AD>  ligand efficiency  -0.2000
USER  AD>  -8.00,  5.245, 11.844
USER  AD> macro_close_ats: 13
USER  AD> hepi:A:TRP217:H
USER  AD> hepi:A:MET11:CE
USER  AD> hepi:A:TRP217:C
USER  AD> hepi:A:ASP261:OD1
USER  AD> hepi:A:THR262:CA
USER  AD> hepi:A:MET242:O
USER  AD> hepi:A:GLY263:H
USER  AD> hepi:A:LEU264:CD1
USER  AD> hepi:A:ILE287:CB
USER  AD> hepi:A:THR262:C
USER  AD> hepi:A:ASP261:CG
USER  AD> hepi:A:ILE287:O
USER  AD> hepi:A:TRP217:O

USER  AD> lig_close_ats: 11
USER  AD> h11b_adph_b3_m9_model1: :   1:H,C,N,O,H,C,C,H,C,H,H
MODEL 9
REMARK VINA RESULT:      -8.0      5.245     11.844
REMARK  19 active torsions:
REMARK  status: ('A' for Active; 'I' for Inactive)
REMARK    1  A    between atoms: C_1  and  C_3 
REMARK    2  A    between atoms: C_1  and  O_13 
REMARK    3  A    between atoms: O_2  and  C_3 
REMARK    4  A    between atoms: C_3  and  C_11 
REMARK    5  A    between atoms: O_4  and  C_5 
REMARK    6  A    between atoms: O_6  and  C_7 
REMARK    7  A    between atoms: O_8  and  C_9 
REMARK    8  A    between atoms: C_12  and  O_40 
REMARK    9  A    between atoms: C_22  and  N_23 
REMARK   10  A    between atoms: C_24  and  O_25 
REMARK   11  A    between atoms: C_26  and  O_27 
REMARK   12  A    between atoms: C_28  and  C_31 
REMARK   13  A    between atoms: C_31  and  O_32 
REMARK   14  A    between atoms: O_32  and  P_33 
REMARK   15  A    between atoms: P_33  and  O_35 
REMARK   16  A    between atoms: P_33  and  O_36 
REMARK   17  A    between atoms: O_36  and  P_37 
REMARK   18  A    between atoms: P_37  and  O_40 
REMARK   19  A    between atoms: P_37  and  O_39 
ROOT
HETATM    1  P   LIG L   1      44.759  10.579   2.658  0.00  0.00     0.401 P 
HETATM    2  O   LIG L   1      44.212  11.213   1.430  0.00  0.00    -0.631 OA
ENDROOT
BRANCH   1   3
HETATM    3  O   LIG L   1      44.237   9.011   2.638  0.00  0.00    -0.294 OA
BRANCH   3   4
HETATM    4  C   LIG L   1      45.162   7.979   2.409  0.00  0.00     0.215 C 
BRANCH   4   5
HETATM    5  C   LIG L   1      44.659   7.102   1.269  0.00  0.00     0.180 C 
HETATM    6  C   LIG L   1      43.938   7.855   0.154  0.00  0.00     0.182 C 
HETATM    7  C   LIG L   1      42.599   7.149   0.047  0.00  0.00     0.198 C 
HETATM    8  C   LIG L   1      42.877   5.820   0.724  0.00  0.00     0.262 C 
HETATM    9  N   LIG L   1      41.686   5.116   1.216  0.00  0.00    -0.294 N 
HETATM   10  O   LIG L   1      43.761   6.150   1.770  0.00  0.00    -0.353 OA
HETATM   11  C   LIG L   1      40.936   5.554   2.135  0.00  0.00     0.214 A 
HETATM   12  C   LIG L   1      41.295   3.994   0.785  0.00  0.00     0.167 A 
HETATM   13  N   LIG L   1      40.007   4.723   2.352  0.00  0.00    -0.236 NA
HETATM   14  C   LIG L   1      40.207   3.766   1.541  0.00  0.00     0.149 A 
HETATM   15  C   LIG L   1      39.513   2.630   1.363  0.00  0.00     0.155 A 
HETATM   16  N   LIG L   1      39.926   1.818   0.479  0.00  0.00    -0.222 NA
HETATM   17  C   LIG L   1      40.963   2.121  -0.187  0.00  0.00     0.237 A 
HETATM   18  N   LIG L   1      41.675   3.164  -0.086  0.00  0.00    -0.222 NA
BRANCH   6  19
HETATM   19  O   LIG L   1      44.625   7.701  -1.065  0.00  0.00    -0.390 OA
HETATM   20  H   LIG L   1      44.696   6.774  -1.301  0.00  0.00     0.210 HD
ENDBRANCH   6  19
BRANCH   7  21
HETATM   21  O   LIG L   1      42.206   6.983  -1.295  0.00  0.00    -0.388 OA
HETATM   22  H   LIG L   1      41.502   7.605  -1.496  0.00  0.00     0.210 HD
ENDBRANCH   7  21
BRANCH  15  23
HETATM   23  N   LIG L   1      38.486   2.421   2.076  0.00  0.00    -0.382 N 
HETATM   24  H   LIG L   1      37.846   3.214   2.320  0.00  0.00     0.157 HD
HETATM   25  H   LIG L   1      38.274   1.454   2.426  0.00  0.00     0.157 HD
ENDBRANCH  15  23
ENDBRANCH   4   5
ENDBRANCH   3   4
ENDBRANCH   1   3
BRANCH   1  26
HETATM   26  O   LIG L   1      46.288  10.121   2.360  0.00  0.00    -0.307 OA
HETATM   27  H   LIG L   1      46.883  10.790   2.647  0.00  0.00     0.222 HD
ENDBRANCH   1  26
BRANCH   1  28
HETATM   28  O   LIG L   1      44.412  11.332   4.014  0.00  0.00    -0.195 OA
BRANCH  28  29
HETATM   29  P   LIG L   1      45.408  11.143   5.245  0.00  0.00     0.404 P 
HETATM   30  O   LIG L   1      44.780  11.462   6.555  0.00  0.00    -0.631 OA
BRANCH  29  31
HETATM   31  O   LIG L   1      46.961  11.644   5.182  0.00  0.00    -0.263 OA
BRANCH  31  32
HETATM   32  C   LIG L   1      47.983  10.931   5.850  0.00  0.00     0.303 C 
HETATM   33  C   LIG L   1      49.086  10.597   4.867  0.00  0.00     0.205 C 
HETATM   34  C   LIG L   1      50.229   9.939   5.617  0.00  0.00     0.183 C 
HETATM   35  C   LIG L   1      50.670  10.919   6.684  0.00  0.00     0.181 C 
HETATM   36  C   LIG L   1      49.497  11.253   7.602  0.00  0.00     0.186 C 
HETATM   37  O   LIG L   1      48.463  11.820   6.841  0.00  0.00    -0.347 OA
BRANCH  33  38
HETATM   38  O   LIG L   1      48.608   9.694   3.901  0.00  0.00    -0.388 OA
HETATM   39  H   LIG L   1      49.303   9.058   3.712  0.00  0.00     0.210 HD
ENDBRANCH  33  38
BRANCH  34  40
HETATM   40  O   LIG L   1      51.290   9.654   4.739  0.00  0.00    -0.390 OA
HETATM   41  H   LIG L   1      51.940  10.361   4.776  0.00  0.00     0.210 HD
ENDBRANCH  34  40
BRANCH  35  42
HETATM   42  O   LIG L   1      51.742  10.367   7.404  0.00  0.00    -0.390 OA
HETATM   43  H   LIG L   1      52.244  11.093   7.785  0.00  0.00     0.210 HD
ENDBRANCH  35  42
BRANCH  36  44
HETATM   44  C   LIG L   1      49.899  12.186   8.745  0.00  0.00     0.173 C 
BRANCH  44  45
HETATM   45  C   LIG L   1      48.790  13.094   9.244  0.00  0.00     0.198 C 
BRANCH  45  46
HETATM   46  O   LIG L   1      49.227  13.847  10.355  0.00  0.00    -0.398 OA
HETATM   47  H   LIG L   1      49.622  14.666  10.047  0.00  0.00     0.209 HD
ENDBRANCH  45  46
ENDBRANCH  44  45
BRANCH  44  48
HETATM   48  O   LIG L   1      50.986  12.994   8.358  0.00  0.00    -0.391 OA
HETATM   49  H   LIG L   1      51.380  13.378   9.146  0.00  0.00     0.210 HD
ENDBRANCH  44  48
ENDBRANCH  36  44
ENDBRANCH  31  32
ENDBRANCH  29  31
BRANCH  29  50
HETATM   50  O   LIG L   1      45.860   9.574   5.384  0.00  0.00    -0.307 OA
HETATM   51  H   LIG L   1      46.223   9.283   4.565  0.00  0.00     0.222 HD
ENDBRANCH  29  50
ENDBRANCH  28  29
ENDBRANCH   1  28
TORSDOF 19
ENDMDL
