REMARK AutoDockVina VirtualScreeningResult  Sun Mar  6 21:56:51 2016
USER  AD>  2 of 9 MODELS
USER  AD>  ligand efficiency  -0.3923
USER  AD>  -5.10,  3.507,  4.719
USER  AD> macro_close_ats: 13
USER  AD> hepi:A:LYS192:H
USER  AD> hepi:A:THR262:H
USER  AD> hepi:A:THR262:CA
USER  AD> hepi:A:THR188:CB
USER  AD> hepi:A:MET11:H
USER  AD> hepi:A:THR187:C
USER  AD> hepi:A:THR188:H
USER  AD> hepi:A:THR188:N
USER  AD> hepi:A:LYS192:NZ
USER  AD> hepi:A:THR188:CA
USER  AD> hepi:A:GLY263:H
USER  AD> hepi:A:SER10:H
USER  AD> hepi:A:GLY12:H

USER  AD> lig_close_ats: 9
USER  AD> h11b_gam_b1_m2_model1: :LIG1:C,O,C,C,O,H,H,O,O
MODEL 2
REMARK VINA RESULT:      -5.1      3.507      4.719
REMARK  6 active torsions:
REMARK  status: ('A' for Active; 'I' for Inactive)
REMARK    1  A    between atoms: C_1  and  O_13 
REMARK    2  A    between atoms: C_2  and  O_9 
REMARK    3  A    between atoms: C_3  and  O_10 
REMARK    4  A    between atoms: C_4  and  O_11 
REMARK    5  A    between atoms: C_6  and  C_7 
REMARK    6  A    between atoms: C_7  and  O_8 
ROOT
HETATM    1  C   LIG     1      42.746   6.568   1.093  1.00  0.00     0.180 C 
HETATM    2  C   LIG     1      42.186   7.867   1.685  1.00  0.00     0.183 C 
HETATM    3  C   LIG     1      43.148   9.029   1.444  1.00  0.00     0.204 C 
HETATM    4  C   LIG     1      44.540   8.660   1.997  1.00  0.00     0.290 C 
HETATM    5  O   LIG     1      45.016   7.504   1.282  1.00  0.00    -0.349 OA
HETATM    6  C   LIG     1      44.206   6.348   1.535  1.00  0.00     0.179 C 
ENDROOT
BRANCH   6   7
HETATM    7  C   LIG     1      44.822   5.156   0.792  1.00  0.00     0.198 C 
BRANCH   7   8
HETATM    8  O   LIG     1      44.463   3.932   1.432  1.00  0.00    -0.398 OA
HETATM    9  H   LIG     1      43.487   3.901   1.441  1.00  0.00     0.209 HD
ENDBRANCH   7   8
ENDBRANCH   6   7
BRANCH   1  10
HETATM   10  O   LIG     1      41.883   5.495   1.493  1.00  0.00    -0.390 OA
HETATM   11  H   LIG     1      41.144   5.898   1.997  1.00  0.00     0.210 HD
ENDBRANCH   1  10
BRANCH   2  12
HETATM   12  O   LIG     1      40.920   8.178   1.073  1.00  0.00    -0.390 OA
HETATM   13  H   LIG     1      40.478   8.779   1.707  1.00  0.00     0.210 HD
ENDBRANCH   2  12
BRANCH   4  14
HETATM   14  O   LIG     1      44.569   8.366   3.396  1.00  0.00    -0.363 OA
HETATM   15  C   LIG     1      45.818   8.629   4.016  1.00  0.00     0.204 C 
ENDBRANCH   4  14
BRANCH   3  16
HETATM   16  O   LIG     1      42.611  10.234   2.002  1.00  0.00    -0.388 OA
HETATM   17  H   LIG     1      42.095  10.636   1.272  1.00  0.00     0.210 HD
ENDBRANCH   3  16
TORSDOF 6
ENDMDL
