REMARK AutoDockVina VirtualScreeningResult  Sun Mar  6 21:56:29 2016
USER  AD>  6 of 9 MODELS
USER  AD>  ligand efficiency  -0.3615
USER  AD>  -4.70,  4.006,  7.355
USER  AD> macro_close_ats: 9
USER  AD> hepi:A:ALA140:H
USER  AD> hepi:A:LEU286:CA
USER  AD> hepi:A:GLN138:C
USER  AD> hepi:A:GLN138:O
USER  AD> hepi:A:LEU286:C
USER  AD> hepi:A:GLY285:O
USER  AD> hepi:A:ARG143:CD
USER  AD> hepi:A:HIS139:CA
USER  AD> hepi:A:LEU286:O

USER  AD> lig_close_ats: 6
USER  AD> h11b_aam_b1_m6_model1: :LIG1:C,H,C,H,C,O
MODEL 6
REMARK VINA RESULT:      -4.7      4.006      7.355
REMARK  6 active torsions:
REMARK  status: ('A' for Active; 'I' for Inactive)
REMARK    1  A    between atoms: C_1  and  O_7 
REMARK    2  A    between atoms: C_2  and  O_10 
REMARK    3  A    between atoms: C_3  and  O_11 
REMARK    4  A    between atoms: C_4  and  O_12 
REMARK    5  A    between atoms: C_6  and  C_8 
REMARK    6  A    between atoms: C_8  and  O_9 
ROOT
HETATM    1  C   LIG L   1      35.260  -6.983  -0.993  1.00  0.00     0.180 C 
HETATM    2  C   LIG L   1      35.786  -7.211  -2.418  1.00  0.00     0.183 C 
HETATM    3  C   LIG L   1      37.061  -8.061  -2.388  1.00  0.00     0.204 C 
HETATM    4  C   LIG L   1      38.094  -7.406  -1.445  1.00  0.00     0.290 C 
HETATM    5  O   LIG L   1      37.516  -7.295  -0.126  1.00  0.00    -0.349 OA
HETATM    6  C   LIG L   1      36.381  -6.408  -0.106  1.00  0.00     0.179 C 
ENDROOT
BRANCH   6   7
HETATM    7  C   LIG L   1      35.943  -6.214   1.350  1.00  0.00     0.198 C 
BRANCH   7   8
HETATM    8  O   LIG L   1      34.559  -5.900   1.437  1.00  0.00    -0.398 OA
HETATM    9  H   LIG L   1      34.454  -4.964   1.190  1.00  0.00     0.209 HD
ENDBRANCH   7   8
ENDBRANCH   6   7
BRANCH   1  10
HETATM   10  O   LIG L   1      34.794  -8.260  -0.509  1.00  0.00    -0.390 OA
HETATM   11  H   LIG L   1      35.543  -8.700  -0.063  1.00  0.00     0.210 HD
ENDBRANCH   1  10
BRANCH   2  12
HETATM   12  O   LIG L   1      34.802  -7.906  -3.205  1.00  0.00    -0.390 OA
HETATM   13  H   LIG L   1      35.314  -8.484  -3.809  1.00  0.00     0.210 HD
ENDBRANCH   2  12
BRANCH   4  14
HETATM   14  O   LIG L   1      38.535  -6.109  -1.854  1.00  0.00    -0.363 OA
HETATM   15  C   LIG L   1      39.930  -6.031  -2.115  1.00  0.00     0.204 C 
ENDBRANCH   4  14
BRANCH   3  16
HETATM   16  O   LIG L   1      37.544  -8.271  -3.719  1.00  0.00    -0.388 OA
HETATM   17  H   LIG L   1      37.077  -7.605  -4.265  1.00  0.00     0.210 HD
ENDBRANCH   3  16
TORSDOF 6
ENDMDL
