REMARK AutoDockVina VirtualScreeningResult  Sun Mar  6 21:57:19 2016
USER  AD>  6 of 9 MODELS
USER  AD>  ligand efficiency  -0.3917
USER  AD>  -4.70, 28.674, 29.264
USER  AD> macro_close_ats: 7
USER  AD> hepi:A:HIS193:CB
USER  AD> hepi:A:TRP194:C
USER  AD> hepi:A:GLU196:H
USER  AD> hepi:A:TRP194:O
USER  AD> hepi:A:ARG225:H
USER  AD> hepi:A:ASP190:C
USER  AD> hepi:A:ASP190:O

USER  AD> lig_close_ats: 5
USER  AD> h11b_ab_b2_m6_model1: :LIG1:H,O,H,C,H
MODEL 6
REMARK VINA RESULT:      -4.7     28.674     29.264
REMARK  6 active torsions:
REMARK  status: ('A' for Active; 'I' for Inactive)
REMARK    1  A    between atoms: C_1  and  O_7 
REMARK    2  A    between atoms: C_2  and  O_10 
REMARK    3  A    between atoms: C_3  and  O_12 
REMARK    4  A    between atoms: C_4  and  O_11 
REMARK    5  A    between atoms: C_6  and  C_8 
REMARK    6  A    between atoms: C_8  and  O_9 
ROOT
HETATM    1  C   LIG L   1      33.740  20.004   2.550  1.00  0.00     0.180 C 
HETATM    2  C   LIG L   1      34.935  20.834   3.038  1.00  0.00     0.183 C 
HETATM    3  C   LIG L   1      35.558  20.207   4.288  1.00  0.00     0.204 C 
HETATM    4  C   LIG L   1      34.470  19.929   5.346  1.00  0.00     0.288 C 
HETATM    5  O   LIG L   1      33.419  19.140   4.783  1.00  0.00    -0.349 OA
HETATM    6  C   LIG L   1      32.749  19.825   3.714  1.00  0.00     0.179 C 
ENDROOT
BRANCH   6   7
HETATM    7  C   LIG L   1      31.513  19.016   3.311  1.00  0.00     0.198 C 
BRANCH   7   8
HETATM    8  O   LIG L   1      31.822  17.629   3.236  1.00  0.00    -0.398 OA
HETATM    9  H   LIG L   1      32.775  17.548   3.056  1.00  0.00     0.209 HD
ENDBRANCH   7   8
ENDBRANCH   6   7
BRANCH   1  10
HETATM   10  O   LIG L   1      34.260  18.740   2.095  1.00  0.00    -0.390 OA
HETATM   11  H   LIG L   1      33.497  18.174   1.862  1.00  0.00     0.210 HD
ENDBRANCH   1  10
BRANCH   2  12
HETATM   12  O   LIG L   1      35.945  20.908   2.019  1.00  0.00    -0.390 OA
HETATM   13  H   LIG L   1      36.796  20.985   2.499  1.00  0.00     0.210 HD
ENDBRANCH   2  12
BRANCH   4  14
HETATM   14  O   LIG L   1      35.025  19.220   6.446  1.00  0.00    -0.369 OA
HETATM   15  H   LIG L   1      34.610  18.337   6.444  1.00  0.00     0.212 HD
ENDBRANCH   4  14
BRANCH   3  16
HETATM   16  O   LIG L   1      36.574  21.067   4.820  1.00  0.00    -0.388 OA
HETATM   17  H   LIG L   1      36.830  21.655   4.080  1.00  0.00     0.210 HD
ENDBRANCH   3  16
TORSDOF 6
ENDMDL
