REMARK AutoDockVina VirtualScreeningResult  Sun Mar  6 21:57:54 2016
USER  AD>  6 of 9 MODELS
USER  AD>  ligand efficiency  -0.2429
USER  AD>  -5.10, 10.811, 14.052
USER  AD> macro_close_ats: 9
USER  AD> hepi:A:ASP261:CG
USER  AD> hepi:A:ASP13:OD1
USER  AD> hepi:A:SER10:H
USER  AD> hepi:A:SER10:CA
USER  AD> hepi:A:PHE41:CE2
USER  AD> hepi:A:PHE41:CZ
USER  AD> hepi:A:MET11:H
USER  AD> hepi:A:LYS192:H
USER  AD> hepi:A:HIS266:NE2

USER  AD> lig_close_ats: 8
USER  AD> h11b_ga8_b2_m6_model1: :LIG1:O,C,H,C,O,H,C,C
MODEL 6
REMARK VINA RESULT:      -5.1     10.811     14.052
REMARK  13 active torsions:
REMARK  status: ('A' for Active; 'I' for Inactive)
REMARK    1  A    between atoms: C_1  and  O_21 
REMARK    2  A    between atoms: C_2  and  O_9 
REMARK    3  A    between atoms: C_3  and  O_10 
REMARK    4  A    between atoms: C_4  and  O_11 
REMARK    5  A    between atoms: C_6  and  C_7 
REMARK    6  A    between atoms: C_7  and  O_8 
REMARK    7  A    between atoms: O_11  and  C_12 
REMARK    8  A    between atoms: C_12  and  C_13 
REMARK    9  A    between atoms: C_14  and  C_15 
REMARK   10  A    between atoms: C_15  and  C_16 
REMARK   11  A    between atoms: C_16  and  C_17 
REMARK   12  A    between atoms: C_17  and  C_18 
REMARK   13  A    between atoms: C_18  and  C_19 
ROOT
HETATM    1  C   LIG L   1      39.757   3.099   1.101  1.00  0.00     0.180 C 
HETATM    2  C   LIG L   1      39.812   4.632   1.189  1.00  0.00     0.183 C 
HETATM    3  C   LIG L   1      40.708   5.190   0.090  1.00  0.00     0.204 C 
HETATM    4  C   LIG L   1      42.106   4.562   0.233  1.00  0.00     0.291 C 
HETATM    5  O   LIG L   1      41.993   3.145   0.046  1.00  0.00    -0.348 OA
HETATM    6  C   LIG L   1      41.175   2.489   1.029  1.00  0.00     0.179 C 
ENDROOT
BRANCH   4   7
HETATM    7  O   LIG L   1      42.715   4.829   1.502  1.00  0.00    -0.355 OA
BRANCH   7   8
HETATM    8  C   LIG L   1      43.741   5.813   1.403  1.00  0.00     0.198 C 
BRANCH   8   9
HETATM    9  C   LIG L   1      44.787   5.326   0.448  1.00  0.00    -0.005 C 
HETATM   10  C   LIG L   1      45.769   6.122  -0.012  1.00  0.00    -0.029 C 
BRANCH  10  11
HETATM   11  C   LIG L   1      46.812   5.696  -1.005  1.00  0.00     0.027 C 
BRANCH  11  12
HETATM   12  C   LIG L   1      46.356   6.000  -2.437  1.00  0.00     0.004 C 
BRANCH  12  13
HETATM   13  C   LIG L   1      47.542   6.264  -3.366  1.00  0.00     0.000 C 
BRANCH  13  14
HETATM   14  C   LIG L   1      48.612   5.181  -3.210  1.00  0.00    -0.000 C 
BRANCH  14  15
HETATM   15  C   LIG L   1      49.867   5.521  -4.012  1.00  0.00    -0.005 C 
HETATM   16  C   LIG L   1      50.851   6.337  -3.186  1.00  0.00     0.005 C 
ENDBRANCH  14  15
ENDBRANCH  13  14
ENDBRANCH  12  13
ENDBRANCH  11  12
ENDBRANCH  10  11
ENDBRANCH   8   9
ENDBRANCH   7   8
ENDBRANCH   4   7
BRANCH   3  17
HETATM   17  O   LIG L   1      40.707   6.620   0.145  1.00  0.00    -0.388 OA
HETATM   18  H   LIG L   1      40.546   6.909  -0.778  1.00  0.00     0.210 HD
ENDBRANCH   3  17
BRANCH   2  19
HETATM   19  O   LIG L   1      38.508   5.226   1.037  1.00  0.00    -0.390 OA
HETATM   20  H   LIG L   1      38.065   4.778   0.291  1.00  0.00     0.210 HD
ENDBRANCH   2  19
BRANCH   6  21
HETATM   21  C   LIG L   1      41.144   0.997   0.643  1.00  0.00     0.198 C 
BRANCH  21  22
HETATM   22  O   LIG L   1      42.351   0.303   0.918  1.00  0.00    -0.398 OA
HETATM   23  H   LIG L   1      42.208  -0.640   0.733  1.00  0.00     0.209 HD
ENDBRANCH  21  22
ENDBRANCH   6  21
BRANCH   1  24
HETATM   24  O   LIG L   1      38.995   2.611   2.210  1.00  0.00    -0.390 OA
HETATM   25  H   LIG L   1      39.230   1.680   2.366  1.00  0.00     0.210 HD
ENDBRANCH   1  24
TORSDOF 13
ENDMDL
