REMARK AutoDockVina VirtualScreeningResult  Sun Mar  6 21:58:42 2016
USER  AD>  1 of 9 MODELS
USER  AD>  ligand efficiency  -0.2850
USER  AD>  -5.70,  0.000,  0.000
USER  AD> macro_close_ats: 11
USER  AD> hepi:A:MET11:H
USER  AD> hepi:A:ASP261:OD2
USER  AD> hepi:A:PHE41:CE2
USER  AD> hepi:A:PHE41:CZ
USER  AD> hepi:A:THR262:CA
USER  AD> hepi:A:ASP261:CG
USER  AD> hepi:A:LYS192:H
USER  AD> hepi:A:SER10:CA
USER  AD> hepi:A:MET11:N
USER  AD> hepi:A:HIS266:NE2
USER  AD> hepi:A:HIS266:CD2

USER  AD> lig_close_ats: 9
USER  AD> h11b_gb7_b3_m1_model1: :LIG1:C,H,O,C,C,H,C,H,C
MODEL 1
REMARK VINA RESULT:      -5.7      0.000      0.000
REMARK  12 active torsions:
REMARK  status: ('A' for Active; 'I' for Inactive)
REMARK    1  A    between atoms: C_1  and  O_20 
REMARK    2  A    between atoms: C_2  and  O_9 
REMARK    3  A    between atoms: C_3  and  O_10 
REMARK    4  A    between atoms: C_4  and  O_11 
REMARK    5  A    between atoms: C_6  and  C_7 
REMARK    6  A    between atoms: C_7  and  O_8 
REMARK    7  A    between atoms: O_11  and  C_12 
REMARK    8  A    between atoms: C_12  and  C_13 
REMARK    9  A    between atoms: C_14  and  C_15 
REMARK   10  A    between atoms: C_15  and  C_16 
REMARK   11  A    between atoms: C_16  and  C_17 
REMARK   12  A    between atoms: C_17  and  C_18 
ROOT
HETATM    1  C   LIG     1      39.849   3.343   1.420  1.00  0.00     0.180 C 
HETATM    2  C   LIG     1      40.238   4.714   1.962  1.00  0.00     0.183 C 
HETATM    3  C   LIG     1      41.496   5.265   1.291  1.00  0.00     0.204 C 
HETATM    4  C   LIG     1      42.635   4.219   1.349  1.00  0.00     0.291 C 
HETATM    5  O   LIG     1      42.179   2.961   0.818  1.00  0.00    -0.348 OA
HETATM    6  C   LIG     1      41.063   2.406   1.511  1.00  0.00     0.179 C 
ENDROOT
BRANCH   4   7
HETATM    7  O   LIG     1      43.773   4.569   0.559  1.00  0.00    -0.355 OA
BRANCH   7   8
HETATM    8  C   LIG     1      44.874   5.179   1.221  1.00  0.00     0.198 C 
BRANCH   8   9
HETATM    9  C   LIG     1      45.582   6.180   0.355  1.00  0.00    -0.005 C 
HETATM   10  C   LIG     1      46.400   5.862  -0.661  1.00  0.00    -0.029 C 
BRANCH  10  11
HETATM   11  C   LIG     1      47.108   6.872  -1.519  1.00  0.00     0.027 C 
BRANCH  11  12
HETATM   12  C   LIG     1      47.908   6.204  -2.639  1.00  0.00     0.004 C 
BRANCH  12  13
HETATM   13  C   LIG     1      49.157   7.020  -2.983  1.00  0.00    -0.000 C 
BRANCH  13  14
HETATM   14  C   LIG     1      50.374   6.122  -3.204  1.00  0.00    -0.005 C 
HETATM   15  C   LIG     1      51.653   6.797  -2.734  1.00  0.00     0.005 C 
ENDBRANCH  13  14
ENDBRANCH  12  13
ENDBRANCH  11  12
ENDBRANCH  10  11
ENDBRANCH   8   9
ENDBRANCH   7   8
ENDBRANCH   4   7
BRANCH   3  16
HETATM   16  O   LIG     1      41.827   6.486   1.975  1.00  0.00    -0.388 OA
HETATM   17  H   LIG     1      40.962   6.870   2.231  1.00  0.00     0.210 HD
ENDBRANCH   3  16
BRANCH   2  18
HETATM   18  O   LIG     1      39.156   5.645   1.775  1.00  0.00    -0.390 OA
HETATM   19  H   LIG     1      38.365   5.082   1.653  1.00  0.00     0.210 HD
ENDBRANCH   2  18
BRANCH   6  20
HETATM   20  C   LIG     1      40.756   1.037   0.887  1.00  0.00     0.198 C 
BRANCH  20  21
HETATM   21  O   LIG     1      39.972   0.237   1.770  1.00  0.00    -0.398 OA
HETATM   22  H   LIG     1      39.435  -0.351   1.205  1.00  0.00     0.209 HD
ENDBRANCH  20  21
ENDBRANCH   6  20
BRANCH   1  23
HETATM   23  O   LIG     1      38.730   2.880   2.188  1.00  0.00    -0.390 OA
HETATM   24  H   LIG     1      38.883   1.923   2.351  1.00  0.00     0.210 HD
ENDBRANCH   1  23
TORSDOF 12
ENDMDL
