REMARK AutoDockVina VirtualScreeningResult  Sun Mar  6 21:56:45 2016
USER  AD>  6 of 9 MODELS
USER  AD>  ligand efficiency  -0.2304
USER  AD>  -5.30, 11.867, 16.030
USER  AD> macro_close_ats: 11
USER  AD> hepi:A:GLY263:H
USER  AD> hepi:A:LEU244:CA
USER  AD> hepi:A:THR188:CB
USER  AD> hepi:A:LEU244:CD1
USER  AD> hepi:A:THR188:CG2
USER  AD> hepi:A:THR188:H
USER  AD> hepi:A:THR262:H
USER  AD> hepi:A:MET11:CE
USER  AD> hepi:A:MET11:H
USER  AD> hepi:A:LYS192:H
USER  AD> hepi:A:LEU264:CD1

USER  AD> lig_close_ats: 10
USER  AD> h11b_aa10_b1_m6_model1: :LIG1:C,C,C,O,C,H,C,C,O,C
MODEL 6
REMARK VINA RESULT:      -5.3     11.867     16.030
REMARK  15 active torsions:
REMARK  status: ('A' for Active; 'I' for Inactive)
REMARK    1  A    between atoms: C_1  and  O_7 
REMARK    2  A    between atoms: C_2  and  O_10 
REMARK    3  A    between atoms: C_3  and  O_11 
REMARK    4  A    between atoms: C_4  and  O_12 
REMARK    5  A    between atoms: C_6  and  C_8 
REMARK    6  A    between atoms: C_8  and  O_9 
REMARK    7  A    between atoms: O_12  and  C_13 
REMARK    8  A    between atoms: C_13  and  C_14 
REMARK    9  A    between atoms: C_15  and  C_16 
REMARK   10  A    between atoms: C_16  and  C_17 
REMARK   11  A    between atoms: C_17  and  C_18 
REMARK   12  A    between atoms: C_18  and  C_19 
REMARK   13  A    between atoms: C_19  and  C_20 
REMARK   14  A    between atoms: C_20  and  C_21 
REMARK   15  A    between atoms: C_21  and  C_22 
ROOT
HETATM    1  C   LIG L   1      42.685   7.033   0.943  1.00  0.00     0.180 C 
HETATM    2  C   LIG L   1      42.285   8.296   1.717  1.00  0.00     0.183 C 
HETATM    3  C   LIG L   1      43.375   9.361   1.569  1.00  0.00     0.204 C 
HETATM    4  C   LIG L   1      44.712   8.771   2.069  1.00  0.00     0.291 C 
HETATM    5  O   LIG L   1      45.042   7.622   1.260  1.00  0.00    -0.348 OA
HETATM    6  C   LIG L   1      44.082   6.556   1.389  1.00  0.00     0.179 C 
ENDROOT
BRANCH   4   7
HETATM    7  O   LIG L   1      44.677   8.388   3.450  1.00  0.00    -0.355 OA
BRANCH   7   8
HETATM    8  C   LIG L   1      45.977   8.358   4.032  1.00  0.00     0.198 C 
BRANCH   8   9
HETATM    9  C   LIG L   1      46.739   9.570   3.592  1.00  0.00    -0.005 C 
HETATM   10  C   LIG L   1      47.010  10.584   4.433  1.00  0.00    -0.029 C 
BRANCH  10  11
HETATM   11  C   LIG L   1      47.728  11.845   4.052  1.00  0.00     0.027 C 
BRANCH  11  12
HETATM   12  C   LIG L   1      48.777  12.208   5.109  1.00  0.00     0.004 C 
BRANCH  12  13
HETATM   13  C   LIG L   1      48.218  12.082   6.524  1.00  0.00     0.000 C 
BRANCH  13  14
HETATM   14  C   LIG L   1      49.267  11.515   7.482  1.00  0.00     0.000 C 
BRANCH  14  15
HETATM   15  C   LIG L   1      50.039  10.368   6.832  1.00  0.00     0.000 C 
BRANCH  15  16
HETATM   16  C   LIG L   1      51.540  10.480   7.099  1.00  0.00    -0.000 C 
BRANCH  16  17
HETATM   17  C   LIG L   1      52.345  10.067   5.867  1.00  0.00    -0.005 C 
HETATM   18  C   LIG L   1      51.537   9.167   4.947  1.00  0.00     0.005 C 
ENDBRANCH  16  17
ENDBRANCH  15  16
ENDBRANCH  14  15
ENDBRANCH  13  14
ENDBRANCH  12  13
ENDBRANCH  11  12
ENDBRANCH  10  11
ENDBRANCH   8   9
ENDBRANCH   7   8
ENDBRANCH   4   7
BRANCH   3  19
HETATM   19  O   LIG L   1      42.980  10.565   2.232  1.00  0.00    -0.388 OA
HETATM   20  H   LIG L   1      43.660  11.226   1.987  1.00  0.00     0.210 HD
ENDBRANCH   3  19
BRANCH   2  21
HETATM   21  O   LIG L   1      41.056   8.838   1.201  1.00  0.00    -0.390 OA
HETATM   22  H   LIG L   1      41.312   9.343   0.401  1.00  0.00     0.210 HD
ENDBRANCH   2  21
BRANCH   6  23
HETATM   23  C   LIG L   1      44.582   5.362   0.564  1.00  0.00     0.198 C 
BRANCH  23  24
HETATM   24  O   LIG L   1      43.507   4.544   0.121  1.00  0.00    -0.398 OA
HETATM   25  H   LIG L   1      43.469   4.605  -0.849  1.00  0.00     0.209 HD
ENDBRANCH  23  24
ENDBRANCH   6  23
BRANCH   1  26
HETATM   26  O   LIG L   1      42.647   7.376  -0.458  1.00  0.00    -0.390 OA
HETATM   27  H   LIG L   1      41.802   7.051  -0.824  1.00  0.00     0.210 HD
ENDBRANCH   1  26
TORSDOF 15
ENDMDL
