REMARK AutoDockVina VirtualScreeningResult  Sun Mar  6 21:58:23 2016
USER  AD>  9 of 9 MODELS
USER  AD>  ligand efficiency  -0.2524
USER  AD>  -5.30,  3.163,  5.143
USER  AD> macro_close_ats: 13
USER  AD> hepi:A:MET11:H
USER  AD> hepi:A:ASP261:CG
USER  AD> hepi:A:LYS192:NZ
USER  AD> hepi:A:LYS192:H
USER  AD> hepi:A:THR262:H
USER  AD> hepi:A:LYS192:H
USER  AD> hepi:A:MET11:CB
USER  AD> hepi:A:GLY263:CA
USER  AD> hepi:A:LEU264:CG
USER  AD> hepi:A:GLY12:H
USER  AD> hepi:A:LEU264:H
USER  AD> hepi:A:HIS266:NE2
USER  AD> hepi:A:HIS266:CE1

USER  AD> lig_close_ats: 5
USER  AD> h11b_aa8_b3_m9_model1: :LIG1:C,C,H,O,H
MODEL 9
REMARK VINA RESULT:      -5.3      3.163      5.143
REMARK  13 active torsions:
REMARK  status: ('A' for Active; 'I' for Inactive)
REMARK    1  A    between atoms: C_1  and  O_7 
REMARK    2  A    between atoms: C_2  and  O_10 
REMARK    3  A    between atoms: C_3  and  O_11 
REMARK    4  A    between atoms: C_4  and  O_12 
REMARK    5  A    between atoms: C_6  and  C_8 
REMARK    6  A    between atoms: C_8  and  O_9 
REMARK    7  A    between atoms: O_12  and  C_13 
REMARK    8  A    between atoms: C_13  and  C_14 
REMARK    9  A    between atoms: C_15  and  C_16 
REMARK   10  A    between atoms: C_16  and  C_17 
REMARK   11  A    between atoms: C_17  and  C_18 
REMARK   12  A    between atoms: C_18  and  C_19 
REMARK   13  A    between atoms: C_19  and  C_20 
ROOT
HETATM    1  C   LIG     1      39.903   3.500   1.406  1.00  0.00     0.180 C 
HETATM    2  C   LIG     1      40.101   4.989   1.728  1.00  0.00     0.183 C 
HETATM    3  C   LIG     1      41.012   5.614   0.664  1.00  0.00     0.204 C 
HETATM    4  C   LIG     1      42.359   4.848   0.682  1.00  0.00     0.291 C 
HETATM    5  O   LIG     1      42.115   3.463   0.358  1.00  0.00    -0.348 OA
HETATM    6  C   LIG     1      41.277   2.805   1.326  1.00  0.00     0.179 C 
ENDROOT
BRANCH   4   7
HETATM    7  O   LIG     1      43.042   4.921   1.941  1.00  0.00    -0.355 OA
BRANCH   7   8
HETATM    8  C   LIG     1      44.448   4.836   1.766  1.00  0.00     0.198 C 
BRANCH   8   9
HETATM    9  C   LIG     1      44.951   6.040   1.056  1.00  0.00    -0.005 C 
HETATM   10  C   LIG     1      45.612   6.954   1.777  1.00  0.00    -0.029 C 
BRANCH  10  11
HETATM   11  C   LIG     1      46.270   8.143   1.148  1.00  0.00     0.027 C 
BRANCH  11  12
HETATM   12  C   LIG     1      45.261   9.258   0.978  1.00  0.00     0.004 C 
BRANCH  12  13
HETATM   13  C   LIG     1      44.854   9.759   2.349  1.00  0.00     0.000 C 
BRANCH  13  14
HETATM   14  C   LIG     1      46.048  10.335   3.081  1.00  0.00    -0.000 C 
BRANCH  14  15
HETATM   15  C   LIG     1      45.858  10.197   4.584  1.00  0.00    -0.005 C 
HETATM   16  C   LIG     1      45.898   8.738   4.989  1.00  0.00     0.005 C 
ENDBRANCH  14  15
ENDBRANCH  13  14
ENDBRANCH  12  13
ENDBRANCH  11  12
ENDBRANCH  10  11
ENDBRANCH   8   9
ENDBRANCH   7   8
ENDBRANCH   4   7
BRANCH   3  17
HETATM   17  O   LIG     1      41.136   7.031   0.837  1.00  0.00    -0.388 OA
HETATM   18  H   LIG     1      41.996   7.289   0.445  1.00  0.00     0.210 HD
ENDBRANCH   3  17
BRANCH   2  19
HETATM   19  O   LIG     1      38.850   5.682   1.745  1.00  0.00    -0.390 OA
HETATM   20  H   LIG     1      38.748   6.072   0.854  1.00  0.00     0.210 HD
ENDBRANCH   2  19
BRANCH   6  21
HETATM   21  C   LIG     1      41.155   1.324   0.945  1.00  0.00     0.198 C 
BRANCH  21  22
HETATM   22  O   LIG     1      41.457   0.471   2.045  1.00  0.00    -0.398 OA
HETATM   23  H   LIG     1      40.635   0.320   2.543  1.00  0.00     0.209 HD
ENDBRANCH  21  22
ENDBRANCH   6  21
BRANCH   1  24
HETATM   24  O   LIG     1      39.193   3.424   0.153  1.00  0.00    -0.390 OA
HETATM   25  H   LIG     1      39.588   2.704  -0.374  1.00  0.00     0.210 HD
ENDBRANCH   1  24
TORSDOF 13
ENDMDL
