REMARK AutoDockVina VirtualScreeningResult  Sun Mar  6 21:58:18 2016
USER  AD>  5 of 9 MODELS
USER  AD>  ligand efficiency  -0.2895
USER  AD>  -5.50, 13.163, 16.597
USER  AD> macro_close_ats: 13
USER  AD> hepi:A:LYS7:H
USER  AD> hepi:A:MET114:SD
USER  AD> hepi:A:ARG143:H
USER  AD> hepi:A:ALA140:CB
USER  AD> hepi:A:ARG120:H
USER  AD> hepi:A:ASP13:OD1
USER  AD> hepi:A:ASP13:CG
USER  AD> hepi:A:LYS7:H
USER  AD> hepi:A:ALA93:O
USER  AD> hepi:A:LYS7:H
USER  AD> hepi:A:ARG143:NH1
USER  AD> hepi:A:ARG120:CD
USER  AD> hepi:A:LYS7:NZ

USER  AD> lig_close_ats: 9
USER  AD> h11b_ab6_b3_m5_model1: :LIG1:C,H,H,C,O,H,C,O,O
MODEL 5
REMARK VINA RESULT:      -5.5     13.163     16.597
REMARK  11 active torsions:
REMARK  status: ('A' for Active; 'I' for Inactive)
REMARK    1  A    between atoms: C_1  and  O_7 
REMARK    2  A    between atoms: C_2  and  O_10 
REMARK    3  A    between atoms: C_3  and  O_11 
REMARK    4  A    between atoms: C_4  and  O_12 
REMARK    5  A    between atoms: C_6  and  C_8 
REMARK    6  A    between atoms: C_8  and  O_9 
REMARK    7  A    between atoms: O_12  and  C_13 
REMARK    8  A    between atoms: C_13  and  C_14 
REMARK    9  A    between atoms: C_15  and  C_16 
REMARK   10  A    between atoms: C_16  and  C_17 
REMARK   11  A    between atoms: C_17  and  C_18 
ROOT
HETATM    1  C   LIG L   1      43.343  -6.332  -4.574  1.00  0.00     0.180 C 
HETATM    2  C   LIG L   1      43.025  -4.938  -4.020  1.00  0.00     0.183 C 
HETATM    3  C   LIG L   1      42.109  -4.999  -2.786  1.00  0.00     0.204 C 
HETATM    4  C   LIG L   1      40.904  -5.917  -3.080  1.00  0.00     0.291 C 
HETATM    5  O   LIG L   1      41.330  -7.191  -3.575  1.00  0.00    -0.348 OA
HETATM    6  C   LIG L   1      42.023  -7.076  -4.822  1.00  0.00     0.179 C 
ENDROOT
BRANCH   4   7
HETATM    7  O   LIG L   1      40.139  -6.163  -1.901  1.00  0.00    -0.355 OA
BRANCH   7   8
HETATM    8  C   LIG L   1      38.757  -5.896  -2.113  1.00  0.00     0.198 C 
BRANCH   8   9
HETATM    9  C   LIG L   1      38.416  -4.568  -1.512  1.00  0.00    -0.005 C 
HETATM   10  C   LIG L   1      39.010  -4.121  -0.396  1.00  0.00    -0.029 C 
BRANCH  10  11
HETATM   11  C   LIG L   1      38.728  -2.791   0.246  1.00  0.00     0.027 C 
BRANCH  11  12
HETATM   12  C   LIG L   1      40.031  -2.114   0.682  1.00  0.00     0.003 C 
BRANCH  12  13
HETATM   13  C   LIG L   1      40.109  -0.666   0.205  1.00  0.00    -0.004 C 
HETATM   14  C   LIG L   1      39.852  -0.567  -1.291  1.00  0.00     0.005 C 
ENDBRANCH  12  13
ENDBRANCH  11  12
ENDBRANCH  10  11
ENDBRANCH   8   9
ENDBRANCH   7   8
ENDBRANCH   4   7
BRANCH   3  15
HETATM   15  O   LIG L   1      41.669  -3.660  -2.492  1.00  0.00    -0.388 OA
HETATM   16  H   LIG L   1      42.437  -3.215  -2.079  1.00  0.00     0.210 HD
ENDBRANCH   3  15
BRANCH   2  17
HETATM   17  O   LIG L   1      44.231  -4.245  -3.666  1.00  0.00    -0.390 OA
HETATM   18  H   LIG L   1      44.964  -4.853  -3.903  1.00  0.00     0.210 HD
ENDBRANCH   2  17
BRANCH   6  19
HETATM   19  C   LIG L   1      42.219  -8.480  -5.392  1.00  0.00     0.198 C 
BRANCH  19  20
HETATM   20  O   LIG L   1      41.040  -8.928  -6.048  1.00  0.00    -0.398 OA
HETATM   21  H   LIG L   1      40.503  -8.144  -6.256  1.00  0.00     0.209 HD
ENDBRANCH  19  20
ENDBRANCH   6  19
BRANCH   1  22
HETATM   22  O   LIG L   1      44.164  -7.004  -3.603  1.00  0.00    -0.390 OA
HETATM   23  H   LIG L   1      45.069  -6.643  -3.680  1.00  0.00     0.210 HD
ENDBRANCH   1  22
TORSDOF 11
ENDMDL
