REMARK AutoDockVina VirtualScreeningResult  Sun Mar  6 21:57:55 2016
USER  AD>  1 of 9 MODELS
USER  AD>  ligand efficiency  -0.2667
USER  AD>  -5.60,  0.000,  0.000
USER  AD> macro_close_ats: 13
USER  AD> hepi:A:LYS192:H
USER  AD> hepi:A:THR262:OG1
USER  AD> hepi:A:GLY12:H
USER  AD> hepi:A:LEU264:H
USER  AD> hepi:A:GLY263:H
USER  AD> hepi:A:GLY263:CA
USER  AD> hepi:A:LEU264:CD1
USER  AD> hepi:A:THR262:CA
USER  AD> hepi:A:SER10:H
USER  AD> hepi:A:LEU264:CG
USER  AD> hepi:A:MET11:CE
USER  AD> hepi:A:THR188:H
USER  AD> hepi:A:GLY12:N

USER  AD> lig_close_ats: 11
USER  AD> h11b_gb8_b2_m1_model1: :LIG1:C,C,O,O,C,H,C,O,C,H,C
MODEL 1
REMARK VINA RESULT:      -5.6      0.000      0.000
REMARK  13 active torsions:
REMARK  status: ('A' for Active; 'I' for Inactive)
REMARK    1  A    between atoms: C_1  and  O_21 
REMARK    2  A    between atoms: C_2  and  O_9 
REMARK    3  A    between atoms: C_3  and  O_10 
REMARK    4  A    between atoms: C_4  and  O_11 
REMARK    5  A    between atoms: C_6  and  C_7 
REMARK    6  A    between atoms: C_7  and  O_8 
REMARK    7  A    between atoms: O_11  and  C_12 
REMARK    8  A    between atoms: C_12  and  C_13 
REMARK    9  A    between atoms: C_14  and  C_15 
REMARK   10  A    between atoms: C_15  and  C_16 
REMARK   11  A    between atoms: C_16  and  C_17 
REMARK   12  A    between atoms: C_17  and  C_18 
REMARK   13  A    between atoms: C_18  and  C_19 
ROOT
HETATM    1  C   LIG L   1      41.411   6.158   1.036  1.00  0.00     0.180 C 
HETATM    2  C   LIG L   1      42.350   4.966   0.794  1.00  0.00     0.183 C 
HETATM    3  C   LIG L   1      43.601   5.008   1.683  1.00  0.00     0.204 C 
HETATM    4  C   LIG L   1      44.257   6.386   1.484  1.00  0.00     0.291 C 
HETATM    5  O   LIG L   1      43.347   7.412   1.873  1.00  0.00    -0.348 OA
HETATM    6  C   LIG L   1      42.188   7.485   1.043  1.00  0.00     0.179 C 
ENDROOT
BRANCH   4   7
HETATM    7  O   LIG L   1      45.427   6.515   2.288  1.00  0.00    -0.355 OA
BRANCH   7   8
HETATM    8  C   LIG L   1      46.244   7.588   1.834  1.00  0.00     0.198 C 
BRANCH   8   9
HETATM    9  C   LIG L   1      46.409   8.591   2.930  1.00  0.00    -0.005 C 
HETATM   10  C   LIG L   1      45.911   8.379   4.156  1.00  0.00    -0.029 C 
BRANCH  10  11
HETATM   11  C   LIG L   1      46.059   9.327   5.312  1.00  0.00     0.027 C 
BRANCH  11  12
HETATM   12  C   LIG L   1      47.192  10.323   5.046  1.00  0.00     0.004 C 
BRANCH  12  13
HETATM   13  C   LIG L   1      47.082  11.564   5.927  1.00  0.00     0.000 C 
BRANCH  13  14
HETATM   14  C   LIG L   1      45.734  12.257   5.718  1.00  0.00    -0.000 C 
BRANCH  14  15
HETATM   15  C   LIG L   1      45.581  12.768   4.288  1.00  0.00    -0.005 C 
HETATM   16  C   LIG L   1      44.294  12.264   3.655  1.00  0.00     0.005 C 
ENDBRANCH  14  15
ENDBRANCH  13  14
ENDBRANCH  12  13
ENDBRANCH  11  12
ENDBRANCH  10  11
ENDBRANCH   8   9
ENDBRANCH   7   8
ENDBRANCH   4   7
BRANCH   3  17
HETATM   17  O   LIG L   1      44.491   3.936   1.340  1.00  0.00    -0.388 OA
HETATM   18  H   LIG L   1      44.584   3.339   2.103  1.00  0.00     0.210 HD
ENDBRANCH   3  17
BRANCH   2  19
HETATM   19  O   LIG L   1      41.611   3.745   0.949  1.00  0.00    -0.390 OA
HETATM   20  H   LIG L   1      40.834   3.927   1.510  1.00  0.00     0.210 HD
ENDBRANCH   2  19
BRANCH   6  21
HETATM   21  C   LIG L   1      41.337   8.659   1.561  1.00  0.00     0.198 C 
BRANCH  21  22
HETATM   22  O   LIG L   1      42.084   9.787   1.993  1.00  0.00    -0.398 OA
HETATM   23  H   LIG L   1      42.506   9.574   2.844  1.00  0.00     0.209 HD
ENDBRANCH  21  22
ENDBRANCH   6  21
BRANCH   1  24
HETATM   24  O   LIG L   1      40.438   6.169  -0.017  1.00  0.00    -0.390 OA
HETATM   25  H   LIG L   1      40.824   5.640  -0.746  1.00  0.00     0.210 HD
ENDBRANCH   1  24
TORSDOF 13
ENDMDL
