REMARK AutoDockVina VirtualScreeningResult  Sun Mar  6 21:58:20 2016
USER  AD>  1 of 9 MODELS
USER  AD>  ligand efficiency  -0.2700
USER  AD>  -5.40,  0.000,  0.000
USER  AD> macro_close_ats: 6
USER  AD> hepi:A:ASP261:OD1
USER  AD> hepi:A:GLY12:H
USER  AD> hepi:A:ASP261:CG
USER  AD> hepi:A:GLY263:CA
USER  AD> hepi:A:HIS266:NE2
USER  AD> hepi:A:HIS266:CD2

USER  AD> lig_close_ats: 6
USER  AD> h11b_ab7_b3_m1_model1: :LIG1:H,O,H,H,O,H
MODEL 1
REMARK VINA RESULT:      -5.4      0.000      0.000
REMARK  12 active torsions:
REMARK  status: ('A' for Active; 'I' for Inactive)
REMARK    1  A    between atoms: C_1  and  O_7 
REMARK    2  A    between atoms: C_2  and  O_10 
REMARK    3  A    between atoms: C_3  and  O_11 
REMARK    4  A    between atoms: C_4  and  O_12 
REMARK    5  A    between atoms: C_6  and  C_8 
REMARK    6  A    between atoms: C_8  and  O_9 
REMARK    7  A    between atoms: O_12  and  C_13 
REMARK    8  A    between atoms: C_13  and  C_14 
REMARK    9  A    between atoms: C_15  and  C_16 
REMARK   10  A    between atoms: C_16  and  C_17 
REMARK   11  A    between atoms: C_17  and  C_18 
REMARK   12  A    between atoms: C_18  and  C_19 
ROOT
HETATM    1  C   LIG     1      41.721   5.008   1.671  1.00  0.00     0.180 C 
HETATM    2  C   LIG     1      40.266   4.584   1.857  1.00  0.00     0.183 C 
HETATM    3  C   LIG     1      40.045   3.111   1.485  1.00  0.00     0.204 C 
HETATM    4  C   LIG     1      40.670   2.788   0.102  1.00  0.00     0.291 C 
HETATM    5  O   LIG     1      42.028   3.269   0.041  1.00  0.00    -0.348 OA
HETATM    6  C   LIG     1      42.143   4.682   0.234  1.00  0.00     0.179 C 
ENDROOT
BRANCH   4   7
HETATM    7  O   LIG     1      40.770   1.385  -0.154  1.00  0.00    -0.355 OA
BRANCH   7   8
HETATM    8  C   LIG     1      41.166   0.567   0.937  1.00  0.00     0.198 C 
BRANCH   8   9
HETATM    9  C   LIG     1      40.128  -0.464   1.268  1.00  0.00    -0.005 C 
HETATM   10  C   LIG     1      40.114  -1.698   0.739  1.00  0.00    -0.029 C 
BRANCH  10  11
HETATM   11  C   LIG     1      39.048  -2.725   0.997  1.00  0.00     0.027 C 
BRANCH  11  12
HETATM   12  C   LIG     1      38.851  -3.621  -0.229  1.00  0.00     0.004 C 
BRANCH  12  13
HETATM   13  C   LIG     1      40.094  -3.644  -1.121  1.00  0.00    -0.000 C 
BRANCH  13  14
HETATM   14  C   LIG     1      40.221  -4.980  -1.856  1.00  0.00    -0.005 C 
HETATM   15  C   LIG     1      38.976  -5.836  -1.685  1.00  0.00     0.005 C 
ENDBRANCH  13  14
ENDBRANCH  12  13
ENDBRANCH  11  12
ENDBRANCH  10  11
ENDBRANCH   8   9
ENDBRANCH   7   8
ENDBRANCH   4   7
BRANCH   3  16
HETATM   16  O   LIG     1      38.625   2.879   1.522  1.00  0.00    -0.388 OA
HETATM   17  H   LIG     1      38.231   3.747   1.747  1.00  0.00     0.210 HD
ENDBRANCH   3  16
BRANCH   2  18
HETATM   18  O   LIG     1      39.861   4.768   3.225  1.00  0.00    -0.390 OA
HETATM   19  H   LIG     1      40.286   4.037   3.723  1.00  0.00     0.210 HD
ENDBRANCH   2  18
BRANCH   6  20
HETATM   20  C   LIG     1      43.589   5.098  -0.049  1.00  0.00     0.198 C 
BRANCH  20  21
HETATM   21  O   LIG     1      44.487   4.350   0.763  1.00  0.00    -0.398 OA
HETATM   22  H   LIG     1      43.967   3.949   1.481  1.00  0.00     0.209 HD
ENDBRANCH  20  21
ENDBRANCH   6  20
BRANCH   1  23
HETATM   23  O   LIG     1      42.505   4.282   2.638  1.00  0.00    -0.390 OA
HETATM   24  H   LIG     1      41.962   3.528   2.945  1.00  0.00     0.210 HD
ENDBRANCH   1  23
TORSDOF 12
ENDMDL
