REMARK AutoDockVina VirtualScreeningResult  Sun Mar  6 21:58:10 2016
USER  AD>  8 of 9 MODELS
USER  AD>  ligand efficiency  -0.3917
USER  AD>  -4.70, 13.831, 14.369
USER  AD> macro_close_ats: 17
USER  AD> hepi:A:ASP261:OD1
USER  AD> hepi:A:SER10:CB
USER  AD> hepi:A:SER10:H
USER  AD> hepi:A:THR262:OG1
USER  AD> hepi:A:GLY263:H
USER  AD> hepi:A:HIS266:CD2
USER  AD> hepi:A:LYS192:H
USER  AD> hepi:A:SER10:OG
USER  AD> hepi:A:MET11:H
USER  AD> hepi:A:THR262:CA
USER  AD> hepi:A:ASP261:C
USER  AD> hepi:A:MET11:N
USER  AD> hepi:A:GLY263:CA
USER  AD> hepi:A:ASP261:CG
USER  AD> hepi:A:THR262:CB
USER  AD> hepi:A:SER10:CA
USER  AD> hepi:A:GLY12:H

USER  AD> lig_close_ats: 11
USER  AD> h11b_ab_b3_m8_model1: :LIG1:H,O,C,O,C,H,H,O,H,O,C
MODEL 8
REMARK VINA RESULT:      -4.7     13.831     14.369
REMARK  6 active torsions:
REMARK  status: ('A' for Active; 'I' for Inactive)
REMARK    1  A    between atoms: C_1  and  O_7 
REMARK    2  A    between atoms: C_2  and  O_10 
REMARK    3  A    between atoms: C_3  and  O_12 
REMARK    4  A    between atoms: C_4  and  O_11 
REMARK    5  A    between atoms: C_6  and  C_8 
REMARK    6  A    between atoms: C_8  and  O_9 
ROOT
HETATM    1  C   LIG     1      42.335   4.540   1.279  1.00  0.00     0.180 C 
HETATM    2  C   LIG     1      43.694   5.100   0.838  1.00  0.00     0.183 C 
HETATM    3  C   LIG     1      44.022   6.390   1.594  1.00  0.00     0.204 C 
HETATM    4  C   LIG     1      42.839   7.377   1.506  1.00  0.00     0.288 C 
HETATM    5  O   LIG     1      41.635   6.752   1.954  1.00  0.00    -0.349 OA
HETATM    6  C   LIG     1      41.268   5.638   1.125  1.00  0.00     0.179 C 
ENDROOT
BRANCH   6   7
HETATM    7  C   LIG     1      39.873   5.160   1.533  1.00  0.00     0.198 C 
BRANCH   7   8
HETATM    8  O   LIG     1      39.830   4.856   2.922  1.00  0.00    -0.398 OA
HETATM    9  H   LIG     1      38.942   5.085   3.247  1.00  0.00     0.209 HD
ENDBRANCH   7   8
ENDBRANCH   6   7
BRANCH   1  10
HETATM   10  O   LIG     1      42.475   4.125   2.652  1.00  0.00    -0.390 OA
HETATM   11  H   LIG     1      43.430   4.107   2.859  1.00  0.00     0.210 HD
ENDBRANCH   1  10
BRANCH   2  12
HETATM   12  O   LIG     1      44.738   4.148   1.095  1.00  0.00    -0.390 OA
HETATM   13  H   LIG     1      44.467   3.329   0.628  1.00  0.00     0.210 HD
ENDBRANCH   2  12
BRANCH   4  14
HETATM   14  O   LIG     1      43.086   8.514   2.324  1.00  0.00    -0.369 OA
HETATM   15  H   LIG     1      42.221   8.798   2.672  1.00  0.00     0.212 HD
ENDBRANCH   4  14
BRANCH   3  16
HETATM   16  O   LIG     1      45.216   6.983   1.068  1.00  0.00    -0.388 OA
HETATM   17  H   LIG     1      44.936   7.843   0.693  1.00  0.00     0.210 HD
ENDBRANCH   3  16
TORSDOF 6
ENDMDL
