REMARK AutoDockVina VirtualScreeningResult  Sun Mar  6 21:56:35 2016
USER  AD>  1 of 9 MODELS
USER  AD>  ligand efficiency  -0.3053
USER  AD>  -5.80,  0.000,  0.000
USER  AD> macro_close_ats: 13
USER  AD> hepi:A:GLY263:H
USER  AD> hepi:A:MET11:N
USER  AD> hepi:A:GLY263:N
USER  AD> hepi:A:THR262:OG1
USER  AD> hepi:A:MET11:H
USER  AD> hepi:A:THR262:H
USER  AD> hepi:A:MET11:CE
USER  AD> hepi:A:THR188:H
USER  AD> hepi:A:THR187:OG1
USER  AD> hepi:A:THR262:CB
USER  AD> hepi:A:MET11:CB
USER  AD> hepi:A:LEU264:CG
USER  AD> hepi:A:LEU264:CD1

USER  AD> lig_close_ats: 11
USER  AD> h11b_ab6_b1_m1_model1: :LIG1:O,C,O,O,C,H,C,H,H,C,O
MODEL 1
REMARK VINA RESULT:      -5.8      0.000      0.000
REMARK  11 active torsions:
REMARK  status: ('A' for Active; 'I' for Inactive)
REMARK    1  A    between atoms: C_1  and  O_7 
REMARK    2  A    between atoms: C_2  and  O_10 
REMARK    3  A    between atoms: C_3  and  O_11 
REMARK    4  A    between atoms: C_4  and  O_12 
REMARK    5  A    between atoms: C_6  and  C_8 
REMARK    6  A    between atoms: C_8  and  O_9 
REMARK    7  A    between atoms: O_12  and  C_13 
REMARK    8  A    between atoms: C_13  and  C_14 
REMARK    9  A    between atoms: C_15  and  C_16 
REMARK   10  A    between atoms: C_16  and  C_17 
REMARK   11  A    between atoms: C_17  and  C_18 
ROOT
HETATM    1  C   LIG L   1      43.814   6.702   0.975  1.00  0.00     0.180 C 
HETATM    2  C   LIG L   1      45.343   6.687   1.097  1.00  0.00     0.183 C 
HETATM    3  C   LIG L   1      45.818   7.107   2.499  1.00  0.00     0.204 C 
HETATM    4  C   LIG L   1      45.104   8.408   2.920  1.00  0.00     0.291 C 
HETATM    5  O   LIG L   1      43.684   8.291   2.777  1.00  0.00    -0.348 OA
HETATM    6  C   LIG L   1      43.299   8.080   1.416  1.00  0.00     0.179 C 
ENDROOT
BRANCH   4   7
HETATM    7  O   LIG L   1      45.361   8.722   4.288  1.00  0.00    -0.355 OA
BRANCH   7   8
HETATM    8  C   LIG L   1      46.088   9.939   4.414  1.00  0.00     0.198 C 
BRANCH   8   9
HETATM    9  C   LIG L   1      47.240   9.727   5.346  1.00  0.00    -0.005 C 
HETATM   10  C   LIG L   1      47.981  10.747   5.803  1.00  0.00    -0.029 C 
BRANCH  10  11
HETATM   11  C   LIG L   1      49.136  10.603   6.753  1.00  0.00     0.027 C 
BRANCH  11  12
HETATM   12  C   LIG L   1      49.586  11.974   7.268  1.00  0.00     0.003 C 
BRANCH  12  13
HETATM   13  C   LIG L   1      48.479  12.687   8.041  1.00  0.00    -0.004 C 
HETATM   14  C   LIG L   1      48.918  12.999   9.464  1.00  0.00     0.005 C 
ENDBRANCH  12  13
ENDBRANCH  11  12
ENDBRANCH  10  11
ENDBRANCH   8   9
ENDBRANCH   7   8
ENDBRANCH   4   7
BRANCH   3  15
HETATM   15  O   LIG L   1      47.243   7.302   2.445  1.00  0.00    -0.388 OA
HETATM   16  H   LIG L   1      47.438   8.001   3.102  1.00  0.00     0.210 HD
ENDBRANCH   3  15
BRANCH   2  17
HETATM   17  O   LIG L   1      45.863   5.382   0.805  1.00  0.00    -0.390 OA
HETATM   18  H   LIG L   1      45.667   4.836   1.596  1.00  0.00     0.210 HD
ENDBRANCH   2  17
BRANCH   6  19
HETATM   19  C   LIG L   1      41.779   8.214   1.321  1.00  0.00     0.198 C 
BRANCH  19  20
HETATM   20  O   LIG L   1      41.336   9.399   1.970  1.00  0.00    -0.398 OA
HETATM   21  H   LIG L   1      41.945   9.576   2.708  1.00  0.00     0.209 HD
ENDBRANCH  19  20
ENDBRANCH   6  19
BRANCH   1  22
HETATM   22  O   LIG L   1      43.306   5.647   1.812  1.00  0.00    -0.390 OA
HETATM   23  H   LIG L   1      42.330   5.674   1.760  1.00  0.00     0.210 HD
ENDBRANCH   1  22
TORSDOF 11
ENDMDL
