REMARK AutoDockVina VirtualScreeningResult  Sun Mar  6 21:57:41 2016
USER  AD>  9 of 9 MODELS
USER  AD>  ligand efficiency  -0.3917
USER  AD>  -4.70,  0.917,  2.861
USER  AD> macro_close_ats: 13
USER  AD> hepi:A:GLY12:N
USER  AD> hepi:A:ILE287:CD1
USER  AD> hepi:A:GLY263:N
USER  AD> hepi:A:SER10:H
USER  AD> hepi:A:ILE287:CB
USER  AD> hepi:A:GLY263:H
USER  AD> hepi:A:HIS266:NE2
USER  AD> hepi:A:GLY263:CA
USER  AD> hepi:A:LYS192:NZ
USER  AD> hepi:A:LYS192:H
USER  AD> hepi:A:GLY12:CA
USER  AD> hepi:A:SER10:OG
USER  AD> hepi:A:GLY12:H

USER  AD> lig_close_ats: 11
USER  AD> h11b_gb_b2_m9_model1: :LIG1:H,O,O,H,H,O,C,O,C,C,H
MODEL 9
REMARK VINA RESULT:      -4.7      0.917      2.861
REMARK  6 active torsions:
REMARK  status: ('A' for Active; 'I' for Inactive)
REMARK    1  A    between atoms: C_1  and  O_12 
REMARK    2  A    between atoms: C_2  and  O_9 
REMARK    3  A    between atoms: C_3  and  O_11 
REMARK    4  A    between atoms: C_4  and  O_10 
REMARK    5  A    between atoms: C_6  and  C_7 
REMARK    6  A    between atoms: C_7  and  O_8 
ROOT
HETATM    1  C   LIG     1      41.288   3.408   1.255  1.00  0.00     0.180 C 
HETATM    2  C   LIG     1      42.534   4.294   1.167  1.00  0.00     0.183 C 
HETATM    3  C   LIG     1      42.269   5.663   1.799  1.00  0.00     0.204 C 
HETATM    4  C   LIG     1      41.013   6.276   1.146  1.00  0.00     0.288 C 
HETATM    5  O   LIG     1      39.898   5.419   1.372  1.00  0.00    -0.349 OA
HETATM    6  C   LIG     1      40.049   4.150   0.723  1.00  0.00     0.179 C 
ENDROOT
BRANCH   6   7
HETATM    7  C   LIG     1      38.782   3.314   0.960  1.00  0.00     0.198 C 
BRANCH   7   8
HETATM    8  O   LIG     1      38.855   2.557   2.163  1.00  0.00    -0.398 OA
HETATM    9  H   LIG     1      38.240   1.798   2.070  1.00  0.00     0.209 HD
ENDBRANCH   7   8
ENDBRANCH   6   7
BRANCH   1  10
HETATM   10  O   LIG     1      41.513   2.196   0.524  1.00  0.00    -0.390 OA
HETATM   11  H   LIG     1      42.247   2.397  -0.095  1.00  0.00     0.210 HD
ENDBRANCH   1  10
BRANCH   2  12
HETATM   12  O   LIG     1      43.617   3.597   1.803  1.00  0.00    -0.390 OA
HETATM   13  H   LIG     1      43.318   2.691   2.011  1.00  0.00     0.210 HD
ENDBRANCH   2  12
BRANCH   4  14
HETATM   14  O   LIG     1      40.724   7.559   1.680  1.00  0.00    -0.369 OA
HETATM   15  H   LIG     1      41.568   7.978   1.922  1.00  0.00     0.212 HD
ENDBRANCH   4  14
BRANCH   3  16
HETATM   16  O   LIG     1      43.420   6.504   1.686  1.00  0.00    -0.388 OA
HETATM   17  H   LIG     1      43.911   6.478   2.528  1.00  0.00     0.210 HD
ENDBRANCH   3  16
TORSDOF 6
ENDMDL
