REMARK AutoDockVina VirtualScreeningResult  Sun Mar  6 21:58:02 2016
USER  AD>  2 of 9 MODELS
USER  AD>  ligand efficiency  -0.2565
USER  AD>  -5.90,  1.275,  1.806
USER  AD> macro_close_ats: 15
USER  AD> hepi:A:GLY263:H
USER  AD> hepi:A:LEU264:H
USER  AD> hepi:A:LYS192:H
USER  AD> hepi:A:LYS192:NZ
USER  AD> hepi:A:MET11:CB
USER  AD> hepi:A:THR262:H
USER  AD> hepi:A:GLY12:H
USER  AD> hepi:A:HIS266:NE2
USER  AD> hepi:A:ASP261:OD1
USER  AD> hepi:A:MET11:H
USER  AD> hepi:A:LEU264:CG
USER  AD> hepi:A:ASP261:CG
USER  AD> hepi:A:MET11:N
USER  AD> hepi:A:LYS192:H
USER  AD> hepi:A:LEU264:CD1

USER  AD> lig_close_ats: 9
USER  AD> h11b_gb10_b2_m2_model1: :LIG1:C,H,H,C,C,C,O,C,O
MODEL 2
REMARK VINA RESULT:      -5.9      1.275      1.806
REMARK  15 active torsions:
REMARK  status: ('A' for Active; 'I' for Inactive)
REMARK    1  A    between atoms: C_1  and  O_23 
REMARK    2  A    between atoms: C_2  and  O_9 
REMARK    3  A    between atoms: C_3  and  O_10 
REMARK    4  A    between atoms: C_4  and  O_11 
REMARK    5  A    between atoms: C_6  and  C_7 
REMARK    6  A    between atoms: C_7  and  O_8 
REMARK    7  A    between atoms: O_11  and  C_12 
REMARK    8  A    between atoms: C_12  and  C_13 
REMARK    9  A    between atoms: C_14  and  C_15 
REMARK   10  A    between atoms: C_15  and  C_16 
REMARK   11  A    between atoms: C_16  and  C_17 
REMARK   12  A    between atoms: C_17  and  C_18 
REMARK   13  A    between atoms: C_18  and  C_19 
REMARK   14  A    between atoms: C_19  and  C_20 
REMARK   15  A    between atoms: C_20  and  C_21 
ROOT
HETATM    1  C   LIG L   1      39.806   3.459   1.330  1.00  0.00     0.180 C 
HETATM    2  C   LIG L   1      40.126   4.882   1.808  1.00  0.00     0.183 C 
HETATM    3  C   LIG L   1      41.288   5.518   1.033  1.00  0.00     0.204 C 
HETATM    4  C   LIG L   1      42.474   4.539   1.104  1.00  0.00     0.291 C 
HETATM    5  O   LIG L   1      42.111   3.299   0.503  1.00  0.00    -0.348 OA
HETATM    6  C   LIG L   1      41.082   2.608   1.213  1.00  0.00     0.179 C 
ENDROOT
BRANCH   4   7
HETATM    7  O   LIG L   1      43.599   5.052   0.395  1.00  0.00    -0.355 OA
BRANCH   7   8
HETATM    8  C   LIG L   1      44.763   5.043   1.209  1.00  0.00     0.198 C 
BRANCH   8   9
HETATM    9  C   LIG L   1      45.027   6.421   1.723  1.00  0.00    -0.005 C 
HETATM   10  C   LIG L   1      46.225   6.767   2.217  1.00  0.00    -0.029 C 
BRANCH  10  11
HETATM   11  C   LIG L   1      46.571   8.135   2.726  1.00  0.00     0.027 C 
BRANCH  11  12
HETATM   12  C   LIG L   1      45.449   8.673   3.618  1.00  0.00     0.004 C 
BRANCH  12  13
HETATM   13  C   LIG L   1      45.952   9.017   5.018  1.00  0.00     0.000 C 
BRANCH  13  14
HETATM   14  C   LIG L   1      47.227   9.859   4.939  1.00  0.00     0.000 C 
BRANCH  14  15
HETATM   15  C   LIG L   1      47.098  11.136   5.765  1.00  0.00     0.000 C 
BRANCH  15  16
HETATM   16  C   LIG L   1      45.636  11.566   5.892  1.00  0.00    -0.000 C 
BRANCH  16  17
HETATM   17  C   LIG L   1      45.311  12.705   4.926  1.00  0.00    -0.005 C 
HETATM   18  C   LIG L   1      44.387  12.243   3.813  1.00  0.00     0.005 C 
ENDBRANCH  16  17
ENDBRANCH  15  16
ENDBRANCH  14  15
ENDBRANCH  13  14
ENDBRANCH  12  13
ENDBRANCH  11  12
ENDBRANCH  10  11
ENDBRANCH   8   9
ENDBRANCH   7   8
ENDBRANCH   4   7
BRANCH   3  19
HETATM   19  O   LIG L   1      41.613   6.801   1.588  1.00  0.00    -0.388 OA
HETATM   20  H   LIG L   1      42.197   7.278   0.976  1.00  0.00     0.210 HD
ENDBRANCH   3  19
BRANCH   2  21
HETATM   21  O   LIG L   1      38.932   5.677   1.751  1.00  0.00    -0.390 OA
HETATM   22  H   LIG L   1      39.160   6.543   1.364  1.00  0.00     0.210 HD
ENDBRANCH   2  21
BRANCH   6  23
HETATM   23  C   LIG L   1      40.833   1.283   0.470  1.00  0.00     0.198 C 
BRANCH  23  24
HETATM   24  O   LIG L   1      40.152   0.298   1.232  1.00  0.00    -0.398 OA
HETATM   25  H   LIG L   1      40.791  -0.387   1.502  1.00  0.00     0.209 HD
ENDBRANCH  23  24
ENDBRANCH   6  23
BRANCH   1  26
HETATM   26  O   LIG L   1      38.912   2.867   2.283  1.00  0.00    -0.390 OA
HETATM   27  H   LIG L   1      39.244   3.137   3.165  1.00  0.00     0.210 HD
ENDBRANCH   1  26
TORSDOF 15
ENDMDL
