REMARK AutoDockVina VirtualScreeningResult  Sun Mar  6 21:57:41 2016
USER  AD>  7 of 9 MODELS
USER  AD>  ligand efficiency  -0.4000
USER  AD>  -4.80, 11.392, 13.707
USER  AD> macro_close_ats: 9
USER  AD> hepi:A:MET242:O
USER  AD> hepi:A:MET242:N
USER  AD> hepi:A:MET242:C
USER  AD> hepi:A:MET242:H
USER  AD> hepi:A:TRP217:H
USER  AD> hepi:A:GLY218:CA
USER  AD> hepi:A:TRP217:C
USER  AD> hepi:A:TRP217:CA
USER  AD> hepi:A:LEU264:CD1

USER  AD> lig_close_ats: 8
USER  AD> h11b_gb_b2_m7_model1: :LIG1:O,O,H,H,C,C,H,C
MODEL 7
REMARK VINA RESULT:      -4.8     11.392     13.707
REMARK  6 active torsions:
REMARK  status: ('A' for Active; 'I' for Inactive)
REMARK    1  A    between atoms: C_1  and  O_12 
REMARK    2  A    between atoms: C_2  and  O_9 
REMARK    3  A    between atoms: C_3  and  O_11 
REMARK    4  A    between atoms: C_4  and  O_10 
REMARK    5  A    between atoms: C_6  and  C_7 
REMARK    6  A    between atoms: C_7  and  O_8 
ROOT
HETATM    1  C   LIG L   1      50.455  12.426   8.568  1.00  0.00     0.180 C 
HETATM    2  C   LIG L   1      49.806  11.690   7.393  1.00  0.00     0.183 C 
HETATM    3  C   LIG L   1      48.616  12.485   6.849  1.00  0.00     0.204 C 
HETATM    4  C   LIG L   1      47.649  12.788   8.013  1.00  0.00     0.288 C 
HETATM    5  O   LIG L   1      48.328  13.556   9.001  1.00  0.00    -0.349 OA
HETATM    6  C   LIG L   1      49.399  12.827   9.614  1.00  0.00     0.179 C 
ENDROOT
BRANCH   6   7
HETATM    7  C   LIG L   1      50.035  13.697  10.709  1.00  0.00     0.198 C 
BRANCH   7   8
HETATM    8  O   LIG L   1      51.139  14.452  10.222  1.00  0.00    -0.398 OA
HETATM    9  H   LIG L   1      51.919  13.857  10.211  1.00  0.00     0.209 HD
ENDBRANCH   7   8
ENDBRANCH   6   7
BRANCH   1  10
HETATM   10  O   LIG L   1      51.463  11.593   9.153  1.00  0.00    -0.390 OA
HETATM   11  H   LIG L   1      52.014  12.194   9.700  1.00  0.00     0.210 HD
ENDBRANCH   1  10
BRANCH   2  12
HETATM   12  O   LIG L   1      50.818  11.470   6.397  1.00  0.00    -0.390 OA
HETATM   13  H   LIG L   1      51.592  11.066   6.832  1.00  0.00     0.210 HD
ENDBRANCH   2  12
BRANCH   4  14
HETATM   14  O   LIG L   1      46.512  13.511   7.568  1.00  0.00    -0.369 OA
HETATM   15  H   LIG L   1      46.363  14.245   8.189  1.00  0.00     0.212 HD
ENDBRANCH   4  14
BRANCH   3  16
HETATM   16  O   LIG L   1      47.986  11.783   5.774  1.00  0.00    -0.388 OA
HETATM   17  H   LIG L   1      47.201  12.286   5.489  1.00  0.00     0.210 HD
ENDBRANCH   3  16
TORSDOF 6
ENDMDL
