REMARK AutoDockVina VirtualScreeningResult  Sun Mar  6 21:56:40 2016
USER  AD>  5 of 9 MODELS
USER  AD>  ligand efficiency  -0.2619
USER  AD>  -5.50, 16.262, 19.822
USER  AD> macro_close_ats: 10
USER  AD> hepi:A:LYS7:H
USER  AD> hepi:A:LYS136:CB
USER  AD> hepi:A:LYS7:H
USER  AD> hepi:A:ARG143:H
USER  AD> hepi:A:LYS136:CE
USER  AD> hepi:A:LYS136:H
USER  AD> hepi:A:ARG120:CA
USER  AD> hepi:A:ALA140:CB
USER  AD> hepi:A:ARG143:H
USER  AD> hepi:A:LYS7:NZ

USER  AD> lig_close_ats: 11
USER  AD> h11b_aa8_b1_m5_model1: :LIG1:C,C,C,O,C,C,O,C,H,C,H
MODEL 5
REMARK VINA RESULT:      -5.5     16.262     19.822
REMARK  13 active torsions:
REMARK  status: ('A' for Active; 'I' for Inactive)
REMARK    1  A    between atoms: C_1  and  O_7 
REMARK    2  A    between atoms: C_2  and  O_10 
REMARK    3  A    between atoms: C_3  and  O_11 
REMARK    4  A    between atoms: C_4  and  O_12 
REMARK    5  A    between atoms: C_6  and  C_8 
REMARK    6  A    between atoms: C_8  and  O_9 
REMARK    7  A    between atoms: O_12  and  C_13 
REMARK    8  A    between atoms: C_13  and  C_14 
REMARK    9  A    between atoms: C_15  and  C_16 
REMARK   10  A    between atoms: C_16  and  C_17 
REMARK   11  A    between atoms: C_17  and  C_18 
REMARK   12  A    between atoms: C_18  and  C_19 
REMARK   13  A    between atoms: C_19  and  C_20 
ROOT
HETATM    1  C   LIG     1      42.250  -5.520  -3.340  1.00  0.00     0.180 C 
HETATM    2  C   LIG     1      40.971  -4.759  -2.960  1.00  0.00     0.183 C 
HETATM    3  C   LIG     1      40.363  -5.398  -1.705  1.00  0.00     0.204 C 
HETATM    4  C   LIG     1      40.062  -6.883  -2.026  1.00  0.00     0.291 C 
HETATM    5  O   LIG     1      41.297  -7.551  -2.359  1.00  0.00    -0.348 OA
HETATM    6  C   LIG     1      41.919  -7.012  -3.541  1.00  0.00     0.179 C 
ENDROOT
BRANCH   4   7
HETATM    7  O   LIG     1      39.130  -7.060  -3.101  1.00  0.00    -0.355 OA
BRANCH   7   8
HETATM    8  C   LIG     1      37.860  -7.466  -2.617  1.00  0.00     0.198 C 
BRANCH   8   9
HETATM    9  C   LIG     1      37.093  -8.146  -3.693  1.00  0.00    -0.005 C 
HETATM   10  C   LIG     1      35.930  -7.599  -4.067  1.00  0.00    -0.029 C 
BRANCH  10  11
HETATM   11  C   LIG     1      35.136  -8.125  -5.222  1.00  0.00     0.027 C 
BRANCH  11  12
HETATM   12  C   LIG     1      34.929  -7.027  -6.243  1.00  0.00     0.004 C 
BRANCH  12  13
HETATM   13  C   LIG     1      35.693  -7.381  -7.502  1.00  0.00     0.000 C 
BRANCH  13  14
HETATM   14  C   LIG     1      37.126  -6.899  -7.409  1.00  0.00    -0.000 C 
BRANCH  14  15
HETATM   15  C   LIG     1      38.076  -7.980  -7.901  1.00  0.00    -0.005 C 
HETATM   16  C   LIG     1      38.937  -8.484  -6.761  1.00  0.00     0.005 C 
ENDBRANCH  14  15
ENDBRANCH  13  14
ENDBRANCH  12  13
ENDBRANCH  11  12
ENDBRANCH  10  11
ENDBRANCH   8   9
ENDBRANCH   7   8
ENDBRANCH   4   7
BRANCH   3  17
HETATM   17  O   LIG     1      39.234  -4.657  -1.226  1.00  0.00    -0.388 OA
HETATM   18  H   LIG     1      38.911  -4.118  -1.976  1.00  0.00     0.210 HD
ENDBRANCH   3  17
BRANCH   2  19
HETATM   19  O   LIG     1      41.250  -3.381  -2.701  1.00  0.00    -0.390 OA
HETATM   20  H   LIG     1      41.349  -3.306  -1.730  1.00  0.00     0.210 HD
ENDBRANCH   2  19
BRANCH   6  21
HETATM   21  C   LIG     1      43.167  -7.844  -3.863  1.00  0.00     0.198 C 
BRANCH  21  22
HETATM   22  O   LIG     1      44.286  -7.017  -4.171  1.00  0.00    -0.398 OA
HETATM   23  H   LIG     1      44.177  -6.176  -3.694  1.00  0.00     0.209 HD
ENDBRANCH  21  22
ENDBRANCH   6  21
BRANCH   1  24
HETATM   24  O   LIG     1      43.199  -5.323  -2.272  1.00  0.00    -0.390 OA
HETATM   25  H   LIG     1      43.914  -4.750  -2.606  1.00  0.00     0.210 HD
ENDBRANCH   1  24
TORSDOF 13
ENDMDL
