REMARK AutoDockVina VirtualScreeningResult  Sun Mar  6 21:58:01 2016
USER  AD>  8 of 9 MODELS
USER  AD>  ligand efficiency  -0.2217
USER  AD>  -5.10,  2.045,  3.568
USER  AD> macro_close_ats: 15
USER  AD> hepi:A:GLY12:H
USER  AD> hepi:A:THR188:H
USER  AD> hepi:A:LEU264:CD1
USER  AD> hepi:A:GLY12:N
USER  AD> hepi:A:MET11:CA
USER  AD> hepi:A:LYS192:H
USER  AD> hepi:A:THR262:OG1
USER  AD> hepi:A:MET11:CE
USER  AD> hepi:A:THR262:H
USER  AD> hepi:A:MET11:H
USER  AD> hepi:A:GLY263:H
USER  AD> hepi:A:MET11:N
USER  AD> hepi:A:THR262:CA
USER  AD> hepi:A:THR187:OG1
USER  AD> hepi:A:MET11:CB

USER  AD> lig_close_ats: 13
USER  AD> h11b_ga10_b2_m8_model1: :LIG1:O,C,C,O,C,O,O,H,C,H,C,C,H
MODEL 8
REMARK VINA RESULT:      -5.1      2.045      3.568
REMARK  15 active torsions:
REMARK  status: ('A' for Active; 'I' for Inactive)
REMARK    1  A    between atoms: C_1  and  O_23 
REMARK    2  A    between atoms: C_2  and  O_9 
REMARK    3  A    between atoms: C_3  and  O_10 
REMARK    4  A    between atoms: C_4  and  O_11 
REMARK    5  A    between atoms: C_6  and  C_7 
REMARK    6  A    between atoms: C_7  and  O_8 
REMARK    7  A    between atoms: O_11  and  C_12 
REMARK    8  A    between atoms: C_12  and  C_13 
REMARK    9  A    between atoms: C_14  and  C_15 
REMARK   10  A    between atoms: C_15  and  C_16 
REMARK   11  A    between atoms: C_16  and  C_17 
REMARK   12  A    between atoms: C_17  and  C_18 
REMARK   13  A    between atoms: C_18  and  C_19 
REMARK   14  A    between atoms: C_19  and  C_20 
REMARK   15  A    between atoms: C_20  and  C_21 
ROOT
HETATM    1  C   LIG L   1      42.763   6.776   1.278  1.00  0.00     0.180 C 
HETATM    2  C   LIG L   1      42.290   8.107   1.881  1.00  0.00     0.183 C 
HETATM    3  C   LIG L   1      43.294   9.211   1.574  1.00  0.00     0.204 C 
HETATM    4  C   LIG L   1      44.670   8.792   2.122  1.00  0.00     0.291 C 
HETATM    5  O   LIG L   1      45.089   7.598   1.446  1.00  0.00    -0.348 OA
HETATM    6  C   LIG L   1      44.227   6.469   1.667  1.00  0.00     0.179 C 
ENDROOT
BRANCH   4   7
HETATM    7  O   LIG L   1      44.665   8.562   3.535  1.00  0.00    -0.355 OA
BRANCH   7   8
HETATM    8  C   LIG L   1      45.984   8.409   4.052  1.00  0.00     0.198 C 
BRANCH   8   9
HETATM    9  C   LIG L   1      46.365   9.664   4.775  1.00  0.00    -0.005 C 
HETATM   10  C   LIG L   1      45.462  10.456   5.372  1.00  0.00    -0.029 C 
BRANCH  10  11
HETATM   11  C   LIG L   1      45.790  11.746   6.067  1.00  0.00     0.027 C 
BRANCH  11  12
HETATM   12  C   LIG L   1      45.793  12.915   5.076  1.00  0.00     0.004 C 
BRANCH  12  13
HETATM   13  C   LIG L   1      47.193  13.183   4.528  1.00  0.00     0.000 C 
BRANCH  13  14
HETATM   14  C   LIG L   1      47.281  12.827   3.042  1.00  0.00     0.000 C 
BRANCH  14  15
HETATM   15  C   LIG L   1      47.264  14.084   2.174  1.00  0.00     0.000 C 
BRANCH  15  16
HETATM   16  C   LIG L   1      45.889  14.309   1.541  1.00  0.00    -0.000 C 
BRANCH  16  17
HETATM   17  C   LIG L   1      45.113  12.998   1.432  1.00  0.00    -0.005 C 
HETATM   18  C   LIG L   1      44.615  12.759   0.017  1.00  0.00     0.005 C 
ENDBRANCH  16  17
ENDBRANCH  15  16
ENDBRANCH  14  15
ENDBRANCH  13  14
ENDBRANCH  12  13
ENDBRANCH  11  12
ENDBRANCH  10  11
ENDBRANCH   8   9
ENDBRANCH   7   8
ENDBRANCH   4   7
BRANCH   3  19
HETATM   19  O   LIG L   1      42.818  10.455   2.098  1.00  0.00    -0.388 OA
HETATM   20  H   LIG L   1      43.021  10.419   3.056  1.00  0.00     0.210 HD
ENDBRANCH   3  19
BRANCH   2  21
HETATM   21  O   LIG L   1      41.017   8.509   1.343  1.00  0.00    -0.390 OA
HETATM   22  H   LIG L   1      40.854   9.427   1.634  1.00  0.00     0.210 HD
ENDBRANCH   2  21
BRANCH   6  23
HETATM   23  C   LIG L   1      44.812   5.308   0.839  1.00  0.00     0.198 C 
BRANCH  23  24
HETATM   24  O   LIG L   1      44.453   4.021   1.318  1.00  0.00    -0.398 OA
HETATM   25  H   LIG L   1      45.087   3.766   2.007  1.00  0.00     0.209 HD
ENDBRANCH  23  24
ENDBRANCH   6  23
BRANCH   1  26
HETATM   26  O   LIG L   1      41.848   5.752   1.683  1.00  0.00    -0.390 OA
HETATM   27  H   LIG L   1      41.145   6.158   2.220  1.00  0.00     0.210 HD
ENDBRANCH   1  26
TORSDOF 15
ENDMDL
