REMARK AutoDockVina VirtualScreeningResult  Sun Mar  6 21:57:42 2016
USER  AD>  3 of 9 MODELS
USER  AD>  ligand efficiency  -0.3769
USER  AD>  -4.90, 10.812, 12.337
USER  AD> macro_close_ats: 9
USER  AD> hepi:A:ARG120:CD
USER  AD> hepi:A:THR144:H
USER  AD> hepi:A:LYS7:H
USER  AD> hepi:A:ALA93:O
USER  AD> hepi:A:ALA140:CB
USER  AD> hepi:A:LYS7:NZ
USER  AD> hepi:A:ALA93:C
USER  AD> hepi:A:LYS7:H
USER  AD> hepi:A:MET114:CE

USER  AD> lig_close_ats: 9
USER  AD> h11b_gam_b2_m3_model1: :LIG1:C,C,C,H,H,O,O,O,C
MODEL 3
REMARK VINA RESULT:      -4.9     10.812     12.337
REMARK  6 active torsions:
REMARK  status: ('A' for Active; 'I' for Inactive)
REMARK    1  A    between atoms: C_1  and  O_13 
REMARK    2  A    between atoms: C_2  and  O_9 
REMARK    3  A    between atoms: C_3  and  O_10 
REMARK    4  A    between atoms: C_4  and  O_11 
REMARK    5  A    between atoms: C_6  and  C_7 
REMARK    6  A    between atoms: C_7  and  O_8 
ROOT
HETATM    1  C   LIG     1      42.300  -7.358  -3.841  1.00  0.00     0.180 C 
HETATM    2  C   LIG     1      43.705  -7.768  -3.385  1.00  0.00     0.183 C 
HETATM    3  C   LIG     1      43.638  -8.589  -2.098  1.00  0.00     0.204 C 
HETATM    4  C   LIG     1      42.859  -7.795  -1.029  1.00  0.00     0.290 C 
HETATM    5  O   LIG     1      41.521  -7.577  -1.515  1.00  0.00    -0.349 OA
HETATM    6  C   LIG     1      41.504  -6.737  -2.676  1.00  0.00     0.179 C 
ENDROOT
BRANCH   6   7
HETATM    7  C   LIG     1      40.043  -6.505  -3.083  1.00  0.00     0.198 C 
BRANCH   7   8
HETATM    8  O   LIG     1      39.725  -7.268  -4.246  1.00  0.00    -0.398 OA
HETATM    9  H   LIG     1      38.794  -7.068  -4.462  1.00  0.00     0.209 HD
ENDBRANCH   7   8
ENDBRANCH   6   7
BRANCH   1  10
HETATM   10  O   LIG     1      42.442  -6.461  -4.950  1.00  0.00    -0.390 OA
HETATM   11  H   LIG     1      43.295  -5.990  -4.827  1.00  0.00     0.210 HD
ENDBRANCH   1  10
BRANCH   2  12
HETATM   12  O   LIG     1      44.341  -8.560  -4.407  1.00  0.00    -0.390 OA
HETATM   13  H   LIG     1      45.033  -9.066  -3.935  1.00  0.00     0.210 HD
ENDBRANCH   2  12
BRANCH   4  14
HETATM   14  O   LIG     1      43.427  -6.526  -0.695  1.00  0.00    -0.363 OA
HETATM   15  C   LIG     1      43.901  -6.437   0.639  1.00  0.00     0.204 C 
ENDBRANCH   4  14
BRANCH   3  16
HETATM   16  O   LIG     1      44.957  -8.963  -1.685  1.00  0.00    -0.388 OA
HETATM   17  H   LIG     1      45.269  -8.210  -1.142  1.00  0.00     0.210 HD
ENDBRANCH   3  16
TORSDOF 6
ENDMDL
