REMARK AutoDockVina VirtualScreeningResult  Sun Mar  6 21:57:03 2016
USER  AD>  9 of 9 MODELS
USER  AD>  ligand efficiency  -0.2381
USER  AD>  -5.00, 20.717, 22.805
USER  AD> macro_close_ats: 7
USER  AD> hepi:A:TRP217:H
USER  AD> hepi:A:THR187:C
USER  AD> hepi:A:THR262:OG1
USER  AD> hepi:A:ALA186:O
USER  AD> hepi:A:VAL247:CG1
USER  AD> hepi:A:PRO216:CB
USER  AD> hepi:A:LEU244:CD1

USER  AD> lig_close_ats: 6
USER  AD> h11b_ga8_b1_m9_model1: :LIG1:H,C,O,C,O,C
MODEL 9
REMARK VINA RESULT:      -5.0     20.717     22.805
REMARK  13 active torsions:
REMARK  status: ('A' for Active; 'I' for Inactive)
REMARK    1  A    between atoms: C_1  and  O_21 
REMARK    2  A    between atoms: C_2  and  O_9 
REMARK    3  A    between atoms: C_3  and  O_10 
REMARK    4  A    between atoms: C_4  and  O_11 
REMARK    5  A    between atoms: C_6  and  C_7 
REMARK    6  A    between atoms: C_7  and  O_8 
REMARK    7  A    between atoms: O_11  and  C_12 
REMARK    8  A    between atoms: C_12  and  C_13 
REMARK    9  A    between atoms: C_14  and  C_15 
REMARK   10  A    between atoms: C_15  and  C_16 
REMARK   11  A    between atoms: C_16  and  C_17 
REMARK   12  A    between atoms: C_17  and  C_18 
REMARK   13  A    between atoms: C_18  and  C_19 
ROOT
HETATM    1  C   LIG     1      44.495  12.339   3.534  1.00  0.00     0.180 C 
HETATM    2  C   LIG     1      45.131  11.779   4.817  1.00  0.00     0.183 C 
HETATM    3  C   LIG     1      46.147  12.768   5.375  1.00  0.00     0.204 C 
HETATM    4  C   LIG     1      47.205  13.046   4.290  1.00  0.00     0.291 C 
HETATM    5  O   LIG     1      46.558  13.653   3.164  1.00  0.00    -0.348 OA
HETATM    6  C   LIG     1      45.573  12.816   2.535  1.00  0.00     0.179 C 
ENDROOT
BRANCH   4   7
HETATM    7  O   LIG     1      47.897  11.867   3.864  1.00  0.00    -0.355 OA
BRANCH   7   8
HETATM    8  C   LIG     1      49.253  12.140   3.522  1.00  0.00     0.198 C 
BRANCH   8   9
HETATM    9  C   LIG     1      50.114  11.890   4.721  1.00  0.00    -0.005 C 
HETATM   10  C   LIG     1      51.406  11.531   4.619  1.00  0.00    -0.029 C 
BRANCH  10  11
HETATM   11  C   LIG     1      52.298  11.224   5.787  1.00  0.00     0.027 C 
BRANCH  11  12
HETATM   12  C   LIG     1      51.564  10.359   6.820  1.00  0.00     0.004 C 
BRANCH  12  13
HETATM   13  C   LIG     1      51.350  11.107   8.136  1.00  0.00     0.000 C 
BRANCH  13  14
HETATM   14  C   LIG     1      49.859  11.311   8.414  1.00  0.00    -0.000 C 
BRANCH  14  15
HETATM   15  C   LIG     1      49.512  12.795   8.521  1.00  0.00    -0.005 C 
HETATM   16  C   LIG     1      49.019  13.153   9.915  1.00  0.00     0.005 C 
ENDBRANCH  14  15
ENDBRANCH  13  14
ENDBRANCH  12  13
ENDBRANCH  11  12
ENDBRANCH  10  11
ENDBRANCH   8   9
ENDBRANCH   7   8
ENDBRANCH   4   7
BRANCH   3  17
HETATM   17  O   LIG     1      46.691  12.263   6.597  1.00  0.00    -0.388 OA
HETATM   18  H   LIG     1      47.554  12.717   6.697  1.00  0.00     0.210 HD
ENDBRANCH   3  17
BRANCH   2  19
HETATM   19  O   LIG     1      44.148  11.535   5.841  1.00  0.00    -0.390 OA
HETATM   20  H   LIG     1      44.623  11.246   6.643  1.00  0.00     0.210 HD
ENDBRANCH   2  19
BRANCH   6  21
HETATM   21  C   LIG     1      44.968  13.645   1.385  1.00  0.00     0.198 C 
BRANCH  21  22
HETATM   22  O   LIG     1      43.741  14.280   1.713  1.00  0.00    -0.398 OA
HETATM   23  H   LIG     1      43.689  15.114   1.217  1.00  0.00     0.209 HD
ENDBRANCH  21  22
ENDBRANCH   6  21
BRANCH   1  24
HETATM   24  O   LIG     1      43.630  11.339   2.986  1.00  0.00    -0.390 OA
HETATM   25  H   LIG     1      43.448  10.672   3.671  1.00  0.00     0.210 HD
ENDBRANCH   1  24
TORSDOF 13
ENDMDL
