REMARK AutoDockVina VirtualScreeningResult  Sun Mar  6 21:58:14 2016
USER  AD>  2 of 9 MODELS
USER  AD>  ligand efficiency  -0.3769
USER  AD>  -4.90,  9.328, 11.708
USER  AD> macro_close_ats: 11
USER  AD> hepi:A:ARG120:CB
USER  AD> hepi:A:ARG143:NH1
USER  AD> hepi:A:LYS7:NZ
USER  AD> hepi:A:ALA93:O
USER  AD> hepi:A:LYS7:H
USER  AD> hepi:A:LYS7:H
USER  AD> hepi:A:ARG120:H
USER  AD> hepi:A:ARG143:H
USER  AD> hepi:A:LYS7:H
USER  AD> hepi:A:MET114:CE
USER  AD> hepi:A:GLN94:C

USER  AD> lig_close_ats: 8
USER  AD> h11b_abm_b3_m2_model1: :LIG1:O,H,C,O,O,H,H,C
MODEL 2
REMARK VINA RESULT:      -4.9      9.328     11.708
REMARK  6 active torsions:
REMARK  status: ('A' for Active; 'I' for Inactive)
REMARK    1  A    between atoms: C_1  and  O_7 
REMARK    2  A    between atoms: C_2  and  O_10 
REMARK    3  A    between atoms: C_3  and  O_12 
REMARK    4  A    between atoms: C_4  and  O_11 
REMARK    5  A    between atoms: C_6  and  C_8 
REMARK    6  A    between atoms: C_8  and  O_9 
ROOT
HETATM    1  C   LIG     1      43.249  -6.177  -4.604  1.00  0.00     0.180 C 
HETATM    2  C   LIG     1      42.396  -5.316  -3.672  1.00  0.00     0.183 C 
HETATM    3  C   LIG     1      42.031  -6.070  -2.389  1.00  0.00     0.204 C 
HETATM    4  C   LIG     1      41.479  -7.474  -2.717  1.00  0.00     0.290 C 
HETATM    5  O   LIG     1      42.330  -8.186  -3.625  1.00  0.00    -0.349 OA
HETATM    6  C   LIG     1      42.511  -7.498  -4.871  1.00  0.00     0.179 C 
ENDROOT
BRANCH   6   7
HETATM    7  C   LIG     1      43.289  -8.405  -5.830  1.00  0.00     0.198 C 
BRANCH   7   8
HETATM    8  O   LIG     1      44.561  -8.740  -5.289  1.00  0.00    -0.398 OA
HETATM    9  H   LIG     1      44.412  -9.319  -4.518  1.00  0.00     0.209 HD
ENDBRANCH   7   8
ENDBRANCH   6   7
BRANCH   1  10
HETATM   10  O   LIG     1      44.515  -6.395  -3.953  1.00  0.00    -0.390 OA
HETATM   11  H   LIG     1      44.534  -7.323  -3.648  1.00  0.00     0.210 HD
ENDBRANCH   1  10
BRANCH   2  12
HETATM   12  O   LIG     1      43.103  -4.117  -3.313  1.00  0.00    -0.390 OA
HETATM   13  H   LIG     1      43.872  -4.415  -2.783  1.00  0.00     0.210 HD
ENDBRANCH   2  12
BRANCH   4  14
HETATM   14  O   LIG     1      41.410  -8.213  -1.495  1.00  0.00    -0.363 OA
HETATM   15  C   LIG     1      42.692  -8.609  -1.035  1.00  0.00     0.204 C 
ENDBRANCH   4  14
BRANCH   3  16
HETATM   16  O   LIG     1      41.061  -5.288  -1.671  1.00  0.00    -0.388 OA
HETATM   17  H   LIG     1      40.323  -5.900  -1.486  1.00  0.00     0.210 HD
ENDBRANCH   3  16
TORSDOF 6
ENDMDL
