REMARK AutoDockVina VirtualScreeningResult  Sun Mar  6 21:58:05 2016
USER  AD>  2 of 9 MODELS
USER  AD>  ligand efficiency  -0.2100
USER  AD>  -8.40,  1.350,  1.607
USER  AD> macro_close_ats: 17
USER  AD> hepi:A:TRP217:C
USER  AD> hepi:A:HIS266:NE2
USER  AD> hepi:A:SER10:CA
USER  AD> hepi:A:GLY263:N
USER  AD> hepi:A:MET11:H
USER  AD> hepi:A:VAL247:CG1
USER  AD> hepi:A:LEU264:CD1
USER  AD> hepi:A:LYS192:H
USER  AD> hepi:A:GLU222:OE2
USER  AD> hepi:A:GLY263:H
USER  AD> hepi:A:GLY218:CA
USER  AD> hepi:A:LEU244:CD1
USER  AD> hepi:A:LYS192:NZ
USER  AD> hepi:A:HIS266:CE1
USER  AD> hepi:A:LYS192:H
USER  AD> hepi:A:GLY263:CA
USER  AD> hepi:A:ASP261:CG

USER  AD> lig_close_ats: 13
USER  AD> h11b_adph_b3_m2_model1: :   1:N,H,O,O,H,O,H,H,H,H,O,C,O
MODEL 2
REMARK VINA RESULT:      -8.4      1.350      1.607
REMARK  19 active torsions:
REMARK  status: ('A' for Active; 'I' for Inactive)
REMARK    1  A    between atoms: C_1  and  C_3 
REMARK    2  A    between atoms: C_1  and  O_13 
REMARK    3  A    between atoms: O_2  and  C_3 
REMARK    4  A    between atoms: C_3  and  C_11 
REMARK    5  A    between atoms: O_4  and  C_5 
REMARK    6  A    between atoms: O_6  and  C_7 
REMARK    7  A    between atoms: O_8  and  C_9 
REMARK    8  A    between atoms: C_12  and  O_40 
REMARK    9  A    between atoms: C_22  and  N_23 
REMARK   10  A    between atoms: C_24  and  O_25 
REMARK   11  A    between atoms: C_26  and  O_27 
REMARK   12  A    between atoms: C_28  and  C_31 
REMARK   13  A    between atoms: C_31  and  O_32 
REMARK   14  A    between atoms: O_32  and  P_33 
REMARK   15  A    between atoms: P_33  and  O_35 
REMARK   16  A    between atoms: P_33  and  O_36 
REMARK   17  A    between atoms: O_36  and  P_37 
REMARK   18  A    between atoms: P_37  and  O_40 
REMARK   19  A    between atoms: P_37  and  O_39 
ROOT
HETATM    1  P           1      44.909   7.943   2.085  0.00  0.00     0.401 P 
HETATM    2  O           1      43.472   7.922   2.465  0.00  0.00    -0.631 OA
ENDROOT
BRANCH   1   3
HETATM    3  O           1      45.412   9.507   2.271  0.00  0.00    -0.294 OA
BRANCH   3   4
HETATM    4  C           1      44.455  10.532   2.361  0.00  0.00     0.215 C 
BRANCH   4   5
HETATM    5  C           1      45.007  11.655   3.231  0.00  0.00     0.180 C 
HETATM    6  C           1      45.866  12.675   2.488  0.00  0.00     0.182 C 
HETATM    7  C           1      47.167  12.690   3.270  0.00  0.00     0.198 C 
HETATM    8  C           1      46.754  12.089   4.600  0.00  0.00     0.262 C 
HETATM    9  N           1      47.855  11.521   5.389  0.00  0.00    -0.294 N 
HETATM   10  O           1      45.801  11.113   4.250  0.00  0.00    -0.353 OA
HETATM   11  C           1      48.543  10.525   5.026  0.00  0.00     0.214 A 
HETATM   12  C           1      48.218  11.956   6.518  0.00  0.00     0.167 A 
HETATM   13  N           1      49.400  10.258   5.918  0.00  0.00    -0.236 NA
HETATM   14  C           1      49.220  11.117   6.835  0.00  0.00     0.149 A 
HETATM   15  C           1      49.861  11.276   8.004  0.00  0.00     0.155 A 
HETATM   16  N           1      49.483  12.222   8.762  0.00  0.00    -0.222 NA
HETATM   17  C           1      48.529  12.964   8.376  0.00  0.00     0.237 A 
HETATM   18  N           1      47.870  12.887   7.297  0.00  0.00    -0.222 NA
BRANCH   6  19
HETATM   19  O           1      45.282  13.954   2.562  0.00  0.00    -0.390 OA
HETATM   20  H           1      45.938  14.636   2.404  0.00  0.00     0.210 HD
ENDBRANCH   6  19
BRANCH   7  21
HETATM   21  O           1      47.668  13.998   3.416  0.00  0.00    -0.388 OA
HETATM   22  H           1      48.491  13.967   3.911  0.00  0.00     0.210 HD
ENDBRANCH   7  21
BRANCH  15  23
HETATM   23  N           1      50.806  10.484   8.297  0.00  0.00    -0.382 N 
HETATM   24  H           1      50.766   9.482   7.991  0.00  0.00     0.157 HD
HETATM   25  H           1      51.632  10.827   8.847  0.00  0.00     0.157 HD
ENDBRANCH  15  23
ENDBRANCH   4   5
ENDBRANCH   3   4
ENDBRANCH   1   3
BRANCH   1  26
HETATM   26  O           1      45.784   7.462   3.365  0.00  0.00    -0.307 OA
HETATM   27  H           1      45.305   7.622   4.158  0.00  0.00     0.222 HD
ENDBRANCH   1  26
BRANCH   1  28
HETATM   28  O           1      45.232   7.355   0.645  0.00  0.00    -0.195 OA
BRANCH  28  29
HETATM   29  P           1      44.822   5.843   0.351  0.00  0.00     0.404 P 
HETATM   30  O           1      45.838   5.109  -0.450  0.00  0.00    -0.631 OA
BRANCH  29  31
HETATM   31  O           1      43.301   5.430  -0.081  0.00  0.00    -0.263 OA
BRANCH  31  32
HETATM   32  C           1      42.403   4.877   0.859  0.00  0.00     0.303 C 
HETATM   33  C           1      41.067   5.581   0.752  0.00  0.00     0.205 C 
HETATM   34  C           1      40.077   4.901   1.679  0.00  0.00     0.183 C 
HETATM   35  C           1      40.011   3.449   1.255  0.00  0.00     0.181 C 
HETATM   36  C           1      41.399   2.819   1.334  0.00  0.00     0.186 C 
HETATM   37  O           1      42.272   3.518   0.485  0.00  0.00    -0.347 OA
BRANCH  33  38
HETATM   38  O           1      41.201   6.923   1.149  0.00  0.00    -0.388 OA
HETATM   39  H           1      41.016   7.483   0.390  0.00  0.00     0.210 HD
ENDBRANCH  33  38
BRANCH  34  40
HETATM   40  O           1      38.811   5.505   1.572  0.00  0.00    -0.390 OA
HETATM   41  H           1      38.518   5.481   0.657  0.00  0.00     0.210 HD
ENDBRANCH  34  40
BRANCH  35  42
HETATM   42  O           1      39.094   2.769   2.073  0.00  0.00    -0.390 OA
HETATM   43  H           1      39.593   2.192   2.657  0.00  0.00     0.210 HD
ENDBRANCH  35  42
BRANCH  36  44
HETATM   44  C           1      41.385   1.330   0.984  0.00  0.00     0.173 C 
BRANCH  44  45
HETATM   45  C           1      40.809   1.004  -0.381  0.00  0.00     0.198 C 
BRANCH  45  46
HETATM   46  O           1      41.811   0.491  -1.233  0.00  0.00    -0.398 OA
HETATM   47  H           1      41.437  -0.201  -1.783  0.00  0.00     0.209 HD
ENDBRANCH  45  46
ENDBRANCH  44  45
BRANCH  44  48
HETATM   48  O           1      40.658   0.607   1.950  0.00  0.00    -0.391 OA
HETATM   49  H           1      40.099   1.219   2.437  0.00  0.00     0.210 HD
ENDBRANCH  44  48
ENDBRANCH  36  44
ENDBRANCH  31  32
ENDBRANCH  29  31
BRANCH  29  50
HETATM   50  O           1      44.717   4.993   1.748  0.00  0.00    -0.307 OA
HETATM   51  H           1      44.630   5.592   2.469  0.00  0.00     0.222 HD
ENDBRANCH  29  50
ENDBRANCH  28  29
ENDBRANCH   1  28
TORSDOF 19
ENDMDL
