REMARK AutoDockVina VirtualScreeningResult  Sun Mar  6 21:57:59 2016
USER  AD>  8 of 9 MODELS
USER  AD>  ligand efficiency  -0.2476
USER  AD>  -5.20,  2.186,  3.902
USER  AD> macro_close_ats: 14
USER  AD> hepi:A:LYS192:NZ
USER  AD> hepi:A:GLY12:N
USER  AD> hepi:A:LYS192:H
USER  AD> hepi:A:SER10:OG
USER  AD> hepi:A:GLY12:H
USER  AD> hepi:A:GLY263:H
USER  AD> hepi:A:MET11:N
USER  AD> hepi:A:THR187:OG1
USER  AD> hepi:A:GLY263:CA
USER  AD> hepi:A:ALA186:CB
USER  AD> hepi:A:LYS192:H
USER  AD> hepi:A:MET11:CB
USER  AD> hepi:A:SER10:H
USER  AD> hepi:A:THR188:H

USER  AD> lig_close_ats: 10
USER  AD> h11b_gb8y_b2_m8_model1: :LIG1:O,C,H,O,O,C,H,H,O,C
MODEL 8
REMARK VINA RESULT:      -5.2      2.186      3.902
REMARK  14 active torsions:
REMARK  status: ('A' for Active; 'I' for Inactive)
REMARK    1  A    between atoms: C_1  and  O_21 
REMARK    2  A    between atoms: C_2  and  O_9 
REMARK    3  A    between atoms: C_3  and  O_10 
REMARK    4  A    between atoms: C_4  and  O_11 
REMARK    5  A    between atoms: C_6  and  C_7 
REMARK    6  A    between atoms: C_7  and  O_8 
REMARK    7  A    between atoms: O_11  and  C_12 
REMARK    8  A    between atoms: C_12  and  C_13 
REMARK    9  A    between atoms: C_13  and  C_14 
REMARK   10  A    between atoms: C_14  and  C_15 
REMARK   11  A    between atoms: C_15  and  C_16 
REMARK   12  A    between atoms: C_16  and  C_17 
REMARK   13  A    between atoms: C_17  and  C_18 
REMARK   14  A    between atoms: C_18  and  C_19 
ROOT
HETATM    1  C   LIG L   1      41.832   6.598   0.874  1.00  0.00     0.180 C 
HETATM    2  C   LIG L   1      42.577   5.290   0.618  1.00  0.00     0.183 C 
HETATM    3  C   LIG L   1      43.725   5.092   1.613  1.00  0.00     0.204 C 
HETATM    4  C   LIG L   1      44.619   6.346   1.558  1.00  0.00     0.291 C 
HETATM    5  O   LIG L   1      43.858   7.495   1.933  1.00  0.00    -0.348 OA
HETATM    6  C   LIG L   1      42.803   7.782   1.011  1.00  0.00     0.179 C 
ENDROOT
BRANCH   4   7
HETATM    7  O   LIG L   1      45.727   6.212   2.451  1.00  0.00    -0.359 OA
BRANCH   7   8
HETATM    8  C   LIG L   1      46.190   7.495   2.869  1.00  0.00     0.171 C 
BRANCH   8   9
HETATM    9  C   LIG L   1      47.393   7.942   2.046  1.00  0.00     0.026 C 
BRANCH   9  10
HETATM   10  C   LIG L   1      47.529   9.463   2.136  1.00  0.00     0.002 C 
BRANCH  10  11
HETATM   11  C   LIG L   1      46.187  10.186   2.232  1.00  0.00     0.000 C 
BRANCH  11  12
HETATM   12  C   LIG L   1      46.101  10.952   3.555  1.00  0.00     0.000 C 
BRANCH  12  13
HETATM   13  C   LIG L   1      44.736  11.609   3.757  1.00  0.00     0.000 C 
BRANCH  13  14
HETATM   14  C   LIG L   1      44.822  12.728   4.797  1.00  0.00    -0.000 C 
BRANCH  14  15
HETATM   15  C   LIG L   1      45.219  12.191   6.171  1.00  0.00    -0.005 C 
HETATM   16  C   LIG L   1      46.332  13.021   6.790  1.00  0.00     0.005 C 
ENDBRANCH  14  15
ENDBRANCH  13  14
ENDBRANCH  12  13
ENDBRANCH  11  12
ENDBRANCH  10  11
ENDBRANCH   9  10
ENDBRANCH   8   9
ENDBRANCH   7   8
ENDBRANCH   4   7
BRANCH   3  17
HETATM   17  O   LIG L   1      44.402   3.873   1.260  1.00  0.00    -0.388 OA
HETATM   18  H   LIG L   1      44.901   3.558   2.030  1.00  0.00     0.210 HD
ENDBRANCH   3  17
BRANCH   2  19
HETATM   19  O   LIG L   1      41.631   4.212   0.695  1.00  0.00    -0.390 OA
HETATM   20  H   LIG L   1      42.084   3.419   0.341  1.00  0.00     0.210 HD
ENDBRANCH   2  19
BRANCH   6  21
HETATM   21  C   LIG L   1      42.041   9.027   1.497  1.00  0.00     0.198 C 
BRANCH  21  22
HETATM   22  O   LIG L   1      40.697   8.718   1.852  1.00  0.00    -0.398 OA
HETATM   23  H   LIG L   1      40.625   7.742   1.896  1.00  0.00     0.209 HD
ENDBRANCH  21  22
ENDBRANCH   6  21
BRANCH   1  24
HETATM   24  O   LIG L   1      40.910   6.837  -0.200  1.00  0.00    -0.390 OA
HETATM   25  H   LIG L   1      40.608   7.763  -0.079  1.00  0.00     0.210 HD
ENDBRANCH   1  24
TORSDOF 14
ENDMDL
