REMARK AutoDockVina VirtualScreeningResult  Sun Mar  6 21:58:43 2016
USER  AD>  4 of 9 MODELS
USER  AD>  ligand efficiency  -0.2750
USER  AD>  -5.50,  3.796,  8.311
USER  AD> macro_close_ats: 14
USER  AD> hepi:A:MET11:CB
USER  AD> hepi:A:GLY263:H
USER  AD> hepi:A:MET11:N
USER  AD> hepi:A:ASP261:CG
USER  AD> hepi:A:MET11:H
USER  AD> hepi:A:GLY12:N
USER  AD> hepi:A:GLY12:H
USER  AD> hepi:A:ASP261:OD2
USER  AD> hepi:A:SER10:C
USER  AD> hepi:A:LYS192:NZ
USER  AD> hepi:A:ILE287:CD1
USER  AD> hepi:A:LYS192:H
USER  AD> hepi:A:MET11:CA
USER  AD> hepi:A:ILE287:CA

USER  AD> lig_close_ats: 8
USER  AD> h11b_gb7_b3_m4_model1: :LIG1:C,H,H,O,C,H,H,O
MODEL 4
REMARK VINA RESULT:      -5.5      3.796      8.311
REMARK  12 active torsions:
REMARK  status: ('A' for Active; 'I' for Inactive)
REMARK    1  A    between atoms: C_1  and  O_20 
REMARK    2  A    between atoms: C_2  and  O_9 
REMARK    3  A    between atoms: C_3  and  O_10 
REMARK    4  A    between atoms: C_4  and  O_11 
REMARK    5  A    between atoms: C_6  and  C_7 
REMARK    6  A    between atoms: C_7  and  O_8 
REMARK    7  A    between atoms: O_11  and  C_12 
REMARK    8  A    between atoms: C_12  and  C_13 
REMARK    9  A    between atoms: C_14  and  C_15 
REMARK   10  A    between atoms: C_15  and  C_16 
REMARK   11  A    between atoms: C_16  and  C_17 
REMARK   12  A    between atoms: C_17  and  C_18 
ROOT
HETATM    1  C   LIG     1      41.357   5.484   1.553  1.00  0.00     0.180 C 
HETATM    2  C   LIG     1      40.021   5.088   0.934  1.00  0.00     0.183 C 
HETATM    3  C   LIG     1      39.888   3.575   0.765  1.00  0.00     0.204 C 
HETATM    4  C   LIG     1      41.120   3.010   0.017  1.00  0.00     0.291 C 
HETATM    5  O   LIG     1      42.331   3.432   0.671  1.00  0.00    -0.348 OA
HETATM    6  C   LIG     1      42.493   4.848   0.739  1.00  0.00     0.179 C 
ENDROOT
BRANCH   4   7
HETATM    7  O   LIG     1      41.177   1.582   0.007  1.00  0.00    -0.355 OA
BRANCH   7   8
HETATM    8  C   LIG     1      41.552   0.929   1.214  1.00  0.00     0.198 C 
BRANCH   8   9
HETATM    9  C   LIG     1      40.575  -0.137   1.618  1.00  0.00    -0.005 C 
HETATM   10  C   LIG     1      40.174  -1.141   0.822  1.00  0.00    -0.029 C 
BRANCH  10  11
HETATM   11  C   LIG     1      39.191  -2.201   1.236  1.00  0.00     0.027 C 
BRANCH  11  12
HETATM   12  C   LIG     1      38.916  -3.192   0.103  1.00  0.00     0.004 C 
BRANCH  12  13
HETATM   13  C   LIG     1      39.984  -3.088  -0.989  1.00  0.00    -0.000 C 
BRANCH  13  14
HETATM   14  C   LIG     1      40.315  -4.456  -1.586  1.00  0.00    -0.005 C 
HETATM   15  C   LIG     1      39.095  -5.364  -1.599  1.00  0.00     0.005 C 
ENDBRANCH  13  14
ENDBRANCH  12  13
ENDBRANCH  11  12
ENDBRANCH  10  11
ENDBRANCH   8   9
ENDBRANCH   7   8
ENDBRANCH   4   7
BRANCH   3  16
HETATM   16  O   LIG     1      38.655   3.347   0.059  1.00  0.00    -0.388 OA
HETATM   17  H   LIG     1      38.161   2.714   0.620  1.00  0.00     0.210 HD
ENDBRANCH   3  16
BRANCH   2  18
HETATM   18  O   LIG     1      38.937   5.570   1.749  1.00  0.00    -0.390 OA
HETATM   19  H   LIG     1      38.132   5.384   1.224  1.00  0.00     0.210 HD
ENDBRANCH   2  18
BRANCH   6  20
HETATM   20  C   LIG     1      43.861   5.132   1.377  1.00  0.00     0.198 C 
BRANCH  20  21
HETATM   21  O   LIG     1      44.613   3.930   1.532  1.00  0.00    -0.398 OA
HETATM   22  H   LIG     1      45.553   4.190   1.517  1.00  0.00     0.209 HD
ENDBRANCH  20  21
ENDBRANCH   6  20
BRANCH   1  23
HETATM   23  O   LIG     1      41.417   6.916   1.566  1.00  0.00    -0.390 OA
HETATM   24  H   LIG     1      42.305   7.153   1.915  1.00  0.00     0.210 HD
ENDBRANCH   1  23
TORSDOF 12
ENDMDL
