REMARK AutoDockVina VirtualScreeningResult  Sun Mar  6 21:58:41 2016
USER  AD>  7 of 9 MODELS
USER  AD>  ligand efficiency  -0.2789
USER  AD>  -5.30, 24.721, 27.482
USER  AD> macro_close_ats: 11
USER  AD> hepi:A:GLY232:N
USER  AD> hepi:A:ALA230:C
USER  AD> hepi:A:ALA230:O
USER  AD> hepi:A:PHE233:O
USER  AD> hepi:A:LYS227:CG
USER  AD> hepi:A:VAL238:CG2
USER  AD> hepi:A:PHE233:N
USER  AD> hepi:A:PHE233:C
USER  AD> hepi:A:PHE233:H
USER  AD> hepi:A:GLY232:H
USER  AD> hepi:A:VAL236:O

USER  AD> lig_close_ats: 9
USER  AD> h11b_gb6_b3_m7_model1: :LIG1:H,H,O,H,C,C,O,H,O
MODEL 7
REMARK VINA RESULT:      -5.3     24.721     27.482
REMARK  11 active torsions:
REMARK  status: ('A' for Active; 'I' for Inactive)
REMARK    1  A    between atoms: C_1  and  O_19 
REMARK    2  A    between atoms: C_2  and  O_9 
REMARK    3  A    between atoms: C_3  and  O_10 
REMARK    4  A    between atoms: C_4  and  O_11 
REMARK    5  A    between atoms: C_6  and  C_7 
REMARK    6  A    between atoms: C_7  and  O_8 
REMARK    7  A    between atoms: O_11  and  C_12 
REMARK    8  A    between atoms: C_12  and  C_13 
REMARK    9  A    between atoms: C_14  and  C_15 
REMARK   10  A    between atoms: C_15  and  C_16 
REMARK   11  A    between atoms: C_16  and  C_17 
ROOT
HETATM    1  C   LIG     1      42.644  26.878  20.594  1.00  0.00     0.180 C 
HETATM    2  C   LIG     1      43.240  25.470  20.434  1.00  0.00     0.183 C 
HETATM    3  C   LIG     1      44.709  25.567  20.039  1.00  0.00     0.204 C 
HETATM    4  C   LIG     1      44.809  26.372  18.730  1.00  0.00     0.291 C 
HETATM    5  O   LIG     1      44.324  27.700  18.973  1.00  0.00    -0.348 OA
HETATM    6  C   LIG     1      42.939  27.755  19.356  1.00  0.00     0.179 C 
ENDROOT
BRANCH   4   7
HETATM    7  O   LIG     1      44.074  25.785  17.650  1.00  0.00    -0.355 OA
BRANCH   7   8
HETATM    8  C   LIG     1      44.441  26.344  16.392  1.00  0.00     0.198 C 
BRANCH   8   9
HETATM    9  C   LIG     1      45.858  25.966  16.082  1.00  0.00    -0.005 C 
HETATM   10  C   LIG     1      46.735  26.839  15.567  1.00  0.00    -0.029 C 
BRANCH  10  11
HETATM   11  C   LIG     1      48.154  26.511  15.196  1.00  0.00     0.027 C 
BRANCH  11  12
HETATM   12  C   LIG     1      48.269  25.059  14.718  1.00  0.00     0.003 C 
BRANCH  12  13
HETATM   13  C   LIG     1      49.316  24.278  15.509  1.00  0.00    -0.004 C 
HETATM   14  C   LIG     1      50.125  23.364  14.601  1.00  0.00     0.005 C 
ENDBRANCH  12  13
ENDBRANCH  11  12
ENDBRANCH  10  11
ENDBRANCH   8   9
ENDBRANCH   7   8
ENDBRANCH   4   7
BRANCH   3  15
HETATM   15  O   LIG     1      45.276  24.256  19.957  1.00  0.00    -0.388 OA
HETATM   16  H   LIG     1      44.791  23.726  20.624  1.00  0.00     0.210 HD
ENDBRANCH   3  15
BRANCH   2  17
HETATM   17  O   LIG     1      43.161  24.703  21.649  1.00  0.00    -0.390 OA
HETATM   18  H   LIG     1      42.227  24.684  21.931  1.00  0.00     0.210 HD
ENDBRANCH   2  17
BRANCH   6  19
HETATM   19  C   LIG     1      42.617  29.241  19.608  1.00  0.00     0.198 C 
BRANCH  19  20
HETATM   20  O   LIG     1      41.238  29.508  19.810  1.00  0.00    -0.398 OA
HETATM   21  H   LIG     1      41.001  29.227  20.709  1.00  0.00     0.209 HD
ENDBRANCH  19  20
ENDBRANCH   6  19
BRANCH   1  22
HETATM   22  O   LIG     1      41.245  26.755  20.865  1.00  0.00    -0.390 OA
HETATM   23  H   LIG     1      40.891  26.009  20.349  1.00  0.00     0.210 HD
ENDBRANCH   1  22
TORSDOF 11
ENDMDL
