REMARK AutoDockVina VirtualScreeningResult  Sun Mar  6 21:57:02 2016
USER  AD>  1 of 9 MODELS
USER  AD>  ligand efficiency  -0.2571
USER  AD>  -5.40,  0.000,  0.000
USER  AD> macro_close_ats: 18
USER  AD> hepi:A:ARG120:N
USER  AD> hepi:A:THR144:OG1
USER  AD> hepi:A:LYS7:NZ
USER  AD> hepi:A:ARG143:NH1
USER  AD> hepi:A:ARG120:H
USER  AD> hepi:A:ARG143:H
USER  AD> hepi:A:ALA140:CB
USER  AD> hepi:A:ARG120:CD
USER  AD> hepi:A:ARG143:H
USER  AD> hepi:A:THR144:H
USER  AD> hepi:A:LYS7:H
USER  AD> hepi:A:ALA93:O
USER  AD> hepi:A:ARG120:CB
USER  AD> hepi:A:LYS7:H
USER  AD> hepi:A:LYS136:CB
USER  AD> hepi:A:ALA140:O
USER  AD> hepi:A:ALA93:C
USER  AD> hepi:A:MET114:CE

USER  AD> lig_close_ats: 13
USER  AD> h11b_ga8_b1_m1_model1: :LIG1:C,C,C,O,O,O,H,C,C,C,C,H,H
MODEL 1
REMARK VINA RESULT:      -5.4      0.000      0.000
REMARK  13 active torsions:
REMARK  status: ('A' for Active; 'I' for Inactive)
REMARK    1  A    between atoms: C_1  and  O_21 
REMARK    2  A    between atoms: C_2  and  O_9 
REMARK    3  A    between atoms: C_3  and  O_10 
REMARK    4  A    between atoms: C_4  and  O_11 
REMARK    5  A    between atoms: C_6  and  C_7 
REMARK    6  A    between atoms: C_7  and  O_8 
REMARK    7  A    between atoms: O_11  and  C_12 
REMARK    8  A    between atoms: C_12  and  C_13 
REMARK    9  A    between atoms: C_14  and  C_15 
REMARK   10  A    between atoms: C_15  and  C_16 
REMARK   11  A    between atoms: C_16  and  C_17 
REMARK   12  A    between atoms: C_17  and  C_18 
REMARK   13  A    between atoms: C_18  and  C_19 
ROOT
HETATM    1  C   LIG     1      43.283  -8.403  -3.831  1.00  0.00     0.180 C 
HETATM    2  C   LIG     1      43.845  -8.184  -2.418  1.00  0.00     0.183 C 
HETATM    3  C   LIG     1      42.713  -8.167  -1.398  1.00  0.00     0.204 C 
HETATM    4  C   LIG     1      41.716  -7.062  -1.791  1.00  0.00     0.291 C 
HETATM    5  O   LIG     1      41.161  -7.380  -3.074  1.00  0.00    -0.348 OA
HETATM    6  C   LIG     1      42.130  -7.420  -4.136  1.00  0.00     0.179 C 
ENDROOT
BRANCH   4   7
HETATM    7  O   LIG     1      42.311  -5.760  -1.839  1.00  0.00    -0.355 OA
BRANCH   7   8
HETATM    8  C   LIG     1      41.579  -4.812  -1.066  1.00  0.00     0.198 C 
BRANCH   8   9
HETATM    9  C   LIG     1      40.372  -4.385  -1.841  1.00  0.00    -0.005 C 
HETATM   10  C   LIG     1      39.122  -4.522  -1.363  1.00  0.00    -0.029 C 
BRANCH  10  11
HETATM   11  C   LIG     1      37.878  -4.153  -2.117  1.00  0.00     0.027 C 
BRANCH  11  12
HETATM   12  C   LIG     1      36.985  -5.382  -2.327  1.00  0.00     0.004 C 
BRANCH  12  13
HETATM   13  C   LIG     1      37.790  -6.682  -2.287  1.00  0.00     0.000 C 
BRANCH  13  14
HETATM   14  C   LIG     1      37.682  -7.434  -3.615  1.00  0.00    -0.000 C 
BRANCH  14  15
HETATM   15  C   LIG     1      36.642  -8.550  -3.538  1.00  0.00    -0.005 C 
HETATM   16  C   LIG     1      35.376  -8.185  -4.299  1.00  0.00     0.005 C 
ENDBRANCH  14  15
ENDBRANCH  13  14
ENDBRANCH  12  13
ENDBRANCH  11  12
ENDBRANCH  10  11
ENDBRANCH   8   9
ENDBRANCH   7   8
ENDBRANCH   4   7
BRANCH   3  17
HETATM   17  O   LIG     1      43.252  -8.019  -0.081  1.00  0.00    -0.388 OA
HETATM   18  H   LIG     1      43.279  -8.928   0.285  1.00  0.00     0.210 HD
ENDBRANCH   3  17
BRANCH   2  19
HETATM   19  O   LIG     1      44.764  -9.226  -2.038  1.00  0.00    -0.390 OA
HETATM   20  H   LIG     1      45.655  -8.831  -1.993  1.00  0.00     0.210 HD
ENDBRANCH   2  19
BRANCH   6  21
HETATM   21  C   LIG     1      41.359  -7.811  -5.413  1.00  0.00     0.198 C 
BRANCH  21  22
HETATM   22  O   LIG     1      41.717  -9.081  -5.938  1.00  0.00    -0.398 OA
HETATM   23  H   LIG     1      42.497  -8.965  -6.507  1.00  0.00     0.209 HD
ENDBRANCH  21  22
ENDBRANCH   6  21
BRANCH   1  24
HETATM   24  O   LIG     1      44.361  -8.306  -4.766  1.00  0.00    -0.390 OA
HETATM   25  H   LIG     1      44.566  -9.196  -5.102  1.00  0.00     0.210 HD
ENDBRANCH   1  24
TORSDOF 13
ENDMDL
