REMARK AutoDockVina VirtualScreeningResult  Sun Mar  6 21:58:03 2016
USER  AD>  8 of 9 MODELS
USER  AD>  ligand efficiency  -0.2348
USER  AD>  -5.40,  3.754,  6.432
USER  AD> macro_close_ats: 20
USER  AD> hepi:A:GLY263:H
USER  AD> hepi:A:SER10:CA
USER  AD> hepi:A:GLY12:H
USER  AD> hepi:A:SER10:OG
USER  AD> hepi:A:THR188:CA
USER  AD> hepi:A:SER10:H
USER  AD> hepi:A:THR188:CB
USER  AD> hepi:A:GLU38:CG
USER  AD> hepi:A:PHE41:CE2
USER  AD> hepi:A:THR262:CA
USER  AD> hepi:A:THR188:N
USER  AD> hepi:A:SER10:C
USER  AD> hepi:A:SER10:H
USER  AD> hepi:A:MET11:N
USER  AD> hepi:A:MET11:H
USER  AD> hepi:A:THR187:C
USER  AD> hepi:A:SER10:CB
USER  AD> hepi:A:THR187:OG1
USER  AD> hepi:A:THR188:H
USER  AD> hepi:A:LYS192:H

USER  AD> lig_close_ats: 12
USER  AD> h11b_gb10_b2_m8_model1: :LIG1:C,C,H,H,C,C,O,C,O,O,C,H
MODEL 8
REMARK VINA RESULT:      -5.4      3.754      6.432
REMARK  15 active torsions:
REMARK  status: ('A' for Active; 'I' for Inactive)
REMARK    1  A    between atoms: C_1  and  O_23 
REMARK    2  A    between atoms: C_2  and  O_9 
REMARK    3  A    between atoms: C_3  and  O_10 
REMARK    4  A    between atoms: C_4  and  O_11 
REMARK    5  A    between atoms: C_6  and  C_7 
REMARK    6  A    between atoms: C_7  and  O_8 
REMARK    7  A    between atoms: O_11  and  C_12 
REMARK    8  A    between atoms: C_12  and  C_13 
REMARK    9  A    between atoms: C_14  and  C_15 
REMARK   10  A    between atoms: C_15  and  C_16 
REMARK   11  A    between atoms: C_16  and  C_17 
REMARK   12  A    between atoms: C_17  and  C_18 
REMARK   13  A    between atoms: C_18  and  C_19 
REMARK   14  A    between atoms: C_19  and  C_20 
REMARK   15  A    between atoms: C_20  and  C_21 
ROOT
HETATM    1  C   LIG L   1      42.782   6.644   1.256  1.00  0.00     0.180 C 
HETATM    2  C   LIG L   1      42.299   8.010   1.764  1.00  0.00     0.183 C 
HETATM    3  C   LIG L   1      43.274   9.145   1.422  1.00  0.00     0.204 C 
HETATM    4  C   LIG L   1      44.662   8.726   1.939  1.00  0.00     0.291 C 
HETATM    5  O   LIG L   1      45.072   7.523   1.295  1.00  0.00    -0.348 OA
HETATM    6  C   LIG L   1      44.255   6.399   1.624  1.00  0.00     0.179 C 
ENDROOT
BRANCH   4   7
HETATM    7  O   LIG L   1      45.635   9.727   1.651  1.00  0.00    -0.355 OA
BRANCH   7   8
HETATM    8  C   LIG L   1      45.934   9.763   0.262  1.00  0.00     0.198 C 
BRANCH   8   9
HETATM    9  C   LIG L   1      47.409   9.914   0.070  1.00  0.00    -0.005 C 
HETATM   10  C   LIG L   1      48.209   8.849  -0.072  1.00  0.00    -0.029 C 
BRANCH  10  11
HETATM   11  C   LIG L   1      49.691   8.922  -0.294  1.00  0.00     0.027 C 
BRANCH  11  12
HETATM   12  C   LIG L   1      50.054   8.342  -1.664  1.00  0.00     0.004 C 
BRANCH  12  13
HETATM   13  C   LIG L   1      51.497   7.843  -1.705  1.00  0.00     0.000 C 
BRANCH  13  14
HETATM   14  C   LIG L   1      51.629   6.658  -2.663  1.00  0.00     0.000 C 
BRANCH  14  15
HETATM   15  C   LIG L   1      50.848   6.900  -3.953  1.00  0.00     0.000 C 
BRANCH  15  16
HETATM   16  C   LIG L   1      50.238   5.601  -4.480  1.00  0.00    -0.000 C 
BRANCH  16  17
HETATM   17  C   LIG L   1      49.246   5.012  -3.478  1.00  0.00    -0.005 C 
HETATM   18  C   LIG L   1      47.994   5.865  -3.369  1.00  0.00     0.005 C 
ENDBRANCH  16  17
ENDBRANCH  15  16
ENDBRANCH  14  15
ENDBRANCH  13  14
ENDBRANCH  12  13
ENDBRANCH  11  12
ENDBRANCH  10  11
ENDBRANCH   8   9
ENDBRANCH   7   8
ENDBRANCH   4   7
BRANCH   3  19
HETATM   19  O   LIG L   1      42.828  10.377   2.010  1.00  0.00    -0.388 OA
HETATM   20  H   LIG L   1      42.410  10.926   1.326  1.00  0.00     0.210 HD
ENDBRANCH   3  19
BRANCH   2  21
HETATM   21  O   LIG L   1      40.976   8.257   1.264  1.00  0.00    -0.390 OA
HETATM   22  H   LIG L   1      40.723   9.167   1.506  1.00  0.00     0.210 HD
ENDBRANCH   2  21
BRANCH   6  23
HETATM   23  C   LIG L   1      44.845   5.182   0.889  1.00  0.00     0.198 C 
BRANCH  23  24
HETATM   24  O   LIG L   1      44.460   3.925   1.426  1.00  0.00    -0.398 OA
HETATM   25  H   LIG L   1      44.853   3.219   0.881  1.00  0.00     0.209 HD
ENDBRANCH  23  24
ENDBRANCH   6  23
BRANCH   1  26
HETATM   26  O   LIG L   1      41.956   5.636   1.857  1.00  0.00    -0.390 OA
HETATM   27  H   LIG L   1      42.144   4.809   1.366  1.00  0.00     0.210 HD
ENDBRANCH   1  26
TORSDOF 15
ENDMDL
