REMARK AutoDockVina VirtualScreeningResult  Sun Mar  6 21:57:40 2016
USER  AD>  1 of 9 MODELS
USER  AD>  ligand efficiency  -0.4500
USER  AD>  -5.40,  0.000,  0.000
USER  AD> macro_close_ats: 9
USER  AD> hepi:A:GLY263:H
USER  AD> hepi:A:ASP261:OD2
USER  AD> hepi:A:GLY12:H
USER  AD> hepi:A:THR262:CA
USER  AD> hepi:A:ASP261:CG
USER  AD> hepi:A:LYS192:NZ
USER  AD> hepi:A:LYS192:H
USER  AD> hepi:A:SER10:H
USER  AD> hepi:A:HIS266:NE2

USER  AD> lig_close_ats: 7
USER  AD> h11b_gb_b2_m1_model1: :LIG1:O,H,C,C,O,H,O
MODEL 1
REMARK VINA RESULT:      -5.4      0.000      0.000
REMARK  6 active torsions:
REMARK  status: ('A' for Active; 'I' for Inactive)
REMARK    1  A    between atoms: C_1  and  O_12 
REMARK    2  A    between atoms: C_2  and  O_9 
REMARK    3  A    between atoms: C_3  and  O_11 
REMARK    4  A    between atoms: C_4  and  O_10 
REMARK    5  A    between atoms: C_6  and  C_7 
REMARK    6  A    between atoms: C_7  and  O_8 
ROOT
HETATM    1  C   LIG L   1      40.340   5.237   1.268  1.00  0.00     0.180 C 
HETATM    2  C   LIG L   1      41.406   6.253   1.690  1.00  0.00     0.183 C 
HETATM    3  C   LIG L   1      42.803   5.761   1.301  1.00  0.00     0.204 C 
HETATM    4  C   LIG L   1      43.012   4.349   1.887  1.00  0.00     0.288 C 
HETATM    5  O   LIG L   1      42.028   3.468   1.355  1.00  0.00    -0.349 OA
HETATM    6  C   LIG L   1      40.701   3.826   1.763  1.00  0.00     0.179 C 
ENDROOT
BRANCH   6   7
HETATM    7  C   LIG L   1      39.710   2.793   1.204  1.00  0.00     0.198 C 
BRANCH   7   8
HETATM    8  O   LIG L   1      38.607   2.580   2.078  1.00  0.00    -0.398 OA
HETATM    9  H   LIG L   1      38.717   1.691   2.478  1.00  0.00     0.209 HD
ENDBRANCH   7   8
ENDBRANCH   6   7
BRANCH   1  10
HETATM   10  O   LIG L   1      39.065   5.648   1.777  1.00  0.00    -0.390 OA
HETATM   11  H   LIG L   1      38.440   4.934   1.524  1.00  0.00     0.210 HD
ENDBRANCH   1  10
BRANCH   2  12
HETATM   12  O   LIG L   1      41.081   7.513   1.081  1.00  0.00    -0.390 OA
HETATM   13  H   LIG L   1      41.866   8.090   1.136  1.00  0.00     0.210 HD
ENDBRANCH   2  12
BRANCH   4  14
HETATM   14  O   LIG L   1      44.301   3.843   1.575  1.00  0.00    -0.369 OA
HETATM   15  H   LIG L   1      44.603   4.279   0.760  1.00  0.00     0.212 HD
ENDBRANCH   4  14
BRANCH   3  16
HETATM   16  O   LIG L   1      43.803   6.691   1.725  1.00  0.00    -0.388 OA
HETATM   17  H   LIG L   1      44.644   6.469   1.284  1.00  0.00     0.210 HD
ENDBRANCH   3  16
TORSDOF 6
ENDMDL
