REMARK AutoDockVina VirtualScreeningResult  Sun Mar  6 21:56:53 2016
USER  AD>  3 of 9 MODELS
USER  AD>  ligand efficiency  -0.3846
USER  AD>  -5.00, 10.870, 13.049
USER  AD> macro_close_ats: 18
USER  AD> hepi:A:LYS192:H
USER  AD> hepi:A:SER10:OG
USER  AD> hepi:A:MET11:CB
USER  AD> hepi:A:ASP261:OD1
USER  AD> hepi:A:HIS266:NE2
USER  AD> hepi:A:MET11:N
USER  AD> hepi:A:HIS266:CD2
USER  AD> hepi:A:GLY263:H
USER  AD> hepi:A:MET11:H
USER  AD> hepi:A:LYS192:NZ
USER  AD> hepi:A:THR262:CA
USER  AD> hepi:A:GLY263:N
USER  AD> hepi:A:ASP261:CG
USER  AD> hepi:A:SER10:H
USER  AD> hepi:A:LYS192:H
USER  AD> hepi:A:GLY12:H
USER  AD> hepi:A:ASP261:O
USER  AD> hepi:A:ASP261:C

USER  AD> lig_close_ats: 12
USER  AD> h11b_gbm_b1_m3_model1: :LIG1:C,O,O,H,C,H,C,C,O,H,H,O
MODEL 3
REMARK VINA RESULT:      -5.0     10.870     13.049
REMARK  6 active torsions:
REMARK  status: ('A' for Active; 'I' for Inactive)
REMARK    1  A    between atoms: C_1  and  O_13 
REMARK    2  A    between atoms: C_2  and  O_9 
REMARK    3  A    between atoms: C_3  and  O_11 
REMARK    4  A    between atoms: C_4  and  O_10 
REMARK    5  A    between atoms: C_6  and  C_7 
REMARK    6  A    between atoms: C_7  and  O_8 
ROOT
HETATM    1  C   LIG L   1      40.317   5.393   1.959  1.00  0.00     0.180 C 
HETATM    2  C   LIG L   1      40.513   3.938   1.528  1.00  0.00     0.183 C 
HETATM    3  C   LIG L   1      41.947   3.475   1.770  1.00  0.00     0.204 C 
HETATM    4  C   LIG L   1      42.931   4.490   1.151  1.00  0.00     0.290 C 
HETATM    5  O   LIG L   1      42.701   5.807   1.647  1.00  0.00    -0.349 OA
HETATM    6  C   LIG L   1      41.390   6.283   1.310  1.00  0.00     0.179 C 
ENDROOT
BRANCH   6   7
HETATM    7  C   LIG L   1      41.248   7.741   1.770  1.00  0.00     0.198 C 
BRANCH   7   8
HETATM    8  O   LIG L   1      42.484   8.281   2.224  1.00  0.00    -0.398 OA
HETATM    9  H   LIG L   1      43.036   7.525   2.521  1.00  0.00     0.209 HD
ENDBRANCH   7   8
ENDBRANCH   6   7
BRANCH   1  10
HETATM   10  O   LIG L   1      39.000   5.823   1.594  1.00  0.00    -0.390 OA
HETATM   11  H   LIG L   1      38.787   6.550   2.218  1.00  0.00     0.210 HD
ENDBRANCH   1  10
BRANCH   2  12
HETATM   12  O   LIG L   1      39.591   3.111   2.258  1.00  0.00    -0.390 OA
HETATM   13  H   LIG L   1      39.366   3.624   3.061  1.00  0.00     0.210 HD
ENDBRANCH   2  12
BRANCH   4  14
HETATM   14  O   LIG L   1      44.292   4.083   1.330  1.00  0.00    -0.363 OA
HETATM   15  C   LIG L   1      45.254   5.099   1.086  1.00  0.00     0.204 C 
ENDBRANCH   4  14
BRANCH   3  16
HETATM   16  O   LIG L   1      42.098   2.164   1.199  1.00  0.00    -0.388 OA
HETATM   17  H   LIG L   1      42.699   2.258   0.438  1.00  0.00     0.210 HD
ENDBRANCH   3  16
TORSDOF 6
ENDMDL
