REMARK AutoDockVina VirtualScreeningResult  Sun Mar  6 21:57:12 2016
USER  AD>  9 of 9 MODELS
USER  AD>  ligand efficiency  -0.2348
USER  AD>  -5.40,  2.405,  2.745
USER  AD> macro_close_ats: 14
USER  AD> hepi:A:ASP261:O
USER  AD> hepi:A:LYS192:NZ
USER  AD> hepi:A:ASP13:CG
USER  AD> hepi:A:SER10:OG
USER  AD> hepi:A:ASP261:C
USER  AD> hepi:A:LYS192:H
USER  AD> hepi:A:MET11:CE
USER  AD> hepi:A:GLY12:H
USER  AD> hepi:A:HIS266:NE2
USER  AD> hepi:A:THR187:CA
USER  AD> hepi:A:HIS266:CD2
USER  AD> hepi:A:ASP261:CG
USER  AD> hepi:A:MET11:H
USER  AD> hepi:A:MET11:CB

USER  AD> lig_close_ats: 9
USER  AD> h11b_gb10_b1_m9_model1: :LIG1:O,O,C,C,C,H,C,H,H
MODEL 9
REMARK VINA RESULT:      -5.4      2.405      2.745
REMARK  15 active torsions:
REMARK  status: ('A' for Active; 'I' for Inactive)
REMARK    1  A    between atoms: C_1  and  O_23 
REMARK    2  A    between atoms: C_2  and  O_9 
REMARK    3  A    between atoms: C_3  and  O_10 
REMARK    4  A    between atoms: C_4  and  O_11 
REMARK    5  A    between atoms: C_6  and  C_7 
REMARK    6  A    between atoms: C_7  and  O_8 
REMARK    7  A    between atoms: O_11  and  C_12 
REMARK    8  A    between atoms: C_12  and  C_13 
REMARK    9  A    between atoms: C_14  and  C_15 
REMARK   10  A    between atoms: C_15  and  C_16 
REMARK   11  A    between atoms: C_16  and  C_17 
REMARK   12  A    between atoms: C_17  and  C_18 
REMARK   13  A    between atoms: C_18  and  C_19 
REMARK   14  A    between atoms: C_19  and  C_20 
REMARK   15  A    between atoms: C_20  and  C_21 
ROOT
HETATM    1  C   LIG     1      39.912   3.487   1.355  1.00  0.00     0.180 C 
HETATM    2  C   LIG     1      40.180   4.900   1.892  1.00  0.00     0.183 C 
HETATM    3  C   LIG     1      41.378   5.574   1.208  1.00  0.00     0.204 C 
HETATM    4  C   LIG     1      42.572   4.610   1.326  1.00  0.00     0.291 C 
HETATM    5  O   LIG     1      42.266   3.383   0.670  1.00  0.00    -0.348 OA
HETATM    6  C   LIG     1      41.206   2.658   1.295  1.00  0.00     0.179 C 
ENDROOT
BRANCH   4   7
HETATM    7  O   LIG     1      43.731   5.158   0.703  1.00  0.00    -0.355 OA
BRANCH   7   8
HETATM    8  C   LIG     1      44.807   5.258   1.626  1.00  0.00     0.198 C 
BRANCH   8   9
HETATM    9  C   LIG     1      45.173   6.695   1.816  1.00  0.00    -0.005 C 
HETATM   10  C   LIG     1      46.323   7.053   2.404  1.00  0.00    -0.029 C 
BRANCH  10  11
HETATM   11  C   LIG     1      46.769   8.470   2.606  1.00  0.00     0.027 C 
BRANCH  11  12
HETATM   12  C   LIG     1      46.501   8.914   4.047  1.00  0.00     0.004 C 
BRANCH  12  13
HETATM   13  C   LIG     1      45.531  10.091   4.107  1.00  0.00     0.000 C 
BRANCH  13  14
HETATM   14  C   LIG     1      45.280  10.654   2.708  1.00  0.00     0.000 C 
BRANCH  14  15
HETATM   15  C   LIG     1      44.038  11.542   2.683  1.00  0.00     0.000 C 
BRANCH  15  16
HETATM   16  C   LIG     1      44.399  12.984   2.327  1.00  0.00    -0.000 C 
BRANCH  16  17
HETATM   17  C   LIG     1      44.613  13.144   0.822  1.00  0.00    -0.005 C 
HETATM   18  C   LIG     1      44.041  14.457   0.316  1.00  0.00     0.005 C 
ENDBRANCH  16  17
ENDBRANCH  15  16
ENDBRANCH  14  15
ENDBRANCH  13  14
ENDBRANCH  12  13
ENDBRANCH  11  12
ENDBRANCH  10  11
ENDBRANCH   8   9
ENDBRANCH   7   8
ENDBRANCH   4   7
BRANCH   3  19
HETATM   19  O   LIG     1      41.648   6.845   1.818  1.00  0.00    -0.388 OA
HETATM   20  H   LIG     1      42.546   7.130   1.583  1.00  0.00     0.210 HD
ENDBRANCH   3  19
BRANCH   2  21
HETATM   21  O   LIG     1      38.980   5.680   1.782  1.00  0.00    -0.390 OA
HETATM   22  H   LIG     1      39.130   6.536   2.224  1.00  0.00     0.210 HD
ENDBRANCH   2  21
BRANCH   6  23
HETATM   23  C   LIG     1      41.024   1.351   0.501  1.00  0.00     0.198 C 
BRANCH  23  24
HETATM   24  O   LIG     1      42.118   0.450   0.589  1.00  0.00    -0.398 OA
HETATM   25  H   LIG     1      42.579   0.433  -0.269  1.00  0.00     0.209 HD
ENDBRANCH  23  24
ENDBRANCH   6  23
BRANCH   1  26
HETATM   26  O   LIG     1      38.970   2.856   2.234  1.00  0.00    -0.390 OA
HETATM   27  H   LIG     1      39.444   2.720   3.080  1.00  0.00     0.210 HD
ENDBRANCH   1  26
TORSDOF 15
ENDMDL
