REMARK AutoDockVina VirtualScreeningResult  Sun Mar  6 21:56:54 2016
USER  AD>  7 of 9 MODELS
USER  AD>  ligand efficiency  -0.3692
USER  AD>  -4.80, 11.065, 12.844
USER  AD> macro_close_ats: 11
USER  AD> hepi:A:LYS192:H
USER  AD> hepi:A:SER10:OG
USER  AD> hepi:A:THR187:OG1
USER  AD> hepi:A:LYS192:NZ
USER  AD> hepi:A:THR262:CA
USER  AD> hepi:A:HIS266:CD2
USER  AD> hepi:A:SER10:H
USER  AD> hepi:A:GLY263:H
USER  AD> hepi:A:GLY12:H
USER  AD> hepi:A:SER10:CB
USER  AD> hepi:A:HIS266:NE2

USER  AD> lig_close_ats: 7
USER  AD> h11b_gbm_b1_m7_model1: :LIG1:H,O,H,O,C,H,O
MODEL 7
REMARK VINA RESULT:      -4.8     11.065     12.844
REMARK  6 active torsions:
REMARK  status: ('A' for Active; 'I' for Inactive)
REMARK    1  A    between atoms: C_1  and  O_13 
REMARK    2  A    between atoms: C_2  and  O_9 
REMARK    3  A    between atoms: C_3  and  O_11 
REMARK    4  A    between atoms: C_4  and  O_10 
REMARK    5  A    between atoms: C_6  and  C_7 
REMARK    6  A    between atoms: C_7  and  O_8 
ROOT
HETATM    1  C   LIG L   1      43.054   5.845   1.312  1.00  0.00     0.180 C 
HETATM    2  C   LIG L   1      43.072   4.397   1.808  1.00  0.00     0.183 C 
HETATM    3  C   LIG L   1      41.908   3.597   1.228  1.00  0.00     0.204 C 
HETATM    4  C   LIG L   1      40.588   4.363   1.458  1.00  0.00     0.290 C 
HETATM    5  O   LIG L   1      40.650   5.683   0.922  1.00  0.00    -0.349 OA
HETATM    6  C   LIG L   1      41.669   6.469   1.557  1.00  0.00     0.179 C 
ENDROOT
BRANCH   6   7
HETATM    7  C   LIG L   1      41.610   7.905   1.019  1.00  0.00     0.198 C 
BRANCH   7   8
HETATM    8  O   LIG L   1      40.718   8.721   1.771  1.00  0.00    -0.398 OA
HETATM    9  H   LIG L   1      41.269   9.356   2.278  1.00  0.00     0.209 HD
ENDBRANCH   7   8
ENDBRANCH   6   7
BRANCH   1  10
HETATM   10  O   LIG L   1      44.080   6.589   1.980  1.00  0.00    -0.390 OA
HETATM   11  H   LIG L   1      43.628   7.383   2.337  1.00  0.00     0.210 HD
ENDBRANCH   1  10
BRANCH   2  12
HETATM   12  O   LIG L   1      44.324   3.797   1.437  1.00  0.00    -0.390 OA
HETATM   13  H   LIG L   1      44.200   3.492   0.514  1.00  0.00     0.210 HD
ENDBRANCH   2  12
BRANCH   4  14
HETATM   14  O   LIG L   1      39.462   3.636   0.954  1.00  0.00    -0.363 OA
HETATM   15  C   LIG L   1      38.620   4.375   0.079  1.00  0.00     0.204 C 
ENDBRANCH   4  14
BRANCH   3  16
HETATM   16  O   LIG L   1      41.895   2.305   1.857  1.00  0.00    -0.388 OA
HETATM   17  H   LIG L   1      42.113   2.448   2.796  1.00  0.00     0.210 HD
ENDBRANCH   3  16
TORSDOF 6
ENDMDL
