REMARK AutoDockVina VirtualScreeningResult  Sun Mar  6 21:57:38 2016
USER  AD>  3 of 9 MODELS
USER  AD>  ligand efficiency  -0.2217
USER  AD>  -5.10,  2.562,  3.705
USER  AD> macro_close_ats: 18
USER  AD> hepi:A:GLY263:H
USER  AD> hepi:A:LYS192:NZ
USER  AD> hepi:A:GLY12:H
USER  AD> hepi:A:LEU244:CD1
USER  AD> hepi:A:LYS192:H
USER  AD> hepi:A:GLY12:N
USER  AD> hepi:A:VAL247:CG1
USER  AD> hepi:A:GLY263:CA
USER  AD> hepi:A:LYS192:H
USER  AD> hepi:A:MET11:H
USER  AD> hepi:A:MET11:CA
USER  AD> hepi:A:SER10:C
USER  AD> hepi:A:MET11:CB
USER  AD> hepi:A:GLY263:N
USER  AD> hepi:A:MET11:N
USER  AD> hepi:A:LEU264:CD1
USER  AD> hepi:A:LEU264:CG
USER  AD> hepi:A:SER10:H

USER  AD> lig_close_ats: 12
USER  AD> h11b_ab10_b2_m3_model1: :LIG1:C,O,H,C,C,O,C,O,C,H,C,C
MODEL 3
REMARK VINA RESULT:      -5.1      2.562      3.705
REMARK  15 active torsions:
REMARK  status: ('A' for Active; 'I' for Inactive)
REMARK    1  A    between atoms: C_1  and  O_7 
REMARK    2  A    between atoms: C_2  and  O_10 
REMARK    3  A    between atoms: C_3  and  O_11 
REMARK    4  A    between atoms: C_4  and  O_12 
REMARK    5  A    between atoms: C_6  and  C_8 
REMARK    6  A    between atoms: C_8  and  O_9 
REMARK    7  A    between atoms: O_12  and  C_13 
REMARK    8  A    between atoms: C_13  and  C_14 
REMARK    9  A    between atoms: C_15  and  C_16 
REMARK   10  A    between atoms: C_16  and  C_17 
REMARK   11  A    between atoms: C_17  and  C_18 
REMARK   12  A    between atoms: C_18  and  C_19 
REMARK   13  A    between atoms: C_19  and  C_20 
REMARK   14  A    between atoms: C_20  and  C_21 
REMARK   15  A    between atoms: C_21  and  C_22 
ROOT
HETATM    1  C   LIG L   1      42.821   5.509   0.714  1.00  0.00     0.180 C 
HETATM    2  C   LIG L   1      44.290   5.083   0.692  1.00  0.00     0.183 C 
HETATM    3  C   LIG L   1      45.213   6.163   1.275  1.00  0.00     0.204 C 
HETATM    4  C   LIG L   1      44.897   7.554   0.665  1.00  0.00     0.291 C 
HETATM    5  O   LIG L   1      43.480   7.816   0.734  1.00  0.00    -0.348 OA
HETATM    6  C   LIG L   1      42.705   6.861   0.003  1.00  0.00     0.179 C 
ENDROOT
BRANCH   4   7
HETATM    7  O   LIG L   1      45.507   8.631   1.381  1.00  0.00    -0.355 OA
BRANCH   7   8
HETATM    8  C   LIG L   1      44.938   8.946   2.645  1.00  0.00     0.198 C 
BRANCH   8   9
HETATM    9  C   LIG L   1      45.944   9.563   3.571  1.00  0.00    -0.005 C 
HETATM   10  C   LIG L   1      45.610  10.268   4.665  1.00  0.00    -0.029 C 
BRANCH  10  11
HETATM   11  C   LIG L   1      46.594  10.938   5.581  1.00  0.00     0.027 C 
BRANCH  11  12
HETATM   12  C   LIG L   1      47.877  10.110   5.698  1.00  0.00     0.004 C 
BRANCH  12  13
HETATM   13  C   LIG L   1      49.118  10.998   5.815  1.00  0.00     0.000 C 
BRANCH  13  14
HETATM   14  C   LIG L   1      50.182  10.342   6.698  1.00  0.00     0.000 C 
BRANCH  14  15
HETATM   15  C   LIG L   1      49.980  10.682   8.175  1.00  0.00     0.000 C 
BRANCH  15  16
HETATM   16  C   LIG L   1      50.999  11.721   8.648  1.00  0.00    -0.000 C 
BRANCH  16  17
HETATM   17  C   LIG L   1      50.317  13.022   9.070  1.00  0.00    -0.005 C 
HETATM   18  C   LIG L   1      48.805  12.864   9.133  1.00  0.00     0.005 C 
ENDBRANCH  16  17
ENDBRANCH  15  16
ENDBRANCH  14  15
ENDBRANCH  13  14
ENDBRANCH  12  13
ENDBRANCH  11  12
ENDBRANCH  10  11
ENDBRANCH   8   9
ENDBRANCH   7   8
ENDBRANCH   4   7
BRANCH   3  19
HETATM   19  O   LIG L   1      46.564   5.739   1.024  1.00  0.00    -0.388 OA
HETATM   20  H   LIG L   1      46.966   6.462   0.499  1.00  0.00     0.210 HD
ENDBRANCH   3  19
BRANCH   2  21
HETATM   21  O   LIG L   1      44.474   3.874   1.449  1.00  0.00    -0.390 OA
HETATM   22  H   LIG L   1      45.426   3.851   1.678  1.00  0.00     0.210 HD
ENDBRANCH   2  21
BRANCH   6  23
HETATM   23  C   LIG L   1      41.260   7.353  -0.081  1.00  0.00     0.198 C 
BRANCH  23  24
HETATM   24  O   LIG L   1      40.874   7.900   1.174  1.00  0.00    -0.398 OA
HETATM   25  H   LIG L   1      41.655   7.867   1.755  1.00  0.00     0.209 HD
ENDBRANCH  23  24
ENDBRANCH   6  23
BRANCH   1  26
HETATM   26  O   LIG L   1      42.416   5.595   2.094  1.00  0.00    -0.390 OA
HETATM   27  H   LIG L   1      43.230   5.567   2.636  1.00  0.00     0.210 HD
ENDBRANCH   1  26
TORSDOF 15
ENDMDL
