REMARK AutoDockVina VirtualScreeningResult  Sun Mar  6 21:58:34 2016
USER  AD>  5 of 9 MODELS
USER  AD>  ligand efficiency  -0.3769
USER  AD>  -4.90,  2.694,  4.974
USER  AD> macro_close_ats: 13
USER  AD> hepi:A:GLY263:CA
USER  AD> hepi:A:SER10:OG
USER  AD> hepi:A:MET11:N
USER  AD> hepi:A:LYS192:NZ
USER  AD> hepi:A:SER10:H
USER  AD> hepi:A:THR188:H
USER  AD> hepi:A:GLY12:H
USER  AD> hepi:A:GLY263:H
USER  AD> hepi:A:LYS192:H
USER  AD> hepi:A:SER10:CA
USER  AD> hepi:A:SER10:C
USER  AD> hepi:A:LYS192:H
USER  AD> hepi:A:MET11:H

USER  AD> lig_close_ats: 8
USER  AD> h11b_gam_b3_m5_model1: :LIG1:C,H,H,C,O,O,H,O
MODEL 5
REMARK VINA RESULT:      -4.9      2.694      4.974
REMARK  6 active torsions:
REMARK  status: ('A' for Active; 'I' for Inactive)
REMARK    1  A    between atoms: C_1  and  O_13 
REMARK    2  A    between atoms: C_2  and  O_9 
REMARK    3  A    between atoms: C_3  and  O_10 
REMARK    4  A    between atoms: C_4  and  O_11 
REMARK    5  A    between atoms: C_6  and  C_7 
REMARK    6  A    between atoms: C_7  and  O_8 
ROOT
HETATM    1  C   LIG L   1      41.760   6.489   0.925  1.00  0.00     0.180 C 
HETATM    2  C   LIG L   1      42.525   5.187   0.664  1.00  0.00     0.183 C 
HETATM    3  C   LIG L   1      43.658   5.013   1.674  1.00  0.00     0.204 C 
HETATM    4  C   LIG L   1      44.560   6.264   1.646  1.00  0.00     0.290 C 
HETATM    5  O   LIG L   1      43.765   7.402   2.027  1.00  0.00    -0.349 OA
HETATM    6  C   LIG L   1      42.732   7.677   1.071  1.00  0.00     0.179 C 
ENDROOT
BRANCH   6   7
HETATM    7  C   LIG L   1      41.982   8.937   1.520  1.00  0.00     0.198 C 
BRANCH   7   8
HETATM    8  O   LIG L   1      40.618   8.628   1.803  1.00  0.00    -0.398 OA
HETATM    9  H   LIG L   1      40.492   7.690   1.566  1.00  0.00     0.209 HD
ENDBRANCH   7   8
ENDBRANCH   6   7
BRANCH   1  10
HETATM   10  O   LIG L   1      40.825   6.672  -0.147  1.00  0.00    -0.390 OA
HETATM   11  H   LIG L   1      40.499   7.596  -0.084  1.00  0.00     0.210 HD
ENDBRANCH   1  10
BRANCH   2  12
HETATM   12  O   LIG L   1      41.630   4.063   0.773  1.00  0.00    -0.390 OA
HETATM   13  H   LIG L   1      41.670   3.803   1.716  1.00  0.00     0.210 HD
ENDBRANCH   2  12
BRANCH   4  14
HETATM   14  O   LIG L   1      45.160   6.540   0.377  1.00  0.00    -0.363 OA
HETATM   15  C   LIG L   1      46.542   6.855   0.447  1.00  0.00     0.204 C 
ENDBRANCH   4  14
BRANCH   3  16
HETATM   16  O   LIG L   1      44.362   3.792   1.417  1.00  0.00    -0.388 OA
HETATM   17  H   LIG L   1      45.185   4.073   0.966  1.00  0.00     0.210 HD
ENDBRANCH   3  16
TORSDOF 6
ENDMDL
