REMARK AutoDockVina VirtualScreeningResult  Sun Mar  6 21:56:45 2016
USER  AD>  4 of 9 MODELS
USER  AD>  ligand efficiency  -0.2391
USER  AD>  -5.50,  5.389,  9.931
USER  AD> macro_close_ats: 9
USER  AD> hepi:A:LYS192:H
USER  AD> hepi:A:THR262:CA
USER  AD> hepi:A:LYS192:NZ
USER  AD> hepi:A:MET11:H
USER  AD> hepi:A:ALA140:CB
USER  AD> hepi:A:ILE287:CA
USER  AD> hepi:A:HIS266:NE2
USER  AD> hepi:A:ASP261:CG
USER  AD> hepi:A:THR262:C

USER  AD> lig_close_ats: 8
USER  AD> h11b_aa10_b1_m4_model1: :LIG1:C,C,C,O,O,H,C,H
MODEL 4
REMARK VINA RESULT:      -5.5      5.389      9.931
REMARK  15 active torsions:
REMARK  status: ('A' for Active; 'I' for Inactive)
REMARK    1  A    between atoms: C_1  and  O_7 
REMARK    2  A    between atoms: C_2  and  O_10 
REMARK    3  A    between atoms: C_3  and  O_11 
REMARK    4  A    between atoms: C_4  and  O_12 
REMARK    5  A    between atoms: C_6  and  C_8 
REMARK    6  A    between atoms: C_8  and  O_9 
REMARK    7  A    between atoms: O_12  and  C_13 
REMARK    8  A    between atoms: C_13  and  C_14 
REMARK    9  A    between atoms: C_15  and  C_16 
REMARK   10  A    between atoms: C_16  and  C_17 
REMARK   11  A    between atoms: C_17  and  C_18 
REMARK   12  A    between atoms: C_18  and  C_19 
REMARK   13  A    between atoms: C_19  and  C_20 
REMARK   14  A    between atoms: C_20  and  C_21 
REMARK   15  A    between atoms: C_21  and  C_22 
ROOT
HETATM    1  C   LIG     1      41.317   5.542   0.729  1.00  0.00     0.180 C 
HETATM    2  C   LIG     1      39.963   4.853   0.948  1.00  0.00     0.183 C 
HETATM    3  C   LIG     1      40.163   3.561   1.746  1.00  0.00     0.204 C 
HETATM    4  C   LIG     1      41.158   2.660   0.984  1.00  0.00     0.291 C 
HETATM    5  O   LIG     1      42.416   3.357   0.866  1.00  0.00    -0.348 OA
HETATM    6  C   LIG     1      42.315   4.561   0.082  1.00  0.00     0.179 C 
ENDROOT
BRANCH   4   7
HETATM    7  O   LIG     1      40.696   2.286  -0.321  1.00  0.00    -0.355 OA
BRANCH   7   8
HETATM    8  C   LIG     1      40.958   0.916  -0.611  1.00  0.00     0.198 C 
BRANCH   8   9
HETATM    9  C   LIG     1      39.865   0.074  -0.028  1.00  0.00    -0.005 C 
HETATM   10  C   LIG     1      40.113  -1.119   0.540  1.00  0.00    -0.029 C 
BRANCH  10  11
HETATM   11  C   LIG     1      39.066  -2.034   1.104  1.00  0.00     0.027 C 
BRANCH  11  12
HETATM   12  C   LIG     1      39.371  -3.491   0.740  1.00  0.00     0.004 C 
BRANCH  12  13
HETATM   13  C   LIG     1      39.032  -3.791  -0.717  1.00  0.00     0.000 C 
BRANCH  13  14
HETATM   14  C   LIG     1      40.237  -4.378  -1.455  1.00  0.00     0.000 C 
BRANCH  14  15
HETATM   15  C   LIG     1      39.803  -5.485  -2.416  1.00  0.00     0.000 C 
BRANCH  15  16
HETATM   16  C   LIG     1      39.035  -6.588  -1.690  1.00  0.00    -0.000 C 
BRANCH  16  17
HETATM   17  C   LIG     1      37.832  -7.048  -2.513  1.00  0.00    -0.005 C 
HETATM   18  C   LIG     1      36.785  -7.723  -1.642  1.00  0.00     0.005 C 
ENDBRANCH  16  17
ENDBRANCH  15  16
ENDBRANCH  14  15
ENDBRANCH  13  14
ENDBRANCH  12  13
ENDBRANCH  11  12
ENDBRANCH  10  11
ENDBRANCH   8   9
ENDBRANCH   7   8
ENDBRANCH   4   7
BRANCH   3  19
HETATM   19  O   LIG     1      38.899   2.947   2.011  1.00  0.00    -0.388 OA
HETATM   20  H   LIG     1      38.248   3.473   1.502  1.00  0.00     0.210 HD
ENDBRANCH   3  19
BRANCH   2  21
HETATM   21  O   LIG     1      39.075   5.706   1.691  1.00  0.00    -0.390 OA
HETATM   22  H   LIG     1      39.592   6.518   1.878  1.00  0.00     0.210 HD
ENDBRANCH   2  21
BRANCH   6  23
HETATM   23  C   LIG     1      43.721   5.162  -0.053  1.00  0.00     0.198 C 
BRANCH  23  24
HETATM   24  O   LIG     1      44.661   4.486   0.772  1.00  0.00    -0.398 OA
HETATM   25  H   LIG     1      44.897   5.084   1.503  1.00  0.00     0.209 HD
ENDBRANCH  23  24
ENDBRANCH   6  23
BRANCH   1  26
HETATM   26  O   LIG     1      41.763   5.999   2.023  1.00  0.00    -0.390 OA
HETATM   27  H   LIG     1      41.010   5.931   2.642  1.00  0.00     0.210 HD
ENDBRANCH   1  26
TORSDOF 15
ENDMDL
