REMARK AutoDockVina VirtualScreeningResult  Sun Mar  6 21:58:25 2016
USER  AD>  1 of 9 MODELS
USER  AD>  ligand efficiency  -0.2810
USER  AD>  -5.90,  0.000,  0.000
USER  AD> macro_close_ats: 17
USER  AD> hepi:A:LYS192:H
USER  AD> hepi:A:LEU264:CD1
USER  AD> hepi:A:MET11:H
USER  AD> hepi:A:THR188:H
USER  AD> hepi:A:LEU264:CG
USER  AD> hepi:A:GLY263:H
USER  AD> hepi:A:GLY263:CA
USER  AD> hepi:A:THR187:CB
USER  AD> hepi:A:MET11:CE
USER  AD> hepi:A:THR262:CB
USER  AD> hepi:A:MET11:CB
USER  AD> hepi:A:GLY263:N
USER  AD> hepi:A:GLY12:H
USER  AD> hepi:A:TRP217:H
USER  AD> hepi:A:THR262:OG1
USER  AD> hepi:A:MET242:H
USER  AD> hepi:A:THR187:OG1

USER  AD> lig_close_ats: 17
USER  AD> h11b_ab8_b3_m1_model1: :LIG1:C,C,C,C,O,O,C,C,O,H,H,C,C,O,H,C,C
MODEL 1
REMARK VINA RESULT:      -5.9      0.000      0.000
REMARK  13 active torsions:
REMARK  status: ('A' for Active; 'I' for Inactive)
REMARK    1  A    between atoms: C_1  and  O_7 
REMARK    2  A    between atoms: C_2  and  O_10 
REMARK    3  A    between atoms: C_3  and  O_11 
REMARK    4  A    between atoms: C_4  and  O_12 
REMARK    5  A    between atoms: C_6  and  C_8 
REMARK    6  A    between atoms: C_8  and  O_9 
REMARK    7  A    between atoms: O_12  and  C_13 
REMARK    8  A    between atoms: C_13  and  C_14 
REMARK    9  A    between atoms: C_15  and  C_16 
REMARK   10  A    between atoms: C_16  and  C_17 
REMARK   11  A    between atoms: C_17  and  C_18 
REMARK   12  A    between atoms: C_18  and  C_19 
REMARK   13  A    between atoms: C_19  and  C_20 
ROOT
HETATM    1  C   LIG     1      43.106   6.381   0.929  1.00  0.00     0.180 C 
HETATM    2  C   LIG     1      44.590   6.016   0.792  1.00  0.00     0.183 C 
HETATM    3  C   LIG     1      45.399   6.398   2.043  1.00  0.00     0.204 C 
HETATM    4  C   LIG     1      45.076   7.851   2.454  1.00  0.00     0.291 C 
HETATM    5  O   LIG     1      43.662   8.054   2.563  1.00  0.00    -0.348 OA
HETATM    6  C   LIG     1      42.996   7.863   1.311  1.00  0.00     0.179 C 
ENDROOT
BRANCH   4   7
HETATM    7  O   LIG     1      45.638   8.168   3.727  1.00  0.00    -0.355 OA
BRANCH   7   8
HETATM    8  C   LIG     1      45.930   9.555   3.846  1.00  0.00     0.198 C 
BRANCH   8   9
HETATM    9  C   LIG     1      47.326   9.711   4.366  1.00  0.00    -0.005 C 
HETATM   10  C   LIG     1      47.589  10.156   5.604  1.00  0.00    -0.029 C 
BRANCH  10  11
HETATM   11  C   LIG     1      48.968  10.323   6.176  1.00  0.00     0.027 C 
BRANCH  11  12
HETATM   12  C   LIG     1      49.317  11.808   6.323  1.00  0.00     0.004 C 
BRANCH  12  13
HETATM   13  C   LIG     1      48.589  12.454   7.502  1.00  0.00     0.000 C 
BRANCH  13  14
HETATM   14  C   LIG     1      49.187  11.986   8.830  1.00  0.00    -0.000 C 
BRANCH  14  15
HETATM   15  C   LIG     1      49.158  13.095   9.880  1.00  0.00    -0.005 C 
HETATM   16  C   LIG     1      50.564  13.533  10.259  1.00  0.00     0.005 C 
ENDBRANCH  14  15
ENDBRANCH  13  14
ENDBRANCH  12  13
ENDBRANCH  11  12
ENDBRANCH  10  11
ENDBRANCH   8   9
ENDBRANCH   7   8
ENDBRANCH   4   7
BRANCH   3  17
HETATM   17  O   LIG     1      46.795   6.243   1.734  1.00  0.00    -0.388 OA
HETATM   18  H   LIG     1      47.267   6.437   2.569  1.00  0.00     0.210 HD
ENDBRANCH   3  17
BRANCH   2  19
HETATM   19  O   LIG     1      44.745   4.609   0.554  1.00  0.00    -0.390 OA
HETATM   20  H   LIG     1      44.329   4.165   1.324  1.00  0.00     0.210 HD
ENDBRANCH   2  19
BRANCH   6  21
HETATM   21  C   LIG     1      41.551   8.342   1.456  1.00  0.00     0.198 C 
BRANCH  21  22
HETATM   22  O   LIG     1      41.510   9.665   1.974  1.00  0.00    -0.398 OA
HETATM   23  H   LIG     1      41.027   9.634   2.820  1.00  0.00     0.209 HD
ENDBRANCH  21  22
ENDBRANCH   6  21
BRANCH   1  24
HETATM   24  O   LIG     1      42.546   5.524   1.941  1.00  0.00    -0.390 OA
HETATM   25  H   LIG     1      41.760   5.976   2.306  1.00  0.00     0.210 HD
ENDBRANCH   1  24
TORSDOF 13
ENDMDL
