REMARK AutoDockVina VirtualScreeningResult  Sun Mar  6 21:57:47 2016
USER  AD>  5 of 9 MODELS
USER  AD>  ligand efficiency  -0.3400
USER  AD>  -5.10, 22.069, 23.592
USER  AD> macro_close_ats: 7
USER  AD> hepi:A:LYS7:NZ
USER  AD> hepi:A:LYS7:H
USER  AD> hepi:A:LYS7:H
USER  AD> hepi:A:LYS136:CB
USER  AD> hepi:A:ALA140:CB
USER  AD> hepi:A:ARG143:H
USER  AD> hepi:A:LYS7:H

USER  AD> lig_close_ats: 8
USER  AD> h11b_gb3_b2_m5_model1: :LIG1:H,O,C,O,O,H,C,C
MODEL 5
REMARK VINA RESULT:      -5.1     22.069     23.592
REMARK  8 active torsions:
REMARK  status: ('A' for Active; 'I' for Inactive)
REMARK    1  A    between atoms: C_1  and  O_15 
REMARK    2  A    between atoms: C_2  and  O_9 
REMARK    3  A    between atoms: C_3  and  O_10 
REMARK    4  A    between atoms: C_4  and  O_11 
REMARK    5  A    between atoms: C_6  and  C_7 
REMARK    6  A    between atoms: C_7  and  O_8 
REMARK    7  A    between atoms: O_11  and  C_12 
REMARK    8  A    between atoms: C_12  and  C_13 
ROOT
HETATM    1  C   LIG L   1      42.159  -5.542  -1.646  1.00  0.00     0.180 C 
HETATM    2  C   LIG L   1      41.467  -4.595  -2.625  1.00  0.00     0.183 C 
HETATM    3  C   LIG L   1      40.134  -5.161  -3.111  1.00  0.00     0.204 C 
HETATM    4  C   LIG L   1      40.334  -6.593  -3.653  1.00  0.00     0.291 C 
HETATM    5  O   LIG L   1      40.991  -7.418  -2.682  1.00  0.00    -0.348 OA
HETATM    6  C   LIG L   1      42.273  -6.935  -2.285  1.00  0.00     0.179 C 
ENDROOT
BRANCH   4   7
HETATM    7  O   LIG L   1      39.063  -7.201  -3.894  1.00  0.00    -0.355 OA
BRANCH   7   8
HETATM    8  C   LIG L   1      38.219  -7.264  -2.750  1.00  0.00     0.197 C 
BRANCH   8   9
HETATM    9  C   LIG L   1      36.976  -8.030  -3.093  1.00  0.00    -0.011 C 
HETATM   10  C   LIG L   1      36.775  -8.653  -4.260  1.00  0.00     0.009 C 
ENDBRANCH   8   9
ENDBRANCH   7   8
ENDBRANCH   4   7
BRANCH   3  11
HETATM   11  O   LIG L   1      39.609  -4.271  -4.110  1.00  0.00    -0.388 OA
HETATM   12  H   LIG L   1      38.784  -4.700  -4.415  1.00  0.00     0.210 HD
ENDBRANCH   3  11
BRANCH   2  13
HETATM   13  O   LIG L   1      41.240  -3.320  -1.999  1.00  0.00    -0.390 OA
HETATM   14  H   LIG L   1      40.297  -3.338  -1.734  1.00  0.00     0.210 HD
ENDBRANCH   2  13
BRANCH   6  15
HETATM   15  C   LIG L   1      42.868  -7.954  -1.303  1.00  0.00     0.198 C 
BRANCH  15  16
HETATM   16  O   LIG L   1      44.292  -7.958  -1.368  1.00  0.00    -0.398 OA
HETATM   17  H   LIG L   1      44.545  -7.174  -1.890  1.00  0.00     0.209 HD
ENDBRANCH  15  16
ENDBRANCH   6  15
BRANCH   1  18
HETATM   18  O   LIG L   1      43.434  -4.973  -1.324  1.00  0.00    -0.390 OA
HETATM   19  H   LIG L   1      43.945  -4.948  -2.163  1.00  0.00     0.210 HD
ENDBRANCH   1  18
TORSDOF 8
ENDMDL
