REMARK AutoDockVina VirtualScreeningResult  Sun Mar  6 21:57:04 2016
USER  AD>  3 of 9 MODELS
USER  AD>  ligand efficiency  -0.2619
USER  AD>  -5.50,  1.831,  3.665
USER  AD> macro_close_ats: 10
USER  AD> hepi:A:GLY263:H
USER  AD> hepi:A:ASP261:CG
USER  AD> hepi:A:HIS266:CD2
USER  AD> hepi:A:MET11:H
USER  AD> hepi:A:LYS192:H
USER  AD> hepi:A:HIS266:CE1
USER  AD> hepi:A:LYS192:NZ
USER  AD> hepi:A:HIS266:NE2
USER  AD> hepi:A:LYS192:H
USER  AD> hepi:A:GLY263:CA

USER  AD> lig_close_ats: 7
USER  AD> h11b_gb8_b1_m3_model1: :LIG1:O,H,H,O,C,C,C
MODEL 3
REMARK VINA RESULT:      -5.5      1.831      3.665
REMARK  13 active torsions:
REMARK  status: ('A' for Active; 'I' for Inactive)
REMARK    1  A    between atoms: C_1  and  O_21 
REMARK    2  A    between atoms: C_2  and  O_9 
REMARK    3  A    between atoms: C_3  and  O_10 
REMARK    4  A    between atoms: C_4  and  O_11 
REMARK    5  A    between atoms: C_6  and  C_7 
REMARK    6  A    between atoms: C_7  and  O_8 
REMARK    7  A    between atoms: O_11  and  C_12 
REMARK    8  A    between atoms: C_12  and  C_13 
REMARK    9  A    between atoms: C_14  and  C_15 
REMARK   10  A    between atoms: C_15  and  C_16 
REMARK   11  A    between atoms: C_16  and  C_17 
REMARK   12  A    between atoms: C_17  and  C_18 
REMARK   13  A    between atoms: C_18  and  C_19 
ROOT
HETATM    1  C   LIG     1      39.982   3.506   1.398  1.00  0.00     0.180 C 
HETATM    2  C   LIG     1      40.191   4.952   1.871  1.00  0.00     0.183 C 
HETATM    3  C   LIG     1      41.353   5.649   1.151  1.00  0.00     0.204 C 
HETATM    4  C   LIG     1      42.591   4.745   1.300  1.00  0.00     0.291 C 
HETATM    5  O   LIG     1      42.334   3.478   0.701  1.00  0.00    -0.348 OA
HETATM    6  C   LIG     1      41.312   2.735   1.364  1.00  0.00     0.179 C 
ENDROOT
BRANCH   4   7
HETATM    7  O   LIG     1      43.721   5.316   0.645  1.00  0.00    -0.355 OA
BRANCH   7   8
HETATM    8  C   LIG     1      44.815   5.459   1.544  1.00  0.00     0.198 C 
BRANCH   8   9
HETATM    9  C   LIG     1      45.013   6.906   1.865  1.00  0.00    -0.005 C 
HETATM   10  C   LIG     1      45.783   7.298   2.889  1.00  0.00    -0.029 C 
BRANCH  10  11
HETATM   11  C   LIG     1      46.049   8.730   3.256  1.00  0.00     0.027 C 
BRANCH  11  12
HETATM   12  C   LIG     1      46.096   8.893   4.779  1.00  0.00     0.004 C 
BRANCH  12  13
HETATM   13  C   LIG     1      46.426  10.325   5.191  1.00  0.00     0.000 C 
BRANCH  13  14
HETATM   14  C   LIG     1      45.163  11.064   5.636  1.00  0.00    -0.000 C 
BRANCH  14  15
HETATM   15  C   LIG     1      45.107  12.478   5.063  1.00  0.00    -0.005 C 
HETATM   16  C   LIG     1      44.354  12.511   3.744  1.00  0.00     0.005 C 
ENDBRANCH  14  15
ENDBRANCH  13  14
ENDBRANCH  12  13
ENDBRANCH  11  12
ENDBRANCH  10  11
ENDBRANCH   8   9
ENDBRANCH   7   8
ENDBRANCH   4   7
BRANCH   3  17
HETATM   17  O   LIG     1      41.573   6.954   1.707  1.00  0.00    -0.388 OA
HETATM   18  H   LIG     1      41.270   7.628   1.075  1.00  0.00     0.210 HD
ENDBRANCH   3  17
BRANCH   2  19
HETATM   19  O   LIG     1      38.957   5.674   1.741  1.00  0.00    -0.390 OA
HETATM   20  H   LIG     1      39.167   6.606   1.542  1.00  0.00     0.210 HD
ENDBRANCH   2  19
BRANCH   6  21
HETATM   21  C   LIG     1      41.188   1.387   0.630  1.00  0.00     0.198 C 
BRANCH  21  22
HETATM   22  O   LIG     1      41.615   1.408  -0.724  1.00  0.00    -0.398 OA
HETATM   23  H   LIG     1      41.059   0.794  -1.237  1.00  0.00     0.209 HD
ENDBRANCH  21  22
ENDBRANCH   6  21
BRANCH   1  24
HETATM   24  O   LIG     1      39.075   2.873   2.311  1.00  0.00    -0.390 OA
HETATM   25  H   LIG     1      39.597   2.676   3.116  1.00  0.00     0.210 HD
ENDBRANCH   1  24
TORSDOF 13
ENDMDL
