REMARK AutoDockVina VirtualScreeningResult  Sun Mar  6 21:56:47 2016
USER  AD>  7 of 9 MODELS
USER  AD>  ligand efficiency  -0.2130
USER  AD>  -4.90,  2.595,  4.822
USER  AD> macro_close_ats: 12
USER  AD> hepi:A:GLY263:H
USER  AD> hepi:A:MET11:CE
USER  AD> hepi:A:ASP261:OD2
USER  AD> hepi:A:THR262:H
USER  AD> hepi:A:HIS266:CD2
USER  AD> hepi:A:ASP13:OD1
USER  AD> hepi:A:GLY12:H
USER  AD> hepi:A:ASP261:OD1
USER  AD> hepi:A:ASP13:CG
USER  AD> hepi:A:ASP261:CG
USER  AD> hepi:A:GLY263:CA
USER  AD> hepi:A:LEU264:CG

USER  AD> lig_close_ats: 10
USER  AD> h11b_ab10_b1_m7_model1: :LIG1:C,C,C,C,H,H,C,H,C,C
MODEL 7
REMARK VINA RESULT:      -4.9      2.595      4.822
REMARK  15 active torsions:
REMARK  status: ('A' for Active; 'I' for Inactive)
REMARK    1  A    between atoms: C_1  and  O_7 
REMARK    2  A    between atoms: C_2  and  O_10 
REMARK    3  A    between atoms: C_3  and  O_11 
REMARK    4  A    between atoms: C_4  and  O_12 
REMARK    5  A    between atoms: C_6  and  C_8 
REMARK    6  A    between atoms: C_8  and  O_9 
REMARK    7  A    between atoms: O_12  and  C_13 
REMARK    8  A    between atoms: C_13  and  C_14 
REMARK    9  A    between atoms: C_15  and  C_16 
REMARK   10  A    between atoms: C_16  and  C_17 
REMARK   11  A    between atoms: C_17  and  C_18 
REMARK   12  A    between atoms: C_18  and  C_19 
REMARK   13  A    between atoms: C_19  and  C_20 
REMARK   14  A    between atoms: C_20  and  C_21 
REMARK   15  A    between atoms: C_21  and  C_22 
ROOT
HETATM    1  C   LIG L   1      39.414   2.738  -0.482  1.00  0.00     0.180 C 
HETATM    2  C   LIG L   1      39.206   3.408   0.877  1.00  0.00     0.183 C 
HETATM    3  C   LIG L   1      40.528   3.898   1.487  1.00  0.00     0.204 C 
HETATM    4  C   LIG L   1      41.611   2.789   1.432  1.00  0.00     0.291 C 
HETATM    5  O   LIG L   1      41.686   2.233   0.103  1.00  0.00    -0.348 OA
HETATM    6  C   LIG L   1      40.457   1.629  -0.313  1.00  0.00     0.179 C 
ENDROOT
BRANCH   4   7
HETATM    7  O   LIG L   1      42.927   3.278   1.702  1.00  0.00    -0.355 OA
BRANCH   7   8
HETATM    8  C   LIG L   1      43.245   4.554   1.163  1.00  0.00     0.198 C 
BRANCH   8   9
HETATM    9  C   LIG L   1      44.409   5.183   1.869  1.00  0.00    -0.005 C 
HETATM   10  C   LIG L   1      44.726   6.485   1.762  1.00  0.00    -0.029 C 
BRANCH  10  11
HETATM   11  C   LIG L   1      45.913   7.130   2.417  1.00  0.00     0.027 C 
BRANCH  11  12
HETATM   12  C   LIG L   1      45.522   8.467   3.053  1.00  0.00     0.004 C 
BRANCH  12  13
HETATM   13  C   LIG L   1      45.975   8.558   4.512  1.00  0.00     0.000 C 
BRANCH  13  14
HETATM   14  C   LIG L   1      45.572   9.897   5.132  1.00  0.00     0.000 C 
BRANCH  14  15
HETATM   15  C   LIG L   1      46.787  10.786   5.399  1.00  0.00     0.000 C 
BRANCH  15  16
HETATM   16  C   LIG L   1      48.031   9.948   5.698  1.00  0.00    -0.000 C 
BRANCH  16  17
HETATM   17  C   LIG L   1      49.071  10.748   6.482  1.00  0.00    -0.005 C 
HETATM   18  C   LIG L   1      48.563  12.142   6.820  1.00  0.00     0.005 C 
ENDBRANCH  16  17
ENDBRANCH  15  16
ENDBRANCH  14  15
ENDBRANCH  13  14
ENDBRANCH  12  13
ENDBRANCH  11  12
ENDBRANCH  10  11
ENDBRANCH   8   9
ENDBRANCH   7   8
ENDBRANCH   4   7
BRANCH   3  19
HETATM   19  O   LIG L   1      40.236   4.325   2.830  1.00  0.00    -0.388 OA
HETATM   20  H   LIG L   1      41.051   4.137   3.341  1.00  0.00     0.210 HD
ENDBRANCH   3  19
BRANCH   2  21
HETATM   21  O   LIG L   1      38.321   4.535   0.752  1.00  0.00    -0.390 OA
HETATM   22  H   LIG L   1      37.711   4.475   1.516  1.00  0.00     0.210 HD
ENDBRANCH   2  21
BRANCH   6  23
HETATM   23  C   LIG L   1      40.698   0.853  -1.608  1.00  0.00     0.198 C 
BRANCH  23  24
HETATM   24  O   LIG L   1      42.071   0.491  -1.693  1.00  0.00    -0.398 OA
HETATM   25  H   LIG L   1      42.236  -0.176  -1.003  1.00  0.00     0.209 HD
ENDBRANCH  23  24
ENDBRANCH   6  23
BRANCH   1  26
HETATM   26  O   LIG L   1      39.859   3.754  -1.402  1.00  0.00    -0.390 OA
HETATM   27  H   LIG L   1      40.837   3.762  -1.371  1.00  0.00     0.210 HD
ENDBRANCH   1  26
TORSDOF 15
ENDMDL
