REMARK AutoDockVina VirtualScreeningResult  Sun Mar  6 21:57:30 2016
USER  AD>  9 of 9 MODELS
USER  AD>  ligand efficiency  -0.2500
USER  AD>  -5.00, 25.526, 27.741
USER  AD> macro_close_ats: 13
USER  AD> hepi:A:PHE127:CZ
USER  AD> hepi:A:ASN129:ND2
USER  AD> hepi:A:LYS131:H
USER  AD> hepi:A:ASN129:CG
USER  AD> hepi:A:LEU126:O
USER  AD> hepi:A:TYR128:O
USER  AD> hepi:A:LEU126:CD1
USER  AD> hepi:A:ASN129:H
USER  AD> hepi:A:ASN129:OD1
USER  AD> hepi:A:LEU126:CB
USER  AD> hepi:A:PHE127:CE1
USER  AD> hepi:A:TYR128:C
USER  AD> hepi:A:PHE127:CD2

USER  AD> lig_close_ats: 13
USER  AD> h11b_ab7_b2_m9_model1: :LIG1:C,C,C,C,H,O,O,H,C,C,H,C,C
MODEL 9
REMARK VINA RESULT:      -5.0     25.526     27.741
REMARK  12 active torsions:
REMARK  status: ('A' for Active; 'I' for Inactive)
REMARK    1  A    between atoms: C_1  and  O_7 
REMARK    2  A    between atoms: C_2  and  O_10 
REMARK    3  A    between atoms: C_3  and  O_11 
REMARK    4  A    between atoms: C_4  and  O_12 
REMARK    5  A    between atoms: C_6  and  C_8 
REMARK    6  A    between atoms: C_8  and  O_9 
REMARK    7  A    between atoms: O_12  and  C_13 
REMARK    8  A    between atoms: C_13  and  C_14 
REMARK    9  A    between atoms: C_15  and  C_16 
REMARK   10  A    between atoms: C_16  and  C_17 
REMARK   11  A    between atoms: C_17  and  C_18 
REMARK   12  A    between atoms: C_18  and  C_19 
ROOT
HETATM    1  C   LIG L   1      55.178 -17.098 -15.535  1.00  0.00     0.180 C 
HETATM    2  C   LIG L   1      56.418 -16.234 -15.311  1.00  0.00     0.183 C 
HETATM    3  C   LIG L   1      56.111 -14.738 -15.463  1.00  0.00     0.204 C 
HETATM    4  C   LIG L   1      55.324 -14.463 -16.771  1.00  0.00     0.291 C 
HETATM    5  O   LIG L   1      54.203 -15.363 -16.882  1.00  0.00    -0.348 OA
HETATM    6  C   LIG L   1      54.578 -16.743 -16.901  1.00  0.00     0.179 C 
ENDROOT
BRANCH   4   7
HETATM    7  O   LIG L   1      54.745 -13.156 -16.814  1.00  0.00    -0.355 OA
BRANCH   7   8
HETATM    8  C   LIG L   1      55.011 -12.381 -17.974  1.00  0.00     0.198 C 
BRANCH   8   9
HETATM    9  C   LIG L   1      53.847 -12.374 -18.920  1.00  0.00    -0.005 C 
HETATM   10  C   LIG L   1      52.618 -12.800 -18.587  1.00  0.00    -0.029 C 
BRANCH  10  11
HETATM   11  C   LIG L   1      51.454 -12.871 -19.535  1.00  0.00     0.027 C 
BRANCH  11  12
HETATM   12  C   LIG L   1      51.192 -11.503 -20.173  1.00  0.00     0.004 C 
BRANCH  12  13
HETATM   13  C   LIG L   1      49.700 -11.265 -20.415  1.00  0.00    -0.000 C 
BRANCH  13  14
HETATM   14  C   LIG L   1      49.446  -9.854 -20.947  1.00  0.00    -0.005 C 
HETATM   15  C   LIG L   1      48.214  -9.228 -20.314  1.00  0.00     0.005 C 
ENDBRANCH  13  14
ENDBRANCH  12  13
ENDBRANCH  11  12
ENDBRANCH  10  11
ENDBRANCH   8   9
ENDBRANCH   7   8
ENDBRANCH   4   7
BRANCH   3  16
HETATM   16  O   LIG L   1      57.371 -14.045 -15.415  1.00  0.00    -0.388 OA
HETATM   17  H   LIG L   1      57.240 -13.240 -15.957  1.00  0.00     0.210 HD
ENDBRANCH   3  16
BRANCH   2  18
HETATM   18  O   LIG L   1      56.950 -16.452 -13.993  1.00  0.00    -0.390 OA
HETATM   19  H   LIG L   1      56.477 -17.240 -13.648  1.00  0.00     0.210 HD
ENDBRANCH   2  18
BRANCH   6  20
HETATM   20  C   LIG L   1      53.338 -17.583 -17.219  1.00  0.00     0.198 C 
BRANCH  20  21
HETATM   21  O   LIG L   1      52.302 -17.309 -16.284  1.00  0.00    -0.398 OA
HETATM   22  H   LIG L   1      51.646 -18.025 -16.356  1.00  0.00     0.209 HD
ENDBRANCH  20  21
ENDBRANCH   6  20
BRANCH   1  23
HETATM   23  O   LIG L   1      54.263 -16.819 -14.458  1.00  0.00    -0.390 OA
HETATM   24  H   LIG L   1      54.768 -16.883 -13.623  1.00  0.00     0.210 HD
ENDBRANCH   1  23
TORSDOF 12
ENDMDL
