REMARK AutoDockVina VirtualScreeningResult  Sun Mar  6 21:57:34 2016
USER  AD>  5 of 9 MODELS
USER  AD>  ligand efficiency  -0.2571
USER  AD>  -5.40,  3.786,  5.820
USER  AD> macro_close_ats: 11
USER  AD> hepi:A:HIS266:CD2
USER  AD> hepi:A:GLY263:H
USER  AD> hepi:A:LYS192:H
USER  AD> hepi:A:LYS192:CE
USER  AD> hepi:A:SER10:OG
USER  AD> hepi:A:ASP261:CG
USER  AD> hepi:A:MET11:CB
USER  AD> hepi:A:LEU264:CD1
USER  AD> hepi:A:LYS192:NZ
USER  AD> hepi:A:LYS192:H
USER  AD> hepi:A:HIS266:NE2

USER  AD> lig_close_ats: 12
USER  AD> h11b_ab8_b2_m5_model1: :LIG1:O,C,H,H,O,C,C,C,C,O,H,H
MODEL 5
REMARK VINA RESULT:      -5.4      3.786      5.820
REMARK  13 active torsions:
REMARK  status: ('A' for Active; 'I' for Inactive)
REMARK    1  A    between atoms: C_1  and  O_7 
REMARK    2  A    between atoms: C_2  and  O_10 
REMARK    3  A    between atoms: C_3  and  O_11 
REMARK    4  A    between atoms: C_4  and  O_12 
REMARK    5  A    between atoms: C_6  and  C_8 
REMARK    6  A    between atoms: C_8  and  O_9 
REMARK    7  A    between atoms: O_12  and  C_13 
REMARK    8  A    between atoms: C_13  and  C_14 
REMARK    9  A    between atoms: C_15  and  C_16 
REMARK   10  A    between atoms: C_16  and  C_17 
REMARK   11  A    between atoms: C_17  and  C_18 
REMARK   12  A    between atoms: C_18  and  C_19 
REMARK   13  A    between atoms: C_19  and  C_20 
ROOT
HETATM    1  C   LIG L   1      38.870   4.258   0.334  1.00  0.00     0.180 C 
HETATM    2  C   LIG L   1      39.433   2.994   0.994  1.00  0.00     0.183 C 
HETATM    3  C   LIG L   1      40.929   3.128   1.324  1.00  0.00     0.204 C 
HETATM    4  C   LIG L   1      41.691   3.666   0.093  1.00  0.00     0.291 C 
HETATM    5  O   LIG L   1      41.075   4.856  -0.416  1.00  0.00    -0.348 OA
HETATM    6  C   LIG L   1      39.743   4.612  -0.878  1.00  0.00     0.179 C 
ENDROOT
BRANCH   4   7
HETATM    7  O   LIG L   1      43.037   4.008   0.424  1.00  0.00    -0.355 OA
BRANCH   7   8
HETATM    8  C   LIG L   1      43.197   5.410   0.608  1.00  0.00     0.198 C 
BRANCH   8   9
HETATM    9  C   LIG L   1      44.390   5.647   1.483  1.00  0.00    -0.005 C 
HETATM   10  C   LIG L   1      44.835   6.878   1.776  1.00  0.00    -0.029 C 
BRANCH  10  11
HETATM   11  C   LIG L   1      46.020   7.170   2.653  1.00  0.00     0.027 C 
BRANCH  11  12
HETATM   12  C   LIG L   1      45.722   8.343   3.594  1.00  0.00     0.004 C 
BRANCH  12  13
HETATM   13  C   LIG L   1      45.607   9.668   2.839  1.00  0.00     0.000 C 
BRANCH  13  14
HETATM   14  C   LIG L   1      45.620  10.848   3.812  1.00  0.00    -0.000 C 
BRANCH  14  15
HETATM   15  C   LIG L   1      45.645  10.377   5.265  1.00  0.00    -0.005 C 
HETATM   16  C   LIG L   1      44.893  11.339   6.171  1.00  0.00     0.005 C 
ENDBRANCH  14  15
ENDBRANCH  13  14
ENDBRANCH  12  13
ENDBRANCH  11  12
ENDBRANCH  10  11
ENDBRANCH   8   9
ENDBRANCH   7   8
ENDBRANCH   4   7
BRANCH   3  17
HETATM   17  O   LIG L   1      41.417   1.831   1.711  1.00  0.00    -0.388 OA
HETATM   18  H   LIG L   1      42.032   1.998   2.454  1.00  0.00     0.210 HD
ENDBRANCH   3  17
BRANCH   2  19
HETATM   19  O   LIG L   1      38.720   2.695   2.204  1.00  0.00    -0.390 OA
HETATM   20  H   LIG L   1      39.034   1.809   2.483  1.00  0.00     0.210 HD
ENDBRANCH   2  19
BRANCH   6  21
HETATM   21  C   LIG L   1      39.258   5.853  -1.627  1.00  0.00     0.198 C 
BRANCH  21  22
HETATM   22  O   LIG L   1      37.879   6.086  -1.375  1.00  0.00    -0.398 OA
HETATM   23  H   LIG L   1      37.758   7.046  -1.262  1.00  0.00     0.209 HD
ENDBRANCH  21  22
ENDBRANCH   6  21
BRANCH   1  24
HETATM   24  O   LIG L   1      38.883   5.302   1.326  1.00  0.00    -0.390 OA
HETATM   25  H   LIG L   1      38.421   6.074   0.945  1.00  0.00     0.210 HD
ENDBRANCH   1  24
TORSDOF 13
ENDMDL
