REMARK AutoDockVina VirtualScreeningResult  Sun Mar  6 21:56:28 2016
USER  AD>  9 of 9 MODELS
USER  AD>  ligand efficiency  -0.3833
USER  AD>  -4.60, 13.129, 13.830
USER  AD> macro_close_ats: 11
USER  AD> hepi:A:THR187:OG1
USER  AD> hepi:A:THR262:CA
USER  AD> hepi:A:HIS266:NE2
USER  AD> hepi:A:SER10:H
USER  AD> hepi:A:GLY12:H
USER  AD> hepi:A:LYS192:H
USER  AD> hepi:A:SER10:OG
USER  AD> hepi:A:LYS192:NZ
USER  AD> hepi:A:LYS192:H
USER  AD> hepi:A:THR262:CB
USER  AD> hepi:A:HIS266:CD2

USER  AD> lig_close_ats: 9
USER  AD> h11b_ab_b1_m9_model1: :LIG1:O,O,O,O,C,H,C,C,H
MODEL 9
REMARK VINA RESULT:      -4.6     13.129     13.830
REMARK  6 active torsions:
REMARK  status: ('A' for Active; 'I' for Inactive)
REMARK    1  A    between atoms: C_1  and  O_7 
REMARK    2  A    between atoms: C_2  and  O_10 
REMARK    3  A    between atoms: C_3  and  O_12 
REMARK    4  A    between atoms: C_4  and  O_11 
REMARK    5  A    between atoms: C_6  and  C_8 
REMARK    6  A    between atoms: C_8  and  O_9 
ROOT
HETATM    1  C   LIG     1      42.439   5.464   1.446  1.00  0.00     0.180 C 
HETATM    2  C   LIG     1      41.991   4.072   1.911  1.00  0.00     0.183 C 
HETATM    3  C   LIG     1      40.685   3.663   1.223  1.00  0.00     0.204 C 
HETATM    4  C   LIG     1      39.632   4.781   1.369  1.00  0.00     0.288 C 
HETATM    5  O   LIG     1      40.155   6.023   0.894  1.00  0.00    -0.349 OA
HETATM    6  C   LIG     1      41.286   6.458   1.665  1.00  0.00     0.179 C 
ENDROOT
BRANCH   6   7
HETATM    7  C   LIG     1      41.652   7.882   1.238  1.00  0.00     0.198 C 
BRANCH   7   8
HETATM    8  O   LIG     1      40.726   8.821   1.770  1.00  0.00    -0.398 OA
HETATM    9  H   LIG     1      41.167   9.290   2.500  1.00  0.00     0.209 HD
ENDBRANCH   7   8
ENDBRANCH   6   7
BRANCH   1  10
HETATM   10  O   LIG     1      42.789   5.352   0.053  1.00  0.00    -0.390 OA
HETATM   11  H   LIG     1      42.206   5.959  -0.447  1.00  0.00     0.210 HD
ENDBRANCH   1  10
BRANCH   2  12
HETATM   12  O   LIG     1      42.992   3.090   1.598  1.00  0.00    -0.390 OA
HETATM   13  H   LIG     1      43.317   3.322   0.703  1.00  0.00     0.210 HD
ENDBRANCH   2  12
BRANCH   4  14
HETATM   14  O   LIG     1      38.471   4.463   0.612  1.00  0.00    -0.369 OA
HETATM   15  H   LIG     1      38.664   4.715  -0.310  1.00  0.00     0.212 HD
ENDBRANCH   4  14
BRANCH   3  16
HETATM   16  O   LIG     1      40.199   2.433   1.774  1.00  0.00    -0.388 OA
HETATM   17  H   LIG     1      40.887   1.767   1.570  1.00  0.00     0.210 HD
ENDBRANCH   3  16
TORSDOF 6
ENDMDL
