REMARK AutoDockVina VirtualScreeningResult  Sun Mar  6 21:57:20 2016
USER  AD>  2 of 9 MODELS
USER  AD>  ligand efficiency  -0.3923
USER  AD>  -5.10,  1.920,  3.274
USER  AD> macro_close_ats: 13
USER  AD> hepi:A:GLN94:C
USER  AD> hepi:A:MET114:CE
USER  AD> hepi:A:THR144:OG1
USER  AD> hepi:A:ARG143:H
USER  AD> hepi:A:LYS7:H
USER  AD> hepi:A:ALA93:O
USER  AD> hepi:A:THR144:H
USER  AD> hepi:A:ALA140:CB
USER  AD> hepi:A:ALA93:C
USER  AD> hepi:A:LYS7:H
USER  AD> hepi:A:LYS7:NZ
USER  AD> hepi:A:ARG143:NH1
USER  AD> hepi:A:ARG143:H

USER  AD> lig_close_ats: 10
USER  AD> h11b_aam_b2_m2_model1: :LIG1:C,O,H,O,H,C,O,O,H,H
MODEL 2
REMARK VINA RESULT:      -5.1      1.920      3.274
REMARK  6 active torsions:
REMARK  status: ('A' for Active; 'I' for Inactive)
REMARK    1  A    between atoms: C_1  and  O_7 
REMARK    2  A    between atoms: C_2  and  O_10 
REMARK    3  A    between atoms: C_3  and  O_11 
REMARK    4  A    between atoms: C_4  and  O_12 
REMARK    5  A    between atoms: C_6  and  C_8 
REMARK    6  A    between atoms: C_8  and  O_9 
ROOT
HETATM    1  C   LIG     1      42.227  -7.084  -4.343  1.00  0.00     0.180 C 
HETATM    2  C   LIG     1      43.587  -7.488  -3.755  1.00  0.00     0.183 C 
HETATM    3  C   LIG     1      43.393  -8.388  -2.528  1.00  0.00     0.204 C 
HETATM    4  C   LIG     1      42.465  -7.682  -1.515  1.00  0.00     0.290 C 
HETATM    5  O   LIG     1      41.202  -7.404  -2.157  1.00  0.00    -0.349 OA
HETATM    6  C   LIG     1      41.342  -6.468  -3.244  1.00  0.00     0.179 C 
ENDROOT
BRANCH   6   7
HETATM    7  C   LIG     1      39.943  -6.099  -3.748  1.00  0.00     0.198 C 
BRANCH   7   8
HETATM    8  O   LIG     1      39.112  -7.248  -3.859  1.00  0.00    -0.398 OA
HETATM    9  H   LIG     1      39.563  -7.981  -3.406  1.00  0.00     0.209 HD
ENDBRANCH   7   8
ENDBRANCH   6   7
BRANCH   1  10
HETATM   10  O   LIG     1      41.640  -8.279  -4.900  1.00  0.00    -0.390 OA
HETATM   11  H   LIG     1      41.147  -8.021  -5.702  1.00  0.00     0.210 HD
ENDBRANCH   1  10
BRANCH   2  12
HETATM   12  O   LIG     1      44.354  -8.219  -4.730  1.00  0.00    -0.390 OA
HETATM   13  H   LIG     1      45.291  -8.099  -4.466  1.00  0.00     0.210 HD
ENDBRANCH   2  12
BRANCH   4  14
HETATM   14  O   LIG     1      42.982  -6.459  -0.987  1.00  0.00    -0.363 OA
HETATM   15  C   LIG     1      43.640  -6.606   0.264  1.00  0.00     0.204 C 
ENDBRANCH   4  14
BRANCH   3  16
HETATM   16  O   LIG     1      44.664  -8.762  -1.986  1.00  0.00    -0.388 OA
HETATM   17  H   LIG     1      44.503  -8.892  -1.030  1.00  0.00     0.210 HD
ENDBRANCH   3  16
TORSDOF 6
ENDMDL
