REMARK AutoDockVina VirtualScreeningResult  Sun Mar  6 21:57:34 2016
USER  AD>  4 of 9 MODELS
USER  AD>  ligand efficiency  -0.2619
USER  AD>  -5.50, 19.713, 22.949
USER  AD> macro_close_ats: 11
USER  AD> hepi:A:GLY232:H
USER  AD> hepi:A:PHE233:H
USER  AD> hepi:A:VAL236:O
USER  AD> hepi:A:LYS227:CG
USER  AD> hepi:A:PHE233:C
USER  AD> hepi:A:PHE233:N
USER  AD> hepi:A:VAL238:H
USER  AD> hepi:A:LYS227:CE
USER  AD> hepi:A:VAL238:CG1
USER  AD> hepi:A:PHE233:O
USER  AD> hepi:A:GLU231:CA

USER  AD> lig_close_ats: 11
USER  AD> h11b_ab8_b2_m4_model1: :LIG1:O,C,C,H,O,H,C,H,O,H,C
MODEL 4
REMARK VINA RESULT:      -5.5     19.713     22.949
REMARK  13 active torsions:
REMARK  status: ('A' for Active; 'I' for Inactive)
REMARK    1  A    between atoms: C_1  and  O_7 
REMARK    2  A    between atoms: C_2  and  O_10 
REMARK    3  A    between atoms: C_3  and  O_11 
REMARK    4  A    between atoms: C_4  and  O_12 
REMARK    5  A    between atoms: C_6  and  C_8 
REMARK    6  A    between atoms: C_8  and  O_9 
REMARK    7  A    between atoms: O_12  and  C_13 
REMARK    8  A    between atoms: C_13  and  C_14 
REMARK    9  A    between atoms: C_15  and  C_16 
REMARK   10  A    between atoms: C_16  and  C_17 
REMARK   11  A    between atoms: C_17  and  C_18 
REMARK   12  A    between atoms: C_18  and  C_19 
REMARK   13  A    between atoms: C_19  and  C_20 
ROOT
HETATM    1  C   LIG     1      43.321  25.581  20.995  1.00  0.00     0.180 C 
HETATM    2  C   LIG     1      42.537  26.886  20.814  1.00  0.00     0.183 C 
HETATM    3  C   LIG     1      42.625  27.421  19.375  1.00  0.00     0.204 C 
HETATM    4  C   LIG     1      44.096  27.424  18.905  1.00  0.00     0.291 C 
HETATM    5  O   LIG     1      44.707  26.145  19.113  1.00  0.00    -0.348 OA
HETATM    6  C   LIG     1      44.758  25.796  20.499  1.00  0.00     0.179 C 
ENDROOT
BRANCH   4   7
HETATM    7  O   LIG     1      44.195  27.708  17.509  1.00  0.00    -0.355 OA
BRANCH   7   8
HETATM    8  C   LIG     1      43.980  26.546  16.717  1.00  0.00     0.198 C 
BRANCH   8   9
HETATM    9  C   LIG     1      45.232  26.249  15.948  1.00  0.00    -0.005 C 
HETATM   10  C   LIG     1      46.278  27.089  15.924  1.00  0.00    -0.029 C 
BRANCH  10  11
HETATM   11  C   LIG     1      47.557  26.836  15.175  1.00  0.00     0.027 C 
BRANCH  11  12
HETATM   12  C   LIG     1      47.953  25.358  15.266  1.00  0.00     0.004 C 
BRANCH  12  13
HETATM   13  C   LIG     1      49.217  25.154  16.103  1.00  0.00     0.000 C 
BRANCH  13  14
HETATM   14  C   LIG     1      49.805  23.763  15.864  1.00  0.00    -0.000 C 
BRANCH  14  15
HETATM   15  C   LIG     1      49.917  23.449  14.374  1.00  0.00    -0.005 C 
HETATM   16  C   LIG     1      51.331  23.032  14.000  1.00  0.00     0.005 C 
ENDBRANCH  14  15
ENDBRANCH  13  14
ENDBRANCH  12  13
ENDBRANCH  11  12
ENDBRANCH  10  11
ENDBRANCH   8   9
ENDBRANCH   7   8
ENDBRANCH   4   7
BRANCH   3  17
HETATM   17  O   LIG     1      42.071  28.749  19.360  1.00  0.00    -0.388 OA
HETATM   18  H   LIG     1      41.677  28.854  18.470  1.00  0.00     0.210 HD
ENDBRANCH   3  17
BRANCH   2  19
HETATM   19  O   LIG     1      41.154  26.696  21.151  1.00  0.00    -0.390 OA
HETATM   20  H   LIG     1      41.078  26.941  22.097  1.00  0.00     0.210 HD
ENDBRANCH   2  19
BRANCH   6  21
HETATM   21  C   LIG     1      45.639  24.556  20.651  1.00  0.00     0.198 C 
BRANCH  21  22
HETATM   22  O   LIG     1      45.444  23.664  19.562  1.00  0.00    -0.398 OA
HETATM   23  H   LIG     1      46.228  23.725  18.987  1.00  0.00     0.209 HD
ENDBRANCH  21  22
ENDBRANCH   6  21
BRANCH   1  24
HETATM   24  O   LIG     1      42.641  24.563  20.236  1.00  0.00    -0.390 OA
HETATM   25  H   LIG     1      42.229  23.948  20.874  1.00  0.00     0.210 HD
ENDBRANCH   1  24
TORSDOF 13
ENDMDL
