REMARK AutoDockVina VirtualScreeningResult  Sun Mar  6 21:58:37 2016
USER  AD>  8 of 9 MODELS
USER  AD>  ligand efficiency  -0.3692
USER  AD>  -4.80,  9.659, 11.448
USER  AD> macro_close_ats: 14
USER  AD> hepi:A:THR188:CB
USER  AD> hepi:A:LYS192:H
USER  AD> hepi:A:THR262:CA
USER  AD> hepi:A:THR188:H
USER  AD> hepi:A:MET11:H
USER  AD> hepi:A:PHE41:CE1
USER  AD> hepi:A:GLY263:H
USER  AD> hepi:A:SER10:OG
USER  AD> hepi:A:THR262:OG1
USER  AD> hepi:A:HIS266:CD2
USER  AD> hepi:A:SER10:H
USER  AD> hepi:A:GLY263:CA
USER  AD> hepi:A:GLY263:N
USER  AD> hepi:A:GLY12:H

USER  AD> lig_close_ats: 12
USER  AD> h11b_gbm_b3_m8_model1: :LIG1:H,H,O,C,H,O,C,O,C,C,O,H
MODEL 8
REMARK VINA RESULT:      -4.8      9.659     11.448
REMARK  6 active torsions:
REMARK  status: ('A' for Active; 'I' for Inactive)
REMARK    1  A    between atoms: C_1  and  O_13 
REMARK    2  A    between atoms: C_2  and  O_9 
REMARK    3  A    between atoms: C_3  and  O_11 
REMARK    4  A    between atoms: C_4  and  O_10 
REMARK    5  A    between atoms: C_6  and  C_7 
REMARK    6  A    between atoms: C_7  and  O_8 
ROOT
HETATM    1  C   LIG L   1      42.174   6.875   1.631  1.00  0.00     0.180 C 
HETATM    2  C   LIG L   1      42.572   5.406   1.474  1.00  0.00     0.183 C 
HETATM    3  C   LIG L   1      44.069   5.209   1.701  1.00  0.00     0.204 C 
HETATM    4  C   LIG L   1      44.860   6.209   0.831  1.00  0.00     0.290 C 
HETATM    5  O   LIG L   1      44.453   7.553   1.080  1.00  0.00    -0.349 OA
HETATM    6  C   LIG L   1      43.072   7.761   0.750  1.00  0.00     0.179 C 
ENDROOT
BRANCH   6   7
HETATM    7  C   LIG L   1      42.727   9.246   0.930  1.00  0.00     0.198 C 
BRANCH   7   8
HETATM    8  O   LIG L   1      41.775   9.451   1.969  1.00  0.00    -0.398 OA
HETATM    9  H   LIG L   1      42.225   9.966   2.673  1.00  0.00     0.209 HD
ENDBRANCH   7   8
ENDBRANCH   6   7
BRANCH   1  10
HETATM   10  O   LIG L   1      40.793   7.033   1.282  1.00  0.00    -0.390 OA
HETATM   11  H   LIG L   1      40.296   6.586   2.001  1.00  0.00     0.210 HD
ENDBRANCH   1  10
BRANCH   2  12
HETATM   12  O   LIG L   1      41.818   4.620   2.411  1.00  0.00    -0.390 OA
HETATM   13  H   LIG L   1      42.486   4.115   2.921  1.00  0.00     0.210 HD
ENDBRANCH   2  12
BRANCH   4  14
HETATM   14  O   LIG L   1      46.274   6.043   0.990  1.00  0.00    -0.363 OA
HETATM   15  C   LIG L   1      46.933   7.131   1.624  1.00  0.00     0.204 C 
ENDBRANCH   4  14
BRANCH   3  16
HETATM   16  O   LIG L   1      44.396   3.846   1.382  1.00  0.00    -0.388 OA
HETATM   17  H   LIG L   1      43.653   3.495   0.858  1.00  0.00     0.210 HD
ENDBRANCH   3  16
TORSDOF 6
ENDMDL
