REMARK AutoDockVina VirtualScreeningResult  Sun Mar  6 21:57:34 2016
USER  AD>  3 of 9 MODELS
USER  AD>  ligand efficiency  -0.2667
USER  AD>  -5.60,  3.072,  4.284
USER  AD> macro_close_ats: 17
USER  AD> hepi:A:THR262:CA
USER  AD> hepi:A:GLY263:CA
USER  AD> hepi:A:MET11:H
USER  AD> hepi:A:LEU264:CG
USER  AD> hepi:A:SER10:CA
USER  AD> hepi:A:GLY12:H
USER  AD> hepi:A:GLY263:H
USER  AD> hepi:A:MET11:N
USER  AD> hepi:A:THR188:CB
USER  AD> hepi:A:THR188:CG2
USER  AD> hepi:A:SER10:OG
USER  AD> hepi:A:THR188:H
USER  AD> hepi:A:LYS192:NZ
USER  AD> hepi:A:THR262:H
USER  AD> hepi:A:LYS192:H
USER  AD> hepi:A:LYS192:H
USER  AD> hepi:A:ASP261:O

USER  AD> lig_close_ats: 12
USER  AD> h11b_ab8_b2_m3_model1: :LIG1:O,H,C,H,C,C,O,H,O,O,H,C
MODEL 3
REMARK VINA RESULT:      -5.6      3.072      4.284
REMARK  13 active torsions:
REMARK  status: ('A' for Active; 'I' for Inactive)
REMARK    1  A    between atoms: C_1  and  O_7 
REMARK    2  A    between atoms: C_2  and  O_10 
REMARK    3  A    between atoms: C_3  and  O_11 
REMARK    4  A    between atoms: C_4  and  O_12 
REMARK    5  A    between atoms: C_6  and  C_8 
REMARK    6  A    between atoms: C_8  and  O_9 
REMARK    7  A    between atoms: O_12  and  C_13 
REMARK    8  A    between atoms: C_13  and  C_14 
REMARK    9  A    between atoms: C_15  and  C_16 
REMARK   10  A    between atoms: C_16  and  C_17 
REMARK   11  A    between atoms: C_17  and  C_18 
REMARK   12  A    between atoms: C_18  and  C_19 
REMARK   13  A    between atoms: C_19  and  C_20 
ROOT
HETATM    1  C   LIG L   1      41.686   6.142   0.639  1.00  0.00     0.180 C 
HETATM    2  C   LIG L   1      42.688   4.993   0.478  1.00  0.00     0.183 C 
HETATM    3  C   LIG L   1      43.780   5.019   1.560  1.00  0.00     0.204 C 
HETATM    4  C   LIG L   1      44.368   6.441   1.678  1.00  0.00     0.291 C 
HETATM    5  O   LIG L   1      43.332   7.417   1.842  1.00  0.00    -0.348 OA
HETATM    6  C   LIG L   1      42.460   7.466   0.708  1.00  0.00     0.179 C 
ENDROOT
BRANCH   4   7
HETATM    7  O   LIG L   1      45.227   6.556   2.814  1.00  0.00    -0.355 OA
BRANCH   7   8
HETATM    8  C   LIG L   1      46.379   7.341   2.528  1.00  0.00     0.198 C 
BRANCH   8   9
HETATM    9  C   LIG L   1      46.288   8.625   3.296  1.00  0.00    -0.005 C 
HETATM   10  C   LIG L   1      45.929   8.669   4.588  1.00  0.00    -0.029 C 
BRANCH  10  11
HETATM   11  C   LIG L   1      45.830   9.927   5.403  1.00  0.00     0.027 C 
BRANCH  11  12
HETATM   12  C   LIG L   1      45.986  11.164   4.511  1.00  0.00     0.004 C 
BRANCH  12  13
HETATM   13  C   LIG L   1      44.687  11.962   4.405  1.00  0.00     0.000 C 
BRANCH  13  14
HETATM   14  C   LIG L   1      44.441  12.408   2.963  1.00  0.00    -0.000 C 
BRANCH  14  15
HETATM   15  C   LIG L   1      43.830  11.286   2.125  1.00  0.00    -0.005 C 
HETATM   16  C   LIG L   1      44.724  10.924   0.950  1.00  0.00     0.005 C 
ENDBRANCH  14  15
ENDBRANCH  13  14
ENDBRANCH  12  13
ENDBRANCH  11  12
ENDBRANCH  10  11
ENDBRANCH   8   9
ENDBRANCH   7   8
ENDBRANCH   4   7
BRANCH   3  17
HETATM   17  O   LIG L   1      44.794   4.066   1.193  1.00  0.00    -0.388 OA
HETATM   18  H   LIG L   1      45.355   4.527   0.536  1.00  0.00     0.210 HD
ENDBRANCH   3  17
BRANCH   2  19
HETATM   19  O   LIG L   1      42.017   3.725   0.531  1.00  0.00    -0.390 OA
HETATM   20  H   LIG L   1      42.378   3.204  -0.217  1.00  0.00     0.210 HD
ENDBRANCH   2  19
BRANCH   6  21
HETATM   21  C   LIG L   1      41.553   8.688   0.851  1.00  0.00     0.198 C 
BRANCH  21  22
HETATM   22  O   LIG L   1      40.824   8.632   2.070  1.00  0.00    -0.398 OA
HETATM   23  H   LIG L   1      40.303   7.809   2.064  1.00  0.00     0.209 HD
ENDBRANCH  21  22
ENDBRANCH   6  21
BRANCH   1  24
HETATM   24  O   LIG L   1      40.941   5.895   1.846  1.00  0.00    -0.390 OA
HETATM   25  H   LIG L   1      39.991   5.942   1.619  1.00  0.00     0.210 HD
ENDBRANCH   1  24
TORSDOF 13
ENDMDL
