REMARK AutoDockVina VirtualScreeningResult  Sun Mar  6 21:57:07 2016
USER  AD>  6 of 9 MODELS
USER  AD>  ligand efficiency  -0.2524
USER  AD>  -5.30,  7.670, 11.058
USER  AD> macro_close_ats: 11
USER  AD> hepi:A:GLY218:CA
USER  AD> hepi:A:VAL247:CB
USER  AD> hepi:A:MET11:CE
USER  AD> hepi:A:TRP217:C
USER  AD> hepi:A:SER243:C
USER  AD> hepi:A:MET242:O
USER  AD> hepi:A:LEU264:CD1
USER  AD> hepi:A:MET242:C
USER  AD> hepi:A:LEU264:CG
USER  AD> hepi:A:ALA186:CB
USER  AD> hepi:A:TRP217:H

USER  AD> lig_close_ats: 9
USER  AD> h11b_gb8y_b1_m6_model1: :LIG1:C,C,H,O,O,O,C,C,C
MODEL 6
REMARK VINA RESULT:      -5.3      7.670     11.058
REMARK  14 active torsions:
REMARK  status: ('A' for Active; 'I' for Inactive)
REMARK    1  A    between atoms: C_1  and  O_21 
REMARK    2  A    between atoms: C_2  and  O_9 
REMARK    3  A    between atoms: C_3  and  O_10 
REMARK    4  A    between atoms: C_4  and  O_11 
REMARK    5  A    between atoms: C_6  and  C_7 
REMARK    6  A    between atoms: C_7  and  O_8 
REMARK    7  A    between atoms: O_11  and  C_12 
REMARK    8  A    between atoms: C_12  and  C_13 
REMARK    9  A    between atoms: C_13  and  C_14 
REMARK   10  A    between atoms: C_14  and  C_15 
REMARK   11  A    between atoms: C_15  and  C_16 
REMARK   12  A    between atoms: C_16  and  C_17 
REMARK   13  A    between atoms: C_17  and  C_18 
REMARK   14  A    between atoms: C_18  and  C_19 
ROOT
HETATM    1  C   LIG     1      50.978  11.280   8.036  1.00  0.00     0.180 C 
HETATM    2  C   LIG     1      50.709  12.456   8.972  1.00  0.00     0.183 C 
HETATM    3  C   LIG     1      49.207  12.706   9.144  1.00  0.00     0.204 C 
HETATM    4  C   LIG     1      48.591  12.866   7.741  1.00  0.00     0.291 C 
HETATM    5  O   LIG     1      48.790  11.667   6.991  1.00  0.00    -0.348 OA
HETATM    6  C   LIG     1      50.171  11.401   6.733  1.00  0.00     0.179 C 
ENDROOT
BRANCH   4   7
HETATM    7  O   LIG     1      47.189  13.126   7.835  1.00  0.00    -0.359 OA
BRANCH   7   8
HETATM    8  C   LIG     1      46.551  12.895   6.580  1.00  0.00     0.171 C 
BRANCH   8   9
HETATM    9  C   LIG     1      45.088  12.512   6.766  1.00  0.00     0.026 C 
BRANCH   9  10
HETATM   10  C   LIG     1      44.845  11.132   6.154  1.00  0.00     0.002 C 
BRANCH  10  11
HETATM   11  C   LIG     1      45.847  10.771   5.058  1.00  0.00     0.000 C 
BRANCH  11  12
HETATM   12  C   LIG     1      45.236  11.049   3.682  1.00  0.00     0.000 C 
BRANCH  12  13
HETATM   13  C   LIG     1      45.094   9.779   2.843  1.00  0.00     0.000 C 
BRANCH  13  14
HETATM   14  C   LIG     1      45.779   8.596   3.531  1.00  0.00    -0.000 C 
BRANCH  14  15
HETATM   15  C   LIG     1      46.707   7.850   2.574  1.00  0.00    -0.005 C 
HETATM   16  C   LIG     1      48.004   8.613   2.354  1.00  0.00     0.005 C 
ENDBRANCH  14  15
ENDBRANCH  13  14
ENDBRANCH  12  13
ENDBRANCH  11  12
ENDBRANCH  10  11
ENDBRANCH   9  10
ENDBRANCH   8   9
ENDBRANCH   7   8
ENDBRANCH   4   7
BRANCH   3  17
HETATM   17  O   LIG     1      49.053  13.861   9.987  1.00  0.00    -0.388 OA
HETATM   18  H   LIG     1      49.929  14.241  10.160  1.00  0.00     0.210 HD
ENDBRANCH   3  17
BRANCH   2  19
HETATM   19  O   LIG     1      51.338  12.179  10.233  1.00  0.00    -0.390 OA
HETATM   20  H   LIG     1      52.261  12.498  10.159  1.00  0.00     0.210 HD
ENDBRANCH   2  19
BRANCH   6  21
HETATM   21  C   LIG     1      50.285  10.095   5.927  1.00  0.00     0.198 C 
BRANCH  21  22
HETATM   22  O   LIG     1      51.626   9.840   5.520  1.00  0.00    -0.398 OA
HETATM   23  H   LIG     1      51.691   8.883   5.317  1.00  0.00     0.209 HD
ENDBRANCH  21  22
ENDBRANCH   6  21
BRANCH   1  24
HETATM   24  O   LIG     1      52.382  11.216   7.744  1.00  0.00    -0.390 OA
HETATM   25  H   LIG     1      52.446  10.745   6.886  1.00  0.00     0.210 HD
ENDBRANCH   1  24
TORSDOF 14
ENDMDL
