REMARK AutoDockVina VirtualScreeningResult  Sun Mar  6 21:58:30 2016
USER  AD>  4 of 9 MODELS
USER  AD>  ligand efficiency  -0.2217
USER  AD>  -5.10,  1.892,  3.333
USER  AD> macro_close_ats: 13
USER  AD> hepi:A:LYS192:NZ
USER  AD> hepi:A:SER10:OG
USER  AD> hepi:A:HIS266:NE2
USER  AD> hepi:A:ASP261:OD2
USER  AD> hepi:A:LYS192:H
USER  AD> hepi:A:SER10:H
USER  AD> hepi:A:HIS266:CD2
USER  AD> hepi:A:GLY12:H
USER  AD> hepi:A:LEU264:CG
USER  AD> hepi:A:HIS266:CE1
USER  AD> hepi:A:GLY263:H
USER  AD> hepi:A:LYS192:H
USER  AD> hepi:A:THR262:H

USER  AD> lig_close_ats: 12
USER  AD> h11b_ab10_b3_m4_model1: :LIG1:C,O,C,H,H,H,C,C,H,C,O,C
MODEL 4
REMARK VINA RESULT:      -5.1      1.892      3.333
REMARK  15 active torsions:
REMARK  status: ('A' for Active; 'I' for Inactive)
REMARK    1  A    between atoms: C_1  and  O_7 
REMARK    2  A    between atoms: C_2  and  O_10 
REMARK    3  A    between atoms: C_3  and  O_11 
REMARK    4  A    between atoms: C_4  and  O_12 
REMARK    5  A    between atoms: C_6  and  C_8 
REMARK    6  A    between atoms: C_8  and  O_9 
REMARK    7  A    between atoms: O_12  and  C_13 
REMARK    8  A    between atoms: C_13  and  C_14 
REMARK    9  A    between atoms: C_15  and  C_16 
REMARK   10  A    between atoms: C_16  and  C_17 
REMARK   11  A    between atoms: C_17  and  C_18 
REMARK   12  A    between atoms: C_18  and  C_19 
REMARK   13  A    between atoms: C_19  and  C_20 
REMARK   14  A    between atoms: C_20  and  C_21 
REMARK   15  A    between atoms: C_21  and  C_22 
ROOT
HETATM    1  C   LIG L   1      39.943   2.819   0.675  1.00  0.00     0.180 C 
HETATM    2  C   LIG L   1      41.393   2.514   1.055  1.00  0.00     0.183 C 
HETATM    3  C   LIG L   1      42.060   3.692   1.780  1.00  0.00     0.204 C 
HETATM    4  C   LIG L   1      41.820   5.022   1.017  1.00  0.00     0.291 C 
HETATM    5  O   LIG L   1      40.420   5.171   0.706  1.00  0.00    -0.348 OA
HETATM    6  C   LIG L   1      39.925   4.121  -0.132  1.00  0.00     0.179 C 
ENDROOT
BRANCH   4   7
HETATM    7  O   LIG L   1      42.152   6.178   1.791  1.00  0.00    -0.355 OA
BRANCH   7   8
HETATM    8  C   LIG L   1      41.732   7.428   1.262  1.00  0.00     0.198 C 
BRANCH   8   9
HETATM    9  C   LIG L   1      42.687   8.531   1.613  1.00  0.00    -0.005 C 
HETATM   10  C   LIG L   1      43.969   8.320   1.956  1.00  0.00    -0.029 C 
BRANCH  10  11
HETATM   11  C   LIG L   1      44.932   9.400   2.360  1.00  0.00     0.027 C 
BRANCH  11  12
HETATM   12  C   LIG L   1      46.153   8.802   3.065  1.00  0.00     0.004 C 
BRANCH  12  13
HETATM   13  C   LIG L   1      45.916   8.631   4.567  1.00  0.00     0.000 C 
BRANCH  13  14
HETATM   14  C   LIG L   1      45.917   9.984   5.282  1.00  0.00     0.000 C 
BRANCH  14  15
HETATM   15  C   LIG L   1      47.333  10.425   5.656  1.00  0.00     0.000 C 
BRANCH  15  16
HETATM   16  C   LIG L   1      47.483  11.944   5.560  1.00  0.00    -0.000 C 
BRANCH  16  17
HETATM   17  C   LIG L   1      46.129  12.647   5.649  1.00  0.00    -0.005 C 
HETATM   18  C   LIG L   1      45.943  13.328   6.997  1.00  0.00     0.005 C 
ENDBRANCH  16  17
ENDBRANCH  15  16
ENDBRANCH  14  15
ENDBRANCH  13  14
ENDBRANCH  12  13
ENDBRANCH  11  12
ENDBRANCH  10  11
ENDBRANCH   8   9
ENDBRANCH   7   8
ENDBRANCH   4   7
BRANCH   3  19
HETATM   19  O   LIG L   1      43.455   3.368   1.909  1.00  0.00    -0.388 OA
HETATM   20  H   LIG L   1      43.609   2.641   1.271  1.00  0.00     0.210 HD
ENDBRANCH   3  19
BRANCH   2  21
HETATM   21  O   LIG L   1      41.455   1.361   1.914  1.00  0.00    -0.390 OA
HETATM   22  H   LIG L   1      40.632   1.386   2.445  1.00  0.00     0.210 HD
ENDBRANCH   2  21
BRANCH   6  23
HETATM   23  C   LIG L   1      38.522   4.489  -0.613  1.00  0.00     0.198 C 
BRANCH  23  24
HETATM   24  O   LIG L   1      37.895   5.324   0.353  1.00  0.00    -0.398 OA
HETATM   25  H   LIG L   1      37.239   5.869  -0.119  1.00  0.00     0.209 HD
ENDBRANCH  23  24
ENDBRANCH   6  23
BRANCH   1  26
HETATM   26  O   LIG L   1      39.190   2.938   1.897  1.00  0.00    -0.390 OA
HETATM   27  H   LIG L   1      39.050   2.032   2.239  1.00  0.00     0.210 HD
ENDBRANCH   1  26
TORSDOF 15
ENDMDL
