REMARK AutoDockVina VirtualScreeningResult  Sun Mar  6 21:57:19 2016
USER  AD>  7 of 9 MODELS
USER  AD>  ligand efficiency  -0.3917
USER  AD>  -4.70, 11.677, 12.311
USER  AD> macro_close_ats: 6
USER  AD> hepi:A:GLY263:H
USER  AD> hepi:A:SER10:H
USER  AD> hepi:A:GLY12:H
USER  AD> hepi:A:SER10:OG
USER  AD> hepi:A:HIS266:CD2
USER  AD> hepi:A:GLY263:CA

USER  AD> lig_close_ats: 7
USER  AD> h11b_ab_b2_m7_model1: :LIG1:C,O,C,H,H,O,O
MODEL 7
REMARK VINA RESULT:      -4.7     11.677     12.311
REMARK  6 active torsions:
REMARK  status: ('A' for Active; 'I' for Inactive)
REMARK    1  A    between atoms: C_1  and  O_7 
REMARK    2  A    between atoms: C_2  and  O_10 
REMARK    3  A    between atoms: C_3  and  O_12 
REMARK    4  A    between atoms: C_4  and  O_11 
REMARK    5  A    between atoms: C_6  and  C_8 
REMARK    6  A    between atoms: C_8  and  O_9 
ROOT
HETATM    1  C   LIG     1      40.588   3.473   0.532  1.00  0.00     0.180 C 
HETATM    2  C   LIG     1      40.830   4.870   1.119  1.00  0.00     0.183 C 
HETATM    3  C   LIG     1      42.329   5.141   1.275  1.00  0.00     0.204 C 
HETATM    4  C   LIG     1      43.007   3.979   2.030  1.00  0.00     0.288 C 
HETATM    5  O   LIG     1      42.723   2.735   1.386  1.00  0.00    -0.349 OA
HETATM    6  C   LIG     1      41.319   2.433   1.398  1.00  0.00     0.179 C 
ENDROOT
BRANCH   6   7
HETATM    7  C   LIG     1      41.120   1.003   0.890  1.00  0.00     0.198 C 
BRANCH   7   8
HETATM    8  O   LIG     1      42.358   0.304   0.855  1.00  0.00    -0.398 OA
HETATM    9  H   LIG     1      43.065   0.963   0.742  1.00  0.00     0.209 HD
ENDBRANCH   7   8
ENDBRANCH   6   7
BRANCH   1  10
HETATM   10  O   LIG     1      41.090   3.489  -0.818  1.00  0.00    -0.390 OA
HETATM   11  H   LIG     1      40.853   2.634  -1.231  1.00  0.00     0.210 HD
ENDBRANCH   1  10
BRANCH   2  12
HETATM   12  O   LIG     1      40.275   5.880   0.262  1.00  0.00    -0.390 OA
HETATM   13  H   LIG     1      40.395   5.544  -0.651  1.00  0.00     0.210 HD
ENDBRANCH   2  12
BRANCH   4  14
HETATM   14  O   LIG     1      44.417   4.163   2.050  1.00  0.00    -0.369 OA
HETATM   15  H   LIG     1      44.612   4.728   2.821  1.00  0.00     0.212 HD
ENDBRANCH   4  14
BRANCH   3  16
HETATM   16  O   LIG     1      42.540   6.382   1.961  1.00  0.00    -0.388 OA
HETATM   17  H   LIG     1      42.453   7.076   1.275  1.00  0.00     0.210 HD
ENDBRANCH   3  16
TORSDOF 6
ENDMDL
