REMARK AutoDockVina VirtualScreeningResult  Sun Mar  6 21:58:36 2016
USER  AD>  1 of 9 MODELS
USER  AD>  ligand efficiency  -0.4000
USER  AD>  -5.20,  0.000,  0.000
USER  AD> macro_close_ats: 7
USER  AD> hepi:A:TRP217:CA
USER  AD> hepi:A:MET242:O
USER  AD> hepi:A:TRP217:C
USER  AD> hepi:A:MET242:H
USER  AD> hepi:A:GLY218:CA
USER  AD> hepi:A:TRP217:H
USER  AD> hepi:A:LEU264:CD1

USER  AD> lig_close_ats: 7
USER  AD> h11b_gbm_b3_m1_model1: :LIG1:O,C,C,H,O,C,C
MODEL 1
REMARK VINA RESULT:      -5.2      0.000      0.000
REMARK  6 active torsions:
REMARK  status: ('A' for Active; 'I' for Inactive)
REMARK    1  A    between atoms: C_1  and  O_13 
REMARK    2  A    between atoms: C_2  and  O_9 
REMARK    3  A    between atoms: C_3  and  O_11 
REMARK    4  A    between atoms: C_4  and  O_10 
REMARK    5  A    between atoms: C_6  and  C_7 
REMARK    6  A    between atoms: C_7  and  O_8 
ROOT
HETATM    1  C   LIG L   1      50.432  12.411   8.567  1.00  0.00     0.180 C 
HETATM    2  C   LIG L   1      49.746  11.619   7.452  1.00  0.00     0.183 C 
HETATM    3  C   LIG L   1      48.543  12.374   6.893  1.00  0.00     0.204 C 
HETATM    4  C   LIG L   1      47.627  12.820   8.052  1.00  0.00     0.290 C 
HETATM    5  O   LIG L   1      48.343  13.590   9.016  1.00  0.00    -0.349 OA
HETATM    6  C   LIG L   1      49.398  12.833   9.626  1.00  0.00     0.179 C 
ENDROOT
BRANCH   6   7
HETATM    7  C   LIG L   1      50.053  13.676  10.729  1.00  0.00     0.198 C 
BRANCH   7   8
HETATM    8  O   LIG L   1      51.142  14.449  10.235  1.00  0.00    -0.398 OA
HETATM    9  H   LIG L   1      51.333  14.128   9.327  1.00  0.00     0.209 HD
ENDBRANCH   7   8
ENDBRANCH   6   7
BRANCH   1  10
HETATM   10  O   LIG L   1      51.469  11.611   9.149  1.00  0.00    -0.390 OA
HETATM   11  H   LIG L   1      51.811  12.144   9.899  1.00  0.00     0.210 HD
ENDBRANCH   1  10
BRANCH   2  12
HETATM   12  O   LIG L   1      50.703  11.363   6.411  1.00  0.00    -0.390 OA
HETATM   13  H   LIG L   1      50.257  11.629   5.580  1.00  0.00     0.210 HD
ENDBRANCH   2  12
BRANCH   4  14
HETATM   14  O   LIG L   1      46.469  13.512   7.573  1.00  0.00    -0.363 OA
HETATM   15  C   LIG L   1      45.398  13.596   8.503  1.00  0.00     0.204 C 
ENDBRANCH   4  14
BRANCH   3  16
HETATM   16  O   LIG L   1      47.859  11.509   5.970  1.00  0.00    -0.388 OA
HETATM   17  H   LIG L   1      48.096  11.811   5.075  1.00  0.00     0.210 HD
ENDBRANCH   3  16
TORSDOF 6
ENDMDL
