REMARK AutoDockVina VirtualScreeningResult  Sun Mar  6 21:56:31 2016
USER  AD>  5 of 9 MODELS
USER  AD>  ligand efficiency  -0.3692
USER  AD>  -4.80,  3.413,  6.428
USER  AD> macro_close_ats: 14
USER  AD> hepi:A:LYS192:H
USER  AD> hepi:A:THR187:OG1
USER  AD> hepi:A:LYS192:H
USER  AD> hepi:A:THR262:CA
USER  AD> hepi:A:MET11:H
USER  AD> hepi:A:THR188:H
USER  AD> hepi:A:GLY263:H
USER  AD> hepi:A:MET11:N
USER  AD> hepi:A:SER10:C
USER  AD> hepi:A:LYS192:NZ
USER  AD> hepi:A:GLY12:H
USER  AD> hepi:A:MET11:CB
USER  AD> hepi:A:ASP261:O
USER  AD> hepi:A:MET11:CA

USER  AD> lig_close_ats: 8
USER  AD> h11b_abm_b1_m5_model1: :LIG1:O,C,O,H,O,H,C,O
MODEL 5
REMARK VINA RESULT:      -4.8      3.413      6.428
REMARK  6 active torsions:
REMARK  status: ('A' for Active; 'I' for Inactive)
REMARK    1  A    between atoms: C_1  and  O_7 
REMARK    2  A    between atoms: C_2  and  O_10 
REMARK    3  A    between atoms: C_3  and  O_12 
REMARK    4  A    between atoms: C_4  and  O_11 
REMARK    5  A    between atoms: C_6  and  C_8 
REMARK    6  A    between atoms: C_8  and  O_9 
ROOT
HETATM    1  C   LIG     1      44.173   7.469   1.137  1.00  0.00     0.180 C 
HETATM    2  C   LIG     1      43.083   8.538   1.203  1.00  0.00     0.183 C 
HETATM    3  C   LIG     1      41.770   7.969   1.751  1.00  0.00     0.204 C 
HETATM    4  C   LIG     1      41.397   6.658   1.027  1.00  0.00     0.290 C 
HETATM    5  O   LIG     1      42.495   5.736   0.987  1.00  0.00    -0.349 OA
HETATM    6  C   LIG     1      43.647   6.276   0.324  1.00  0.00     0.179 C 
ENDROOT
BRANCH   6   7
HETATM    7  C   LIG     1      44.700   5.171   0.181  1.00  0.00     0.198 C 
BRANCH   7   8
HETATM    8  O   LIG     1      44.620   4.254   1.265  1.00  0.00    -0.398 OA
HETATM    9  H   LIG     1      45.531   4.033   1.534  1.00  0.00     0.209 HD
ENDBRANCH   7   8
ENDBRANCH   6   7
BRANCH   1  10
HETATM   10  O   LIG     1      44.492   7.093   2.490  1.00  0.00    -0.390 OA
HETATM   11  H   LIG     1      45.458   7.192   2.603  1.00  0.00     0.210 HD
ENDBRANCH   1  10
BRANCH   2  12
HETATM   12  O   LIG     1      43.498   9.624   2.047  1.00  0.00    -0.390 OA
HETATM   13  H   LIG     1      44.032  10.213   1.474  1.00  0.00     0.210 HD
ENDBRANCH   2  12
BRANCH   4  14
HETATM   14  O   LIG     1      40.326   6.047   1.752  1.00  0.00    -0.363 OA
HETATM   15  C   LIG     1      40.690   4.783   2.283  1.00  0.00     0.204 C 
ENDBRANCH   4  14
BRANCH   3  16
HETATM   16  O   LIG     1      40.745   8.963   1.581  1.00  0.00    -0.388 OA
HETATM   17  H   LIG     1      39.901   8.488   1.712  1.00  0.00     0.210 HD
ENDBRANCH   3  16
TORSDOF 6
ENDMDL
