REMARK AutoDockVina VirtualScreeningResult  Sun Mar  6 21:56:40 2016
USER  AD>  7 of 9 MODELS
USER  AD>  ligand efficiency  -0.2524
USER  AD>  -5.30,  6.039,  8.563
USER  AD> macro_close_ats: 11
USER  AD> hepi:A:MET11:H
USER  AD> hepi:A:GLY263:H
USER  AD> hepi:A:ILE287:CD1
USER  AD> hepi:A:HIS266:CD2
USER  AD> hepi:A:LYS192:H
USER  AD> hepi:A:PHE41:CE2
USER  AD> hepi:A:PHE41:CZ
USER  AD> hepi:A:LYS192:NZ
USER  AD> hepi:A:SER10:CA
USER  AD> hepi:A:LYS192:H
USER  AD> hepi:A:SER10:H

USER  AD> lig_close_ats: 12
USER  AD> h11b_aa8_b1_m7_model1: :LIG1:C,C,C,O,H,C,O,H,C,C,H,C
MODEL 7
REMARK VINA RESULT:      -5.3      6.039      8.563
REMARK  13 active torsions:
REMARK  status: ('A' for Active; 'I' for Inactive)
REMARK    1  A    between atoms: C_1  and  O_7 
REMARK    2  A    between atoms: C_2  and  O_10 
REMARK    3  A    between atoms: C_3  and  O_11 
REMARK    4  A    between atoms: C_4  and  O_12 
REMARK    5  A    between atoms: C_6  and  C_8 
REMARK    6  A    between atoms: C_8  and  O_9 
REMARK    7  A    between atoms: O_12  and  C_13 
REMARK    8  A    between atoms: C_13  and  C_14 
REMARK    9  A    between atoms: C_15  and  C_16 
REMARK   10  A    between atoms: C_16  and  C_17 
REMARK   11  A    between atoms: C_17  and  C_18 
REMARK   12  A    between atoms: C_18  and  C_19 
REMARK   13  A    between atoms: C_19  and  C_20 
ROOT
HETATM    1  C   LIG     1      39.117   4.620  -0.359  1.00  0.00     0.180 C 
HETATM    2  C   LIG     1      39.498   4.000   0.994  1.00  0.00     0.183 C 
HETATM    3  C   LIG     1      39.817   5.124   1.987  1.00  0.00     0.204 C 
HETATM    4  C   LIG     1      40.982   5.960   1.401  1.00  0.00     0.291 C 
HETATM    5  O   LIG     1      40.564   6.530   0.143  1.00  0.00    -0.348 OA
HETATM    6  C   LIG     1      40.263   5.529  -0.848  1.00  0.00     0.179 C 
ENDROOT
BRANCH   4   7
HETATM    7  O   LIG     1      42.183   5.204   1.196  1.00  0.00    -0.355 OA
BRANCH   7   8
HETATM    8  C   LIG     1      43.335   5.998   1.432  1.00  0.00     0.198 C 
BRANCH   8   9
HETATM    9  C   LIG     1      44.510   5.419   0.731  1.00  0.00    -0.005 C 
HETATM   10  C   LIG     1      45.047   6.127  -0.270  1.00  0.00    -0.029 C 
BRANCH  10  11
HETATM   11  C   LIG     1      46.305   5.703  -0.963  1.00  0.00     0.027 C 
BRANCH  11  12
HETATM   12  C   LIG     1      46.588   6.631  -2.124  1.00  0.00     0.004 C 
BRANCH  12  13
HETATM   13  C   LIG     1      48.044   6.490  -2.518  1.00  0.00     0.000 C 
BRANCH  13  14
HETATM   14  C   LIG     1      48.231   5.314  -3.454  1.00  0.00    -0.000 C 
BRANCH  14  15
HETATM   15  C   LIG     1      49.710   5.088  -3.724  1.00  0.00    -0.005 C 
HETATM   16  C   LIG     1      50.527   6.247  -3.190  1.00  0.00     0.005 C 
ENDBRANCH  14  15
ENDBRANCH  13  14
ENDBRANCH  12  13
ENDBRANCH  11  12
ENDBRANCH  10  11
ENDBRANCH   8   9
ENDBRANCH   7   8
ENDBRANCH   4   7
BRANCH   3  17
HETATM   17  O   LIG     1      40.060   4.616   3.305  1.00  0.00    -0.388 OA
HETATM   18  H   LIG     1      41.005   4.364   3.341  1.00  0.00     0.210 HD
ENDBRANCH   3  17
BRANCH   2  19
HETATM   19  O   LIG     1      38.431   3.200   1.511  1.00  0.00    -0.390 OA
HETATM   20  H   LIG     1      37.801   3.084   0.772  1.00  0.00     0.210 HD
ENDBRANCH   2  19
BRANCH   6  21
HETATM   21  C   LIG     1      39.921   6.231  -2.168  1.00  0.00     0.198 C 
BRANCH  21  22
HETATM   22  O   LIG     1      38.873   7.182  -2.003  1.00  0.00    -0.398 OA
HETATM   23  H   LIG     1      38.465   7.333  -2.873  1.00  0.00     0.209 HD
ENDBRANCH  21  22
ENDBRANCH   6  21
BRANCH   1  24
HETATM   24  O   LIG     1      37.895   5.360  -0.162  1.00  0.00    -0.390 OA
HETATM   25  H   LIG     1      38.065   6.050   0.507  1.00  0.00     0.210 HD
ENDBRANCH   1  24
TORSDOF 13
ENDMDL
