REMARK AutoDockVina VirtualScreeningResult  Sun Mar  6 21:57:25 2016
USER  AD>  7 of 9 MODELS
USER  AD>  ligand efficiency  -0.3267
USER  AD>  -4.90, 16.715, 18.720
USER  AD> macro_close_ats: 12
USER  AD> hepi:A:VAL236:O
USER  AD> hepi:A:PHE233:N
USER  AD> hepi:A:LYS227:CG
USER  AD> hepi:A:ALA230:C
USER  AD> hepi:A:GLU231:CA
USER  AD> hepi:A:VAL238:H
USER  AD> hepi:A:ALA230:O
USER  AD> hepi:A:GLY232:H
USER  AD> hepi:A:PHE233:H
USER  AD> hepi:A:PHE233:CA
USER  AD> hepi:A:PHE233:O
USER  AD> hepi:A:PHE233:C

USER  AD> lig_close_ats: 8
USER  AD> h11b_ab3_b2_m7_model1: :LIG1:C,O,C,H,H,O,O,H
MODEL 7
REMARK VINA RESULT:      -4.9     16.715     18.720
REMARK  8 active torsions:
REMARK  status: ('A' for Active; 'I' for Inactive)
REMARK    1  A    between atoms: C_1  and  O_7 
REMARK    2  A    between atoms: C_2  and  O_10 
REMARK    3  A    between atoms: C_3  and  O_11 
REMARK    4  A    between atoms: C_4  and  O_12 
REMARK    5  A    between atoms: C_6  and  C_8 
REMARK    6  A    between atoms: C_8  and  O_9 
REMARK    7  A    between atoms: O_12  and  C_13 
REMARK    8  A    between atoms: C_13  and  C_14 
ROOT
HETATM    1  C   LIG     1      43.368  25.595  20.920  1.00  0.00     0.180 C 
HETATM    2  C   LIG     1      42.601  26.911  20.812  1.00  0.00     0.183 C 
HETATM    3  C   LIG     1      42.503  27.403  19.360  1.00  0.00     0.204 C 
HETATM    4  C   LIG     1      43.888  27.360  18.665  1.00  0.00     0.291 C 
HETATM    5  O   LIG     1      44.523  26.083  18.873  1.00  0.00    -0.348 OA
HETATM    6  C   LIG     1      44.737  25.776  20.254  1.00  0.00     0.179 C 
ENDROOT
BRANCH   4   7
HETATM    7  O   LIG     1      43.791  27.499  17.245  1.00  0.00    -0.355 OA
BRANCH   7   8
HETATM    8  C   LIG     1      44.259  26.400  16.474  1.00  0.00     0.197 C 
BRANCH   8   9
HETATM    9  C   LIG     1      45.568  26.715  15.817  1.00  0.00    -0.011 C 
HETATM   10  C   LIG     1      46.642  25.914  15.860  1.00  0.00     0.009 C 
ENDBRANCH   8   9
ENDBRANCH   7   8
ENDBRANCH   4   7
BRANCH   3  11
HETATM   11  O   LIG     1      41.945  28.728  19.401  1.00  0.00    -0.388 OA
HETATM   12  H   LIG     1      42.608  29.298  18.962  1.00  0.00     0.210 HD
ENDBRANCH   3  11
BRANCH   2  13
HETATM   13  O   LIG     1      41.266  26.758  21.326  1.00  0.00    -0.390 OA
HETATM   14  H   LIG     1      41.129  25.790  21.411  1.00  0.00     0.210 HD
ENDBRANCH   2  13
BRANCH   6  15
HETATM   15  C   LIG     1      45.595  24.512  20.349  1.00  0.00     0.198 C 
BRANCH  15  16
HETATM   16  O   LIG     1      45.224  23.582  19.339  1.00  0.00    -0.398 OA
HETATM   17  H   LIG     1      44.306  23.312  19.511  1.00  0.00     0.209 HD
ENDBRANCH  15  16
ENDBRANCH   6  15
BRANCH   1  18
HETATM   18  O   LIG     1      42.582  24.585  20.259  1.00  0.00    -0.390 OA
HETATM   19  H   LIG     1      41.761  25.015  19.944  1.00  0.00     0.210 HD
ENDBRANCH   1  18
TORSDOF 8
ENDMDL
