REMARK AutoDockVina VirtualScreeningResult  Sun Mar  6 21:57:02 2016
USER  AD>  3 of 9 MODELS
USER  AD>  ligand efficiency  -0.2476
USER  AD>  -5.20,  3.706,  5.809
USER  AD> macro_close_ats: 10
USER  AD> hepi:A:LYS7:H
USER  AD> hepi:A:ILE287:CB
USER  AD> hepi:A:ILE287:CA
USER  AD> hepi:A:ARG143:H
USER  AD> hepi:A:LYS7:NZ
USER  AD> hepi:A:HIS16:CE1
USER  AD> hepi:A:ARG143:NH1
USER  AD> hepi:A:ARG143:H
USER  AD> hepi:A:LYS7:H
USER  AD> hepi:A:ARG120:CD

USER  AD> lig_close_ats: 8
USER  AD> h11b_ga8_b1_m3_model1: :LIG1:H,O,C,O,H,O,C,C
MODEL 3
REMARK VINA RESULT:      -5.2      3.706      5.809
REMARK  13 active torsions:
REMARK  status: ('A' for Active; 'I' for Inactive)
REMARK    1  A    between atoms: C_1  and  O_21 
REMARK    2  A    between atoms: C_2  and  O_9 
REMARK    3  A    between atoms: C_3  and  O_10 
REMARK    4  A    between atoms: C_4  and  O_11 
REMARK    5  A    between atoms: C_6  and  C_7 
REMARK    6  A    between atoms: C_7  and  O_8 
REMARK    7  A    between atoms: O_11  and  C_12 
REMARK    8  A    between atoms: C_12  and  C_13 
REMARK    9  A    between atoms: C_14  and  C_15 
REMARK   10  A    between atoms: C_15  and  C_16 
REMARK   11  A    between atoms: C_16  and  C_17 
REMARK   12  A    between atoms: C_17  and  C_18 
REMARK   13  A    between atoms: C_18  and  C_19 
ROOT
HETATM    1  C   LIG     1      43.102  -6.100  -4.388  1.00  0.00     0.180 C 
HETATM    2  C   LIG     1      41.921  -6.938  -3.873  1.00  0.00     0.183 C 
HETATM    3  C   LIG     1      40.606  -6.227  -4.164  1.00  0.00     0.204 C 
HETATM    4  C   LIG     1      40.646  -4.835  -3.507  1.00  0.00     0.291 C 
HETATM    5  O   LIG     1      41.708  -4.077  -4.102  1.00  0.00    -0.348 OA
HETATM    6  C   LIG     1      43.015  -4.639  -3.892  1.00  0.00     0.179 C 
ENDROOT
BRANCH   4   7
HETATM    7  O   LIG     1      40.835  -4.889  -2.088  1.00  0.00    -0.355 OA
BRANCH   7   8
HETATM    8  C   LIG     1      39.629  -4.612  -1.379  1.00  0.00     0.198 C 
BRANCH   8   9
HETATM    9  C   LIG     1      39.807  -3.348  -0.597  1.00  0.00    -0.005 C 
HETATM   10  C   LIG     1      39.268  -3.172   0.622  1.00  0.00    -0.029 C 
BRANCH  10  11
HETATM   11  C   LIG     1      39.377  -1.909   1.427  1.00  0.00     0.027 C 
BRANCH  11  12
HETATM   12  C   LIG     1      39.712  -0.717   0.523  1.00  0.00     0.004 C 
BRANCH  12  13
HETATM   13  C   LIG     1      40.978   0.007   0.985  1.00  0.00     0.000 C 
BRANCH  13  14
HETATM   14  C   LIG     1      40.776   1.523   0.979  1.00  0.00    -0.000 C 
BRANCH  14  15
HETATM   15  C   LIG     1      39.438   1.903   0.346  1.00  0.00    -0.005 C 
HETATM   16  C   LIG     1      39.590   3.068  -0.620  1.00  0.00     0.005 C 
ENDBRANCH  14  15
ENDBRANCH  13  14
ENDBRANCH  12  13
ENDBRANCH  11  12
ENDBRANCH  10  11
ENDBRANCH   8   9
ENDBRANCH   7   8
ENDBRANCH   4   7
BRANCH   3  17
HETATM   17  O   LIG     1      39.511  -7.040  -3.731  1.00  0.00    -0.388 OA
HETATM   18  H   LIG     1      38.807  -6.891  -4.395  1.00  0.00     0.210 HD
ENDBRANCH   3  17
BRANCH   2  19
HETATM   19  O   LIG     1      41.869  -8.234  -4.498  1.00  0.00    -0.390 OA
HETATM   20  H   LIG     1      41.162  -8.744  -4.060  1.00  0.00     0.210 HD
ENDBRANCH   2  19
BRANCH   6  21
HETATM   21  C   LIG     1      44.007  -3.718  -4.629  1.00  0.00     0.198 C 
BRANCH  21  22
HETATM   22  O   LIG     1      45.354  -4.164  -4.583  1.00  0.00    -0.398 OA
HETATM   23  H   LIG     1      45.352  -5.115  -4.380  1.00  0.00     0.209 HD
ENDBRANCH  21  22
ENDBRANCH   6  21
BRANCH   1  24
HETATM   24  O   LIG     1      44.318  -6.749  -4.002  1.00  0.00    -0.390 OA
HETATM   25  H   LIG     1      44.290  -7.673  -4.305  1.00  0.00     0.210 HD
ENDBRANCH   1  24
TORSDOF 13
ENDMDL
