REMARK AutoDockVina VirtualScreeningResult  Sun Mar  6 21:57:25 2016
USER  AD>  2 of 9 MODELS
USER  AD>  ligand efficiency  -0.3467
USER  AD>  -5.20,  0.857,  1.228
USER  AD> macro_close_ats: 8
USER  AD> hepi:A:MET242:CG
USER  AD> hepi:A:LEU264:CD1
USER  AD> hepi:A:VAL247:CB
USER  AD> hepi:A:MET242:O
USER  AD> hepi:A:MET242:N
USER  AD> hepi:A:ALA186:CB
USER  AD> hepi:A:MET242:H
USER  AD> hepi:A:LEU244:CD1

USER  AD> lig_close_ats: 8
USER  AD> h11b_ab3_b2_m2_model1: :LIG1:C,C,C,H,O,C,H,H
MODEL 2
REMARK VINA RESULT:      -5.2      0.857      1.228
REMARK  8 active torsions:
REMARK  status: ('A' for Active; 'I' for Inactive)
REMARK    1  A    between atoms: C_1  and  O_7 
REMARK    2  A    between atoms: C_2  and  O_10 
REMARK    3  A    between atoms: C_3  and  O_11 
REMARK    4  A    between atoms: C_4  and  O_12 
REMARK    5  A    between atoms: C_6  and  C_8 
REMARK    6  A    between atoms: C_8  and  O_9 
REMARK    7  A    between atoms: O_12  and  C_13 
REMARK    8  A    between atoms: C_13  and  C_14 
ROOT
HETATM    1  C   LIG L   1      50.971  11.758   8.619  1.00  0.00     0.180 C 
HETATM    2  C   LIG L   1      50.311  10.744   7.685  1.00  0.00     0.183 C 
HETATM    3  C   LIG L   1      49.245  11.394   6.791  1.00  0.00     0.204 C 
HETATM    4  C   LIG L   1      48.285  12.281   7.626  1.00  0.00     0.291 C 
HETATM    5  O   LIG L   1      49.028  13.163   8.490  1.00  0.00    -0.348 OA
HETATM    6  C   LIG L   1      49.871  12.470   9.415  1.00  0.00     0.179 C 
ENDROOT
BRANCH   4   7
HETATM    7  O   LIG L   1      47.490  13.145   6.810  1.00  0.00    -0.355 OA
BRANCH   7   8
HETATM    8  C   LIG L   1      46.112  13.234   7.148  1.00  0.00     0.197 C 
BRANCH   8   9
HETATM    9  C   LIG L   1      45.253  12.588   6.105  1.00  0.00    -0.011 C 
HETATM   10  C   LIG L   1      45.121  11.262   5.957  1.00  0.00     0.009 C 
ENDBRANCH   8   9
ENDBRANCH   7   8
ENDBRANCH   4   7
BRANCH   3  11
HETATM   11  O   LIG L   1      48.562  10.329   6.108  1.00  0.00    -0.388 OA
HETATM   12  H   LIG L   1      48.658   9.549   6.692  1.00  0.00     0.210 HD
ENDBRANCH   3  11
BRANCH   2  13
HETATM   13  O   LIG L   1      51.295  10.129   6.837  1.00  0.00    -0.390 OA
HETATM   14  H   LIG L   1      50.806   9.459   6.313  1.00  0.00     0.210 HD
ENDBRANCH   2  13
BRANCH   6  15
HETATM   15  C   LIG L   1      50.445  13.482  10.411  1.00  0.00     0.198 C 
BRANCH  15  16
HETATM   16  O   LIG L   1      51.184  14.487   9.727  1.00  0.00    -0.398 OA
HETATM   17  H   LIG L   1      51.291  15.238  10.337  1.00  0.00     0.209 HD
ENDBRANCH  15  16
ENDBRANCH   6  15
BRANCH   1  18
HETATM   18  O   LIG L   1      51.715  12.677   7.797  1.00  0.00    -0.390 OA
HETATM   19  H   LIG L   1      51.904  13.467   8.342  1.00  0.00     0.210 HD
ENDBRANCH   1  18
TORSDOF 8
ENDMDL
