REMARK AutoDockVina VirtualScreeningResult  Sun Mar  6 21:56:50 2016
USER  AD>  8 of 9 MODELS
USER  AD>  ligand efficiency  -0.4000
USER  AD>  -4.80,  1.223,  3.722
USER  AD> macro_close_ats: 7
USER  AD> hepi:A:LYS192:H
USER  AD> hepi:A:HIS266:NE2
USER  AD> hepi:A:ASP261:CG
USER  AD> hepi:A:LYS192:H
USER  AD> hepi:A:LYS192:NZ
USER  AD> hepi:A:MET11:H
USER  AD> hepi:A:GLY12:CA

USER  AD> lig_close_ats: 6
USER  AD> h11b_gb_b1_m8_model1: :LIG1:C,H,H,O,O,H
MODEL 8
REMARK VINA RESULT:      -4.8      1.223      3.722
REMARK  6 active torsions:
REMARK  status: ('A' for Active; 'I' for Inactive)
REMARK    1  A    between atoms: C_1  and  O_12 
REMARK    2  A    between atoms: C_2  and  O_9 
REMARK    3  A    between atoms: C_3  and  O_11 
REMARK    4  A    between atoms: C_4  and  O_10 
REMARK    5  A    between atoms: C_6  and  C_7 
REMARK    6  A    between atoms: C_7  and  O_8 
ROOT
HETATM    1  C   LIG     1      41.193   5.512   0.902  1.00  0.00     0.180 C 
HETATM    2  C   LIG     1      39.843   4.810   1.081  1.00  0.00     0.183 C 
HETATM    3  C   LIG     1      40.021   3.479   1.816  1.00  0.00     0.204 C 
HETATM    4  C   LIG     1      41.074   2.636   1.066  1.00  0.00     0.288 C 
HETATM    5  O   LIG     1      42.312   3.341   1.043  1.00  0.00    -0.349 OA
HETATM    6  C   LIG     1      42.230   4.555   0.287  1.00  0.00     0.179 C 
ENDROOT
BRANCH   6   7
HETATM    7  C   LIG     1      43.616   5.219   0.256  1.00  0.00     0.198 C 
BRANCH   7   8
HETATM    8  O   LIG     1      44.611   4.413   0.879  1.00  0.00    -0.398 OA
HETATM    9  H   LIG     1      45.468   4.883   0.786  1.00  0.00     0.209 HD
ENDBRANCH   7   8
ENDBRANCH   6   7
BRANCH   1  10
HETATM   10  O   LIG     1      41.019   6.674   0.081  1.00  0.00    -0.390 OA
HETATM   11  H   LIG     1      40.713   7.380   0.690  1.00  0.00     0.210 HD
ENDBRANCH   1  10
BRANCH   2  12
HETATM   12  O   LIG     1      38.968   5.709   1.781  1.00  0.00    -0.390 OA
HETATM   13  H   LIG     1      38.364   6.115   1.131  1.00  0.00     0.210 HD
ENDBRANCH   2  12
BRANCH   4  14
HETATM   14  O   LIG     1      41.272   1.377   1.691  1.00  0.00    -0.369 OA
HETATM   15  H   LIG     1      42.229   1.244   1.798  1.00  0.00     0.212 HD
ENDBRANCH   4  14
BRANCH   3  16
HETATM   16  O   LIG     1      38.768   2.805   1.954  1.00  0.00    -0.388 OA
HETATM   17  H   LIG     1      38.888   1.867   1.716  1.00  0.00     0.210 HD
ENDBRANCH   3  16
TORSDOF 6
ENDMDL
