REMARK AutoDockVina VirtualScreeningResult  Sun Mar  6 21:57:29 2016
USER  AD>  6 of 9 MODELS
USER  AD>  ligand efficiency  -0.2550
USER  AD>  -5.10, 17.814, 19.604
USER  AD> macro_close_ats: 13
USER  AD> hepi:A:HIS193:ND1
USER  AD> hepi:A:ASP191:CB
USER  AD> hepi:A:HIS193:CB
USER  AD> hepi:A:GLU196:H
USER  AD> hepi:A:GLU303:CG
USER  AD> hepi:A:PRO281:CB
USER  AD> hepi:A:GLU196:N
USER  AD> hepi:A:PRO195:CA
USER  AD> hepi:A:PRO195:CB
USER  AD> hepi:A:SER305:H
USER  AD> hepi:A:HIS193:CG
USER  AD> hepi:A:LEU304:H
USER  AD> hepi:A:LEU304:CB

USER  AD> lig_close_ats: 12
USER  AD> h11b_ab7_b2_m6_model1: :LIG1:C,C,C,C,O,C,H,C,O,C,H,H
MODEL 6
REMARK VINA RESULT:      -5.1     17.814     19.604
REMARK  12 active torsions:
REMARK  status: ('A' for Active; 'I' for Inactive)
REMARK    1  A    between atoms: C_1  and  O_7 
REMARK    2  A    between atoms: C_2  and  O_10 
REMARK    3  A    between atoms: C_3  and  O_11 
REMARK    4  A    between atoms: C_4  and  O_12 
REMARK    5  A    between atoms: C_6  and  C_8 
REMARK    6  A    between atoms: C_8  and  O_9 
REMARK    7  A    between atoms: O_12  and  C_13 
REMARK    8  A    between atoms: C_13  and  C_14 
REMARK    9  A    between atoms: C_15  and  C_16 
REMARK   10  A    between atoms: C_16  and  C_17 
REMARK   11  A    between atoms: C_17  and  C_18 
REMARK   12  A    between atoms: C_18  and  C_19 
ROOT
HETATM    1  C   LIG L   1      34.401  20.949   4.814  1.00  0.00     0.180 C 
HETATM    2  C   LIG L   1      32.965  21.464   4.740  1.00  0.00     0.183 C 
HETATM    3  C   LIG L   1      31.995  20.394   4.219  1.00  0.00     0.204 C 
HETATM    4  C   LIG L   1      32.542  19.732   2.927  1.00  0.00     0.291 C 
HETATM    5  O   LIG L   1      33.912  19.321   3.114  1.00  0.00    -0.348 OA
HETATM    6  C   LIG L   1      34.792  20.402   3.436  1.00  0.00     0.179 C 
ENDROOT
BRANCH   4   7
HETATM    7  O   LIG L   1      31.849  18.531   2.575  1.00  0.00    -0.355 OA
BRANCH   7   8
HETATM    8  C   LIG L   1      30.992  18.601   1.445  1.00  0.00     0.198 C 
BRANCH   8   9
HETATM    9  C   LIG L   1      29.916  17.558   1.493  1.00  0.00    -0.005 C 
HETATM   10  C   LIG L   1      29.989  16.452   2.251  1.00  0.00    -0.029 C 
BRANCH  10  11
HETATM   11  C   LIG L   1      28.960  15.357   2.264  1.00  0.00     0.027 C 
BRANCH  11  12
HETATM   12  C   LIG L   1      28.296  15.222   0.891  1.00  0.00     0.004 C 
BRANCH  12  13
HETATM   13  C   LIG L   1      28.025  13.759   0.532  1.00  0.00    -0.000 C 
BRANCH  13  14
HETATM   14  C   LIG L   1      27.550  13.626  -0.916  1.00  0.00    -0.005 C 
HETATM   15  C   LIG L   1      27.644  12.190  -1.408  1.00  0.00     0.005 C 
ENDBRANCH  13  14
ENDBRANCH  12  13
ENDBRANCH  11  12
ENDBRANCH  10  11
ENDBRANCH   8   9
ENDBRANCH   7   8
ENDBRANCH   4   7
BRANCH   3  16
HETATM   16  O   LIG L   1      30.726  21.041   4.019  1.00  0.00    -0.388 OA
HETATM   17  H   LIG L   1      30.798  21.895   4.493  1.00  0.00     0.210 HD
ENDBRANCH   3  16
BRANCH   2  18
HETATM   18  O   LIG L   1      32.515  21.885   6.039  1.00  0.00    -0.390 OA
HETATM   19  H   LIG L   1      31.668  21.412   6.188  1.00  0.00     0.210 HD
ENDBRANCH   2  18
BRANCH   6  20
HETATM   20  C   LIG L   1      36.232  19.882   3.413  1.00  0.00     0.198 C 
BRANCH  20  21
HETATM   21  O   LIG L   1      36.598  19.379   4.693  1.00  0.00    -0.398 OA
HETATM   22  H   LIG L   1      36.275  18.463   4.750  1.00  0.00     0.209 HD
ENDBRANCH  20  21
ENDBRANCH   6  20
BRANCH   1  23
HETATM   23  O   LIG L   1      34.434  19.925   5.827  1.00  0.00    -0.390 OA
HETATM   24  H   LIG L   1      33.507  19.703   6.047  1.00  0.00     0.210 HD
ENDBRANCH   1  23
TORSDOF 12
ENDMDL
