REMARK AutoDockVina VirtualScreeningResult  Sun Mar  6 21:58:23 2016
USER  AD>  8 of 9 MODELS
USER  AD>  ligand efficiency  -0.2524
USER  AD>  -5.30, 22.783, 23.832
USER  AD> macro_close_ats: 9
USER  AD> hepi:A:ASN293:H
USER  AD> hepi:A:PHE256:CE2
USER  AD> hepi:A:ALA320:CA
USER  AD> hepi:A:PRO274:CB
USER  AD> hepi:A:PHE256:CD2
USER  AD> hepi:A:LYS255:CE
USER  AD> hepi:A:LEU206:CD2
USER  AD> hepi:A:ASN293:ND2
USER  AD> hepi:A:PRO274:CG

USER  AD> lig_close_ats: 11
USER  AD> h11b_aa8_b3_m8_model1: :LIG1:C,C,C,H,C,C,H,C,C,O,O
MODEL 8
REMARK VINA RESULT:      -5.3     22.783     23.832
REMARK  13 active torsions:
REMARK  status: ('A' for Active; 'I' for Inactive)
REMARK    1  A    between atoms: C_1  and  O_7 
REMARK    2  A    between atoms: C_2  and  O_10 
REMARK    3  A    between atoms: C_3  and  O_11 
REMARK    4  A    between atoms: C_4  and  O_12 
REMARK    5  A    between atoms: C_6  and  C_8 
REMARK    6  A    between atoms: C_8  and  O_9 
REMARK    7  A    between atoms: O_12  and  C_13 
REMARK    8  A    between atoms: C_13  and  C_14 
REMARK    9  A    between atoms: C_15  and  C_16 
REMARK   10  A    between atoms: C_16  and  C_17 
REMARK   11  A    between atoms: C_17  and  C_18 
REMARK   12  A    between atoms: C_18  and  C_19 
REMARK   13  A    between atoms: C_19  and  C_20 
ROOT
HETATM    1  C   LIG L   1      36.975   0.172  25.238  1.00  0.00     0.180 C 
HETATM    2  C   LIG L   1      35.714   0.679  24.520  1.00  0.00     0.183 C 
HETATM    3  C   LIG L   1      36.124   1.696  23.449  1.00  0.00     0.204 C 
HETATM    4  C   LIG L   1      36.876   2.853  24.153  1.00  0.00     0.291 C 
HETATM    5  O   LIG L   1      38.056   2.324  24.793  1.00  0.00    -0.348 OA
HETATM    6  C   LIG L   1      37.746   1.370  25.828  1.00  0.00     0.179 C 
ENDROOT
BRANCH   4   7
HETATM    7  O   LIG L   1      36.082   3.542  25.130  1.00  0.00    -0.355 OA
BRANCH   7   8
HETATM    8  C   LIG L   1      35.899   4.902  24.772  1.00  0.00     0.198 C 
BRANCH   8   9
HETATM    9  C   LIG L   1      36.169   5.781  25.940  1.00  0.00    -0.005 C 
HETATM   10  C   LIG L   1      35.696   7.032  25.898  1.00  0.00    -0.029 C 
BRANCH  10  11
HETATM   11  C   LIG L   1      35.799   7.964  27.066  1.00  0.00     0.027 C 
BRANCH  11  12
HETATM   12  C   LIG L   1      36.039   9.375  26.575  1.00  0.00     0.004 C 
BRANCH  12  13
HETATM   13  C   LIG L   1      34.719  10.118  26.565  1.00  0.00     0.000 C 
BRANCH  13  14
HETATM   14  C   LIG L   1      34.535  10.858  25.256  1.00  0.00    -0.000 C 
BRANCH  14  15
HETATM   15  C   LIG L   1      33.382  10.255  24.469  1.00  0.00    -0.005 C 
HETATM   16  C   LIG L   1      32.656   9.221  25.306  1.00  0.00     0.005 C 
ENDBRANCH  14  15
ENDBRANCH  13  14
ENDBRANCH  12  13
ENDBRANCH  11  12
ENDBRANCH  10  11
ENDBRANCH   8   9
ENDBRANCH   7   8
ENDBRANCH   4   7
BRANCH   3  17
HETATM   17  O   LIG L   1      35.004   2.115  22.659  1.00  0.00    -0.388 OA
HETATM   18  H   LIG L   1      35.146   3.060  22.445  1.00  0.00     0.210 HD
ENDBRANCH   3  17
BRANCH   2  19
HETATM   19  O   LIG L   1      35.006  -0.399  23.904  1.00  0.00    -0.390 OA
HETATM   20  H   LIG L   1      35.541  -1.202  24.070  1.00  0.00     0.210 HD
ENDBRANCH   2  19
BRANCH   6  21
HETATM   21  C   LIG L   1      39.053   0.939  26.506  1.00  0.00     0.198 C 
BRANCH  21  22
HETATM   22  O   LIG L   1      40.118   0.818  25.568  1.00  0.00    -0.398 OA
HETATM   23  H   LIG L   1      40.153  -0.108  25.272  1.00  0.00     0.209 HD
ENDBRANCH  21  22
ENDBRANCH   6  21
BRANCH   1  24
HETATM   24  O   LIG L   1      37.763  -0.543  24.264  1.00  0.00    -0.390 OA
HETATM   25  H   LIG L   1      37.245  -1.314  23.966  1.00  0.00     0.210 HD
ENDBRANCH   1  24
TORSDOF 13
ENDMDL
