REMARK AutoDockVina VirtualScreeningResult  Sun Mar  6 21:56:38 2016
USER  AD>  3 of 9 MODELS
USER  AD>  ligand efficiency  -0.2650
USER  AD>  -5.30, 11.708, 14.467
USER  AD> macro_close_ats: 11
USER  AD> hepi:A:VAL247:CG1
USER  AD> hepi:A:VAL247:CG2
USER  AD> hepi:A:ALA186:O
USER  AD> hepi:A:LEU264:CD2
USER  AD> hepi:A:THR262:H
USER  AD> hepi:A:LEU244:CD1
USER  AD> hepi:A:TRP217:H
USER  AD> hepi:A:LEU264:H
USER  AD> hepi:A:THR262:OG1
USER  AD> hepi:A:LEU264:CD1
USER  AD> hepi:A:GLU222:OE2

USER  AD> lig_close_ats: 8
USER  AD> h11b_ab7_b1_m3_model1: :LIG1:C,H,C,C,C,O,O,O
MODEL 3
REMARK VINA RESULT:      -5.3     11.708     14.467
REMARK  12 active torsions:
REMARK  status: ('A' for Active; 'I' for Inactive)
REMARK    1  A    between atoms: C_1  and  O_7 
REMARK    2  A    between atoms: C_2  and  O_10 
REMARK    3  A    between atoms: C_3  and  O_11 
REMARK    4  A    between atoms: C_4  and  O_12 
REMARK    5  A    between atoms: C_6  and  C_8 
REMARK    6  A    between atoms: C_8  and  O_9 
REMARK    7  A    between atoms: O_12  and  C_13 
REMARK    8  A    between atoms: C_13  and  C_14 
REMARK    9  A    between atoms: C_15  and  C_16 
REMARK   10  A    between atoms: C_16  and  C_17 
REMARK   11  A    between atoms: C_17  and  C_18 
REMARK   12  A    between atoms: C_18  and  C_19 
ROOT
HETATM    1  C   LIG L   1      45.010  12.507   3.857  1.00  0.00     0.180 C 
HETATM    2  C   LIG L   1      44.646  11.222   4.598  1.00  0.00     0.183 C 
HETATM    3  C   LIG L   1      45.877  10.343   4.862  1.00  0.00     0.204 C 
HETATM    4  C   LIG L   1      46.718  10.163   3.571  1.00  0.00     0.291 C 
HETATM    5  O   LIG L   1      46.962  11.440   2.948  1.00  0.00    -0.348 OA
HETATM    6  C   LIG L   1      45.767  12.133   2.577  1.00  0.00     0.179 C 
ENDROOT
BRANCH   4   7
HETATM    7  O   LIG L   1      48.019   9.625   3.820  1.00  0.00    -0.355 OA
BRANCH   7   8
HETATM    8  C   LIG L   1      49.061  10.563   4.045  1.00  0.00     0.198 C 
BRANCH   8   9
HETATM    9  C   LIG L   1      49.199  10.907   5.498  1.00  0.00    -0.005 C 
HETATM   10  C   LIG L   1      49.744  10.081   6.407  1.00  0.00    -0.029 C 
BRANCH  10  11
HETATM   11  C   LIG L   1      49.830  10.370   7.879  1.00  0.00     0.027 C 
BRANCH  11  12
HETATM   12  C   LIG L   1      51.018  11.289   8.181  1.00  0.00     0.004 C 
BRANCH  12  13
HETATM   13  C   LIG L   1      50.568  12.720   8.478  1.00  0.00    -0.000 C 
BRANCH  13  14
HETATM   14  C   LIG L   1      49.421  12.739   9.490  1.00  0.00    -0.005 C 
HETATM   15  C   LIG L   1      49.743  13.618  10.688  1.00  0.00     0.005 C 
ENDBRANCH  13  14
ENDBRANCH  12  13
ENDBRANCH  11  12
ENDBRANCH  10  11
ENDBRANCH   8   9
ENDBRANCH   7   8
ENDBRANCH   4   7
BRANCH   3  16
HETATM   16  O   LIG L   1      45.394   9.096   5.392  1.00  0.00    -0.388 OA
HETATM   17  H   LIG L   1      44.441   9.075   5.166  1.00  0.00     0.210 HD
ENDBRANCH   3  16
BRANCH   2  18
HETATM   18  O   LIG L   1      44.033  11.529   5.862  1.00  0.00    -0.390 OA
HETATM   19  H   LIG L   1      44.245  12.471   6.033  1.00  0.00     0.210 HD
ENDBRANCH   2  18
BRANCH   6  20
HETATM   20  C   LIG L   1      46.152  13.366   1.756  1.00  0.00     0.198 C 
BRANCH  20  21
HETATM   21  O   LIG L   1      45.188  14.398   1.930  1.00  0.00    -0.398 OA
HETATM   22  H   LIG L   1      44.970  14.747   1.048  1.00  0.00     0.209 HD
ENDBRANCH  20  21
ENDBRANCH   6  20
BRANCH   1  23
HETATM   23  O   LIG L   1      45.819  13.299   4.747  1.00  0.00    -0.390 OA
HETATM   24  H   LIG L   1      46.753  13.058   4.584  1.00  0.00     0.210 HD
ENDBRANCH   1  23
TORSDOF 12
ENDMDL
