REMARK AutoDockVina VirtualScreeningResult  Sun Mar  6 21:57:47 2016
USER  AD>  1 of 9 MODELS
USER  AD>  ligand efficiency  -0.3800
USER  AD>  -5.70,  0.000,  0.000
USER  AD> macro_close_ats: 14
USER  AD> hepi:A:LEU264:CD1
USER  AD> hepi:A:MET242:N
USER  AD> hepi:A:PRO216:CB
USER  AD> hepi:A:TRP217:H
USER  AD> hepi:A:VAL247:CB
USER  AD> hepi:A:ALA186:H
USER  AD> hepi:A:LEU184:CD2
USER  AD> hepi:A:PRO216:C
USER  AD> hepi:A:ALA186:CB
USER  AD> hepi:A:VAL247:CG1
USER  AD> hepi:A:MET242:CG
USER  AD> hepi:A:TRP217:C
USER  AD> hepi:A:MET242:H
USER  AD> hepi:A:GLY218:CA

USER  AD> lig_close_ats: 10
USER  AD> h11b_gb3_b2_m1_model1: :LIG1:C,C,C,C,O,O,H,C,C,H
MODEL 1
REMARK VINA RESULT:      -5.7      0.000      0.000
REMARK  8 active torsions:
REMARK  status: ('A' for Active; 'I' for Inactive)
REMARK    1  A    between atoms: C_1  and  O_15 
REMARK    2  A    between atoms: C_2  and  O_9 
REMARK    3  A    between atoms: C_3  and  O_10 
REMARK    4  A    between atoms: C_4  and  O_11 
REMARK    5  A    between atoms: C_6  and  C_7 
REMARK    6  A    between atoms: C_7  and  O_8 
REMARK    7  A    between atoms: O_11  and  C_12 
REMARK    8  A    between atoms: C_12  and  C_13 
ROOT
HETATM    1  C   LIG L   1      50.486  12.393   8.506  1.00  0.00     0.180 C 
HETATM    2  C   LIG L   1      49.824  11.598   7.381  1.00  0.00     0.183 C 
HETATM    3  C   LIG L   1      48.614  12.333   6.809  1.00  0.00     0.204 C 
HETATM    4  C   LIG L   1      47.652  12.736   7.949  1.00  0.00     0.291 C 
HETATM    5  O   LIG L   1      48.346  13.472   8.964  1.00  0.00    -0.348 OA
HETATM    6  C   LIG L   1      49.428  12.758   9.559  1.00  0.00     0.179 C 
ENDROOT
BRANCH   4   7
HETATM    7  O   LIG L   1      46.644  13.613   7.443  1.00  0.00    -0.355 OA
BRANCH   7   8
HETATM    8  C   LIG L   1      45.313  13.170   7.677  1.00  0.00     0.197 C 
BRANCH   8   9
HETATM    9  C   LIG L   1      44.875  13.612   9.042  1.00  0.00    -0.011 C 
HETATM   10  C   LIG L   1      43.668  13.366   9.561  1.00  0.00     0.009 C 
ENDBRANCH   8   9
ENDBRANCH   7   8
ENDBRANCH   4   7
BRANCH   3  11
HETATM   11  O   LIG L   1      47.983  11.472   5.847  1.00  0.00    -0.388 OA
HETATM   12  H   LIG L   1      47.077  11.830   5.750  1.00  0.00     0.210 HD
ENDBRANCH   3  11
BRANCH   2  13
HETATM   13  O   LIG L   1      50.771  11.353   6.327  1.00  0.00    -0.390 OA
HETATM   14  H   LIG L   1      51.621  11.698   6.673  1.00  0.00     0.210 HD
ENDBRANCH   2  13
BRANCH   6  15
HETATM   15  C   LIG L   1      50.020  13.647  10.661  1.00  0.00     0.198 C 
BRANCH  15  16
HETATM   16  O   LIG L   1      51.097  14.436  10.162  1.00  0.00    -0.398 OA
HETATM   17  H   LIG L   1      51.522  14.843  10.940  1.00  0.00     0.209 HD
ENDBRANCH  15  16
ENDBRANCH   6  15
BRANCH   1  18
HETATM   18  O   LIG L   1      51.544  11.586   9.039  1.00  0.00    -0.390 OA
HETATM   19  H   LIG L   1      51.327  11.436   9.986  1.00  0.00     0.210 HD
ENDBRANCH   1  18
TORSDOF 8
ENDMDL
