REMARK AutoDockVina VirtualScreeningResult  Sun Mar  6 21:56:49 2016
USER  AD>  4 of 9 MODELS
USER  AD>  ligand efficiency  -0.4083
USER  AD>  -4.90,  1.461,  3.982
USER  AD> macro_close_ats: 10
USER  AD> hepi:A:THR262:CA
USER  AD> hepi:A:MET11:N
USER  AD> hepi:A:GLY12:H
USER  AD> hepi:A:LYS192:NZ
USER  AD> hepi:A:THR262:H
USER  AD> hepi:A:GLY263:H
USER  AD> hepi:A:LYS192:H
USER  AD> hepi:A:GLY12:N
USER  AD> hepi:A:LYS192:H
USER  AD> hepi:A:MET11:H

USER  AD> lig_close_ats: 9
USER  AD> h11b_gb_b1_m4_model1: :LIG1:C,O,O,O,O,C,H,C,H
MODEL 4
REMARK VINA RESULT:      -4.9      1.461      3.982
REMARK  6 active torsions:
REMARK  status: ('A' for Active; 'I' for Inactive)
REMARK    1  A    between atoms: C_1  and  O_12 
REMARK    2  A    between atoms: C_2  and  O_9 
REMARK    3  A    between atoms: C_3  and  O_11 
REMARK    4  A    between atoms: C_4  and  O_10 
REMARK    5  A    between atoms: C_6  and  C_7 
REMARK    6  A    between atoms: C_7  and  O_8 
ROOT
HETATM    1  C   LIG     1      41.744   7.224   1.707  1.00  0.00     0.180 C 
HETATM    2  C   LIG     1      41.103   5.882   1.344  1.00  0.00     0.183 C 
HETATM    3  C   LIG     1      41.959   4.719   1.856  1.00  0.00     0.204 C 
HETATM    4  C   LIG     1      43.398   4.893   1.328  1.00  0.00     0.288 C 
HETATM    5  O   LIG     1      43.928   6.126   1.804  1.00  0.00    -0.349 OA
HETATM    6  C   LIG     1      43.223   7.259   1.281  1.00  0.00     0.179 C 
ENDROOT
BRANCH   6   7
HETATM    7  C   LIG     1      43.895   8.544   1.787  1.00  0.00     0.198 C 
BRANCH   7   8
HETATM    8  O   LIG     1      44.335   8.425   3.136  1.00  0.00    -0.398 OA
HETATM    9  H   LIG     1      45.266   8.736   3.169  1.00  0.00     0.209 HD
ENDBRANCH   7   8
ENDBRANCH   6   7
BRANCH   1  10
HETATM   10  O   LIG     1      41.008   8.286   1.087  1.00  0.00    -0.390 OA
HETATM   11  H   LIG     1      40.477   8.690   1.806  1.00  0.00     0.210 HD
ENDBRANCH   1  10
BRANCH   2  12
HETATM   12  O   LIG     1      39.774   5.865   1.889  1.00  0.00    -0.390 OA
HETATM   13  H   LIG     1      39.686   5.074   2.454  1.00  0.00     0.210 HD
ENDBRANCH   2  12
BRANCH   4  14
HETATM   14  O   LIG     1      44.239   3.833   1.755  1.00  0.00    -0.369 OA
HETATM   15  H   LIG     1      45.084   3.912   1.279  1.00  0.00     0.212 HD
ENDBRANCH   4  14
BRANCH   3  16
HETATM   16  O   LIG     1      41.381   3.465   1.487  1.00  0.00    -0.388 OA
HETATM   17  H   LIG     1      41.939   3.051   0.803  1.00  0.00     0.210 HD
ENDBRANCH   3  16
TORSDOF 6
ENDMDL
