REMARK AutoDockVina VirtualScreeningResult  Sun Mar  6 21:57:49 2016
USER  AD>  2 of 9 MODELS
USER  AD>  ligand efficiency  -0.2842
USER  AD>  -5.40,  3.029,  5.004
USER  AD> macro_close_ats: 17
USER  AD> hepi:A:THR188:N
USER  AD> hepi:A:LYS192:H
USER  AD> hepi:A:THR262:CA
USER  AD> hepi:A:MET11:CE
USER  AD> hepi:A:GLY12:N
USER  AD> hepi:A:MET11:N
USER  AD> hepi:A:GLY12:H
USER  AD> hepi:A:SER10:C
USER  AD> hepi:A:LEU264:CG
USER  AD> hepi:A:SER10:CA
USER  AD> hepi:A:THR188:H
USER  AD> hepi:A:GLY263:H
USER  AD> hepi:A:THR187:OG1
USER  AD> hepi:A:SER10:OG
USER  AD> hepi:A:LEU264:CD1
USER  AD> hepi:A:MET11:H
USER  AD> hepi:A:SER10:H

USER  AD> lig_close_ats: 12
USER  AD> h11b_gb6_b2_m2_model1: :LIG1:H,C,O,C,C,O,C,O,H,C,C,C
MODEL 2
REMARK VINA RESULT:      -5.4      3.029      5.004
REMARK  11 active torsions:
REMARK  status: ('A' for Active; 'I' for Inactive)
REMARK    1  A    between atoms: C_1  and  O_19 
REMARK    2  A    between atoms: C_2  and  O_9 
REMARK    3  A    between atoms: C_3  and  O_10 
REMARK    4  A    between atoms: C_4  and  O_11 
REMARK    5  A    between atoms: C_6  and  C_7 
REMARK    6  A    between atoms: C_7  and  O_8 
REMARK    7  A    between atoms: O_11  and  C_12 
REMARK    8  A    between atoms: C_12  and  C_13 
REMARK    9  A    between atoms: C_14  and  C_15 
REMARK   10  A    between atoms: C_15  and  C_16 
REMARK   11  A    between atoms: C_16  and  C_17 
ROOT
HETATM    1  C   LIG L   1      42.683   6.773   1.314  1.00  0.00     0.180 C 
HETATM    2  C   LIG L   1      42.273   8.171   1.804  1.00  0.00     0.183 C 
HETATM    3  C   LIG L   1      43.242   9.218   1.264  1.00  0.00     0.204 C 
HETATM    4  C   LIG L   1      44.663   8.853   1.730  1.00  0.00     0.291 C 
HETATM    5  O   LIG L   1      45.016   7.583   1.164  1.00  0.00    -0.348 OA
HETATM    6  C   LIG L   1      44.177   6.497   1.594  1.00  0.00     0.179 C 
ENDROOT
BRANCH   4   7
HETATM    7  O   LIG L   1      44.790   8.792   3.156  1.00  0.00    -0.355 OA
BRANCH   7   8
HETATM    8  C   LIG L   1      45.396   9.968   3.686  1.00  0.00     0.198 C 
BRANCH   8   9
HETATM    9  C   LIG L   1      46.721   9.608   4.287  1.00  0.00    -0.005 C 
HETATM   10  C   LIG L   1      47.187  10.198   5.397  1.00  0.00    -0.029 C 
BRANCH  10  11
HETATM   11  C   LIG L   1      48.523   9.912   6.023  1.00  0.00     0.027 C 
BRANCH  11  12
HETATM   12  C   LIG L   1      49.294  11.212   6.277  1.00  0.00     0.003 C 
BRANCH  12  13
HETATM   13  C   LIG L   1      50.222  11.100   7.484  1.00  0.00    -0.004 C 
HETATM   14  C   LIG L   1      49.625  11.785   8.704  1.00  0.00     0.005 C 
ENDBRANCH  12  13
ENDBRANCH  11  12
ENDBRANCH  10  11
ENDBRANCH   8   9
ENDBRANCH   7   8
ENDBRANCH   4   7
BRANCH   3  15
HETATM   15  O   LIG L   1      42.817  10.524   1.667  1.00  0.00    -0.388 OA
HETATM   16  H   LIG L   1      43.271  10.687   2.521  1.00  0.00     0.210 HD
ENDBRANCH   3  15
BRANCH   2  17
HETATM   17  O   LIG L   1      40.948   8.534   1.374  1.00  0.00    -0.390 OA
HETATM   18  H   LIG L   1      40.892   9.509   1.370  1.00  0.00     0.210 HD
ENDBRANCH   2  17
BRANCH   6  19
HETATM   19  C   LIG L   1      44.682   5.240   0.858  1.00  0.00     0.198 C 
BRANCH  19  20
HETATM   20  O   LIG L   1      44.421   4.025   1.542  1.00  0.00    -0.398 OA
HETATM   21  H   LIG L   1      45.039   3.351   1.214  1.00  0.00     0.209 HD
ENDBRANCH  19  20
ENDBRANCH   6  19
BRANCH   1  22
HETATM   22  O   LIG L   1      41.818   5.806   1.917  1.00  0.00    -0.390 OA
HETATM   23  H   LIG L   1      41.493   5.203   1.226  1.00  0.00     0.210 HD
ENDBRANCH   1  22
TORSDOF 11
ENDMDL
