REMARK AutoDockVina VirtualScreeningResult  Sun Mar  6 21:57:31 2016
USER  AD>  2 of 9 MODELS
USER  AD>  ligand efficiency  -0.2762
USER  AD>  -5.80,  5.511,  8.513
USER  AD> macro_close_ats: 11
USER  AD> hepi:A:LEU264:CD1
USER  AD> hepi:A:TRP217:H
USER  AD> hepi:A:TRP217:C
USER  AD> hepi:A:ALA186:CB
USER  AD> hepi:A:LEU184:CD2
USER  AD> hepi:A:MET242:O
USER  AD> hepi:A:PRO216:CB
USER  AD> hepi:A:LYS241:H
USER  AD> hepi:A:MET11:CE
USER  AD> hepi:A:GLY218:CA
USER  AD> hepi:A:ALA186:H

USER  AD> lig_close_ats: 11
USER  AD> h11b_aa8_b2_m2_model1: :LIG1:O,C,C,C,C,C,C,O,C,O,C
MODEL 2
REMARK VINA RESULT:      -5.8      5.511      8.513
REMARK  13 active torsions:
REMARK  status: ('A' for Active; 'I' for Inactive)
REMARK    1  A    between atoms: C_1  and  O_7 
REMARK    2  A    between atoms: C_2  and  O_10 
REMARK    3  A    between atoms: C_3  and  O_11 
REMARK    4  A    between atoms: C_4  and  O_12 
REMARK    5  A    between atoms: C_6  and  C_8 
REMARK    6  A    between atoms: C_8  and  O_9 
REMARK    7  A    between atoms: O_12  and  C_13 
REMARK    8  A    between atoms: C_13  and  C_14 
REMARK    9  A    between atoms: C_15  and  C_16 
REMARK   10  A    between atoms: C_16  and  C_17 
REMARK   11  A    between atoms: C_17  and  C_18 
REMARK   12  A    between atoms: C_18  and  C_19 
REMARK   13  A    between atoms: C_19  and  C_20 
ROOT
HETATM    1  C   LIG     1      50.988  12.905   8.336  1.00  0.00     0.180 C 
HETATM    2  C   LIG     1      51.708  12.256   7.144  1.00  0.00     0.183 C 
HETATM    3  C   LIG     1      50.944  12.590   5.857  1.00  0.00     0.204 C 
HETATM    4  C   LIG     1      49.500  12.051   6.007  1.00  0.00     0.291 C 
HETATM    5  O   LIG     1      48.869  12.706   7.127  1.00  0.00    -0.348 OA
HETATM    6  C   LIG     1      49.525  12.422   8.378  1.00  0.00     0.179 C 
ENDROOT
BRANCH   4   7
HETATM    7  O   LIG     1      49.435  10.631   6.197  1.00  0.00    -0.355 OA
BRANCH   7   8
HETATM    8  C   LIG     1      48.759  10.001   5.121  1.00  0.00     0.198 C 
BRANCH   8   9
HETATM    9  C   LIG     1      47.290  10.160   5.274  1.00  0.00    -0.005 C 
HETATM   10  C   LIG     1      46.695  11.137   4.579  1.00  0.00    -0.029 C 
BRANCH  10  11
HETATM   11  C   LIG     1      45.208  11.311   4.558  1.00  0.00     0.027 C 
BRANCH  11  12
HETATM   12  C   LIG     1      44.825  12.538   5.357  1.00  0.00     0.004 C 
BRANCH  12  13
HETATM   13  C   LIG     1      45.000  12.235   6.830  1.00  0.00     0.000 C 
BRANCH  13  14
HETATM   14  C   LIG     1      45.514  13.454   7.567  1.00  0.00    -0.000 C 
BRANCH  14  15
HETATM   15  C   LIG     1      45.019  13.445   9.005  1.00  0.00    -0.005 C 
HETATM   16  C   LIG     1      43.611  12.889   9.075  1.00  0.00     0.005 C 
ENDBRANCH  14  15
ENDBRANCH  13  14
ENDBRANCH  12  13
ENDBRANCH  11  12
ENDBRANCH  10  11
ENDBRANCH   8   9
ENDBRANCH   7   8
ENDBRANCH   4   7
BRANCH   3  17
HETATM   17  O   LIG     1      51.633  12.117   4.693  1.00  0.00    -0.388 OA
HETATM   18  H   LIG     1      51.223  11.262   4.450  1.00  0.00     0.210 HD
ENDBRANCH   3  17
BRANCH   2  19
HETATM   19  O   LIG     1      53.052  12.731   7.034  1.00  0.00    -0.390 OA
HETATM   20  H   LIG     1      53.396  12.369   6.192  1.00  0.00     0.210 HD
ENDBRANCH   2  19
BRANCH   6  21
HETATM   21  C   LIG     1      48.729  13.083   9.511  1.00  0.00     0.198 C 
BRANCH  21  22
HETATM   22  O   LIG     1      49.564  13.882  10.344  1.00  0.00    -0.398 OA
HETATM   23  H   LIG     1      50.479  13.564  10.245  1.00  0.00     0.209 HD
ENDBRANCH  21  22
ENDBRANCH   6  21
BRANCH   1  24
HETATM   24  O   LIG     1      51.074  14.334   8.161  1.00  0.00    -0.390 OA
HETATM   25  H   LIG     1      51.262  14.734   9.031  1.00  0.00     0.210 HD
ENDBRANCH   1  24
TORSDOF 13
ENDMDL
