REMARK AutoDockVina VirtualScreeningResult  Sun Mar  6 21:56:45 2016
USER  AD>  3 of 9 MODELS
USER  AD>  ligand efficiency  -0.2391
USER  AD>  -5.50,  5.538,  9.378
USER  AD> macro_close_ats: 9
USER  AD> hepi:A:ASP261:CG
USER  AD> hepi:A:THR262:CA
USER  AD> hepi:A:HIS266:NE2
USER  AD> hepi:A:ALA140:CB
USER  AD> hepi:A:LYS192:NZ
USER  AD> hepi:A:THR262:C
USER  AD> hepi:A:ILE287:CA
USER  AD> hepi:A:LYS192:H
USER  AD> hepi:A:MET11:H

USER  AD> lig_close_ats: 7
USER  AD> h11b_aa10_b1_m3_model1: :LIG1:O,C,C,O,H,H,C
MODEL 3
REMARK VINA RESULT:      -5.5      5.538      9.378
REMARK  15 active torsions:
REMARK  status: ('A' for Active; 'I' for Inactive)
REMARK    1  A    between atoms: C_1  and  O_7 
REMARK    2  A    between atoms: C_2  and  O_10 
REMARK    3  A    between atoms: C_3  and  O_11 
REMARK    4  A    between atoms: C_4  and  O_12 
REMARK    5  A    between atoms: C_6  and  C_8 
REMARK    6  A    between atoms: C_8  and  O_9 
REMARK    7  A    between atoms: O_12  and  C_13 
REMARK    8  A    between atoms: C_13  and  C_14 
REMARK    9  A    between atoms: C_15  and  C_16 
REMARK   10  A    between atoms: C_16  and  C_17 
REMARK   11  A    between atoms: C_17  and  C_18 
REMARK   12  A    between atoms: C_18  and  C_19 
REMARK   13  A    between atoms: C_19  and  C_20 
REMARK   14  A    between atoms: C_20  and  C_21 
REMARK   15  A    between atoms: C_21  and  C_22 
ROOT
HETATM    1  C   LIG     1      41.339   5.551   0.743  1.00  0.00     0.180 C 
HETATM    2  C   LIG     1      39.986   4.859   0.953  1.00  0.00     0.183 C 
HETATM    3  C   LIG     1      40.183   3.566   1.749  1.00  0.00     0.204 C 
HETATM    4  C   LIG     1      41.185   2.668   0.991  1.00  0.00     0.291 C 
HETATM    5  O   LIG     1      42.442   3.368   0.881  1.00  0.00    -0.348 OA
HETATM    6  C   LIG     1      42.342   4.574   0.099  1.00  0.00     0.179 C 
ENDROOT
BRANCH   4   7
HETATM    7  O   LIG     1      40.730   2.296  -0.317  1.00  0.00    -0.355 OA
BRANCH   7   8
HETATM    8  C   LIG     1      40.949   0.915  -0.588  1.00  0.00     0.198 C 
BRANCH   8   9
HETATM    9  C   LIG     1      39.884   0.108   0.090  1.00  0.00    -0.005 C 
HETATM   10  C   LIG     1      40.148  -1.081   0.660  1.00  0.00    -0.029 C 
BRANCH  10  11
HETATM   11  C   LIG     1      39.126  -1.961   1.317  1.00  0.00     0.027 C 
BRANCH  11  12
HETATM   12  C   LIG     1      39.333  -3.424   0.909  1.00  0.00     0.004 C 
BRANCH  12  13
HETATM   13  C   LIG     1      38.821  -3.693  -0.504  1.00  0.00     0.000 C 
BRANCH  13  14
HETATM   14  C   LIG     1      39.911  -4.321  -1.375  1.00  0.00     0.000 C 
BRANCH  14  15
HETATM   15  C   LIG     1      40.443  -3.314  -2.395  1.00  0.00     0.000 C 
BRANCH  15  16
HETATM   16  C   LIG     1      39.308  -2.657  -3.179  1.00  0.00    -0.000 C 
BRANCH  16  17
HETATM   17  C   LIG     1      39.565  -1.162  -3.361  1.00  0.00    -0.005 C 
HETATM   18  C   LIG     1      38.270  -0.394  -3.569  1.00  0.00     0.005 C 
ENDBRANCH  16  17
ENDBRANCH  15  16
ENDBRANCH  14  15
ENDBRANCH  13  14
ENDBRANCH  12  13
ENDBRANCH  11  12
ENDBRANCH  10  11
ENDBRANCH   8   9
ENDBRANCH   7   8
ENDBRANCH   4   7
BRANCH   3  19
HETATM   19  O   LIG     1      38.919   2.949   2.006  1.00  0.00    -0.388 OA
HETATM   20  H   LIG     1      38.270   3.475   1.495  1.00  0.00     0.210 HD
ENDBRANCH   3  19
BRANCH   2  21
HETATM   21  O   LIG     1      39.092   5.709   1.693  1.00  0.00    -0.390 OA
HETATM   22  H   LIG     1      39.606   6.522   1.884  1.00  0.00     0.210 HD
ENDBRANCH   2  21
BRANCH   6  23
HETATM   23  C   LIG     1      43.748   5.178  -0.027  1.00  0.00     0.198 C 
BRANCH  23  24
HETATM   24  O   LIG     1      44.692   4.479   0.774  1.00  0.00    -0.398 OA
HETATM   25  H   LIG     1      44.933   5.056   1.519  1.00  0.00     0.209 HD
ENDBRANCH  23  24
ENDBRANCH   6  23
BRANCH   1  26
HETATM   26  O   LIG     1      41.777   6.006   2.040  1.00  0.00    -0.390 OA
HETATM   27  H   LIG     1      41.022   5.936   2.654  1.00  0.00     0.210 HD
ENDBRANCH   1  26
TORSDOF 15
ENDMDL
