REMARK AutoDockVina VirtualScreeningResult  Sun Mar  6 21:58:45 2016
USER  AD>  7 of 9 MODELS
USER  AD>  ligand efficiency  -0.2429
USER  AD>  -5.10,  7.737, 10.520
USER  AD> macro_close_ats: 11
USER  AD> hepi:A:ASP261:CG
USER  AD> hepi:A:ASP261:O
USER  AD> hepi:A:LYS192:H
USER  AD> hepi:A:SER10:H
USER  AD> hepi:A:SER10:OG
USER  AD> hepi:A:ASP261:C
USER  AD> hepi:A:ILE287:CA
USER  AD> hepi:A:LYS192:NZ
USER  AD> hepi:A:HIS16:CE1
USER  AD> hepi:A:LYS192:H
USER  AD> hepi:A:GLY12:H

USER  AD> lig_close_ats: 8
USER  AD> h11b_ga8_b3_m7_model1: :LIG1:H,C,C,O,O,C,O,H
MODEL 7
REMARK VINA RESULT:      -5.1      7.737     10.520
REMARK  13 active torsions:
REMARK  status: ('A' for Active; 'I' for Inactive)
REMARK    1  A    between atoms: C_1  and  O_21 
REMARK    2  A    between atoms: C_2  and  O_9 
REMARK    3  A    between atoms: C_3  and  O_10 
REMARK    4  A    between atoms: C_4  and  O_11 
REMARK    5  A    between atoms: C_6  and  C_7 
REMARK    6  A    between atoms: C_7  and  O_8 
REMARK    7  A    between atoms: O_11  and  C_12 
REMARK    8  A    between atoms: C_12  and  C_13 
REMARK    9  A    between atoms: C_14  and  C_15 
REMARK   10  A    between atoms: C_15  and  C_16 
REMARK   11  A    between atoms: C_16  and  C_17 
REMARK   12  A    between atoms: C_17  and  C_18 
REMARK   13  A    between atoms: C_18  and  C_19 
ROOT
HETATM    1  C   LIG L   1      39.814   4.948   0.872  1.00  0.00     0.180 C 
HETATM    2  C   LIG L   1      41.015   4.421   1.674  1.00  0.00     0.183 C 
HETATM    3  C   LIG L   1      41.889   3.537   0.792  1.00  0.00     0.204 C 
HETATM    4  C   LIG L   1      41.024   2.388   0.241  1.00  0.00     0.291 C 
HETATM    5  O   LIG L   1      39.984   2.947  -0.573  1.00  0.00    -0.348 OA
HETATM    6  C   LIG L   1      39.076   3.801   0.145  1.00  0.00     0.179 C 
ENDROOT
BRANCH   4   7
HETATM    7  O   LIG L   1      40.443   1.579   1.270  1.00  0.00    -0.355 OA
BRANCH   7   8
HETATM    8  C   LIG L   1      41.092   0.315   1.384  1.00  0.00     0.198 C 
BRANCH   8   9
HETATM    9  C   LIG L   1      40.054  -0.746   1.579  1.00  0.00    -0.005 C 
HETATM   10  C   LIG L   1      39.908  -1.778   0.729  1.00  0.00    -0.029 C 
BRANCH  10  11
HETATM   11  C   LIG L   1      38.855  -2.841   0.855  1.00  0.00     0.027 C 
BRANCH  11  12
HETATM   12  C   LIG L   1      38.805  -3.709  -0.408  1.00  0.00     0.004 C 
BRANCH  12  13
HETATM   13  C   LIG L   1      39.493  -3.028  -1.592  1.00  0.00     0.000 C 
BRANCH  13  14
HETATM   14  C   LIG L   1      38.466  -2.383  -2.525  1.00  0.00    -0.000 C 
BRANCH  14  15
HETATM   15  C   LIG L   1      39.081  -1.230  -3.316  1.00  0.00    -0.005 C 
HETATM   16  C   LIG L   1      39.300  -0.007  -2.438  1.00  0.00     0.005 C 
ENDBRANCH  14  15
ENDBRANCH  13  14
ENDBRANCH  12  13
ENDBRANCH  11  12
ENDBRANCH  10  11
ENDBRANCH   8   9
ENDBRANCH   7   8
ENDBRANCH   4   7
BRANCH   3  17
HETATM   17  O   LIG L   1      43.032   3.098   1.532  1.00  0.00    -0.388 OA
HETATM   18  H   LIG L   1      43.191   3.803   2.194  1.00  0.00     0.210 HD
ENDBRANCH   3  17
BRANCH   2  19
HETATM   19  O   LIG L   1      41.837   5.491   2.176  1.00  0.00    -0.390 OA
HETATM   20  H   LIG L   1      42.268   5.916   1.410  1.00  0.00     0.210 HD
ENDBRANCH   2  19
BRANCH   6  21
HETATM   21  C   LIG L   1      38.066   4.329  -0.893  1.00  0.00     0.198 C 
BRANCH  21  22
HETATM   22  O   LIG L   1      37.334   5.466  -0.459  1.00  0.00    -0.398 OA
HETATM   23  H   LIG L   1      37.230   6.067  -1.216  1.00  0.00     0.209 HD
ENDBRANCH  21  22
ENDBRANCH   6  21
BRANCH   1  24
HETATM   24  O   LIG L   1      38.966   5.682   1.760  1.00  0.00    -0.390 OA
HETATM   25  H   LIG L   1      39.516   6.103   2.443  1.00  0.00     0.210 HD
ENDBRANCH   1  24
TORSDOF 13
ENDMDL
