REMARK AutoDockVina VirtualScreeningResult  Sun Mar  6 21:57:30 2016
USER  AD>  8 of 9 MODELS
USER  AD>  ligand efficiency  -0.2500
USER  AD>  -5.00,  2.315,  3.562
USER  AD> macro_close_ats: 5
USER  AD> hepi:A:ILE287:CG2
USER  AD> hepi:A:LYS192:H
USER  AD> hepi:A:ASP261:CG
USER  AD> hepi:A:LYS192:NZ
USER  AD> hepi:A:ASP261:O

USER  AD> lig_close_ats: 4
USER  AD> h11b_ab7_b2_m8_model1: :LIG1:C,C,O,H
MODEL 8
REMARK VINA RESULT:      -5.0      2.315      3.562
REMARK  12 active torsions:
REMARK  status: ('A' for Active; 'I' for Inactive)
REMARK    1  A    between atoms: C_1  and  O_7 
REMARK    2  A    between atoms: C_2  and  O_10 
REMARK    3  A    between atoms: C_3  and  O_11 
REMARK    4  A    between atoms: C_4  and  O_12 
REMARK    5  A    between atoms: C_6  and  C_8 
REMARK    6  A    between atoms: C_8  and  O_9 
REMARK    7  A    between atoms: O_12  and  C_13 
REMARK    8  A    between atoms: C_13  and  C_14 
REMARK    9  A    between atoms: C_15  and  C_16 
REMARK   10  A    between atoms: C_16  and  C_17 
REMARK   11  A    between atoms: C_17  and  C_18 
REMARK   12  A    between atoms: C_18  and  C_19 
ROOT
HETATM    1  C   LIG     1      41.310   5.634   0.701  1.00  0.00     0.180 C 
HETATM    2  C   LIG     1      40.010   4.941   1.106  1.00  0.00     0.183 C 
HETATM    3  C   LIG     1      40.263   3.553   1.712  1.00  0.00     0.204 C 
HETATM    4  C   LIG     1      41.220   2.722   0.817  1.00  0.00     0.291 C 
HETATM    5  O   LIG     1      42.388   3.497   0.477  1.00  0.00    -0.348 OA
HETATM    6  C   LIG     1      42.088   4.700  -0.235  1.00  0.00     0.179 C 
ENDROOT
BRANCH   4   7
HETATM    7  O   LIG     1      41.733   1.560   1.473  1.00  0.00    -0.355 OA
BRANCH   7   8
HETATM    8  C   LIG     1      41.149   0.317   1.112  1.00  0.00     0.198 C 
BRANCH   8   9
HETATM    9  C   LIG     1      40.992   0.184  -0.373  1.00  0.00    -0.005 C 
HETATM   10  C   LIG     1      39.874  -0.272  -0.962  1.00  0.00    -0.029 C 
BRANCH  10  11
HETATM   11  C   LIG     1      39.715  -0.484  -2.441  1.00  0.00     0.027 C 
BRANCH  11  12
HETATM   12  C   LIG     1      38.726   0.528  -3.029  1.00  0.00     0.004 C 
BRANCH  12  13
HETATM   13  C   LIG     1      39.382   1.889  -3.271  1.00  0.00    -0.000 C 
BRANCH  13  14
HETATM   14  C   LIG     1      38.389   3.028  -3.037  1.00  0.00    -0.005 C 
HETATM   15  C   LIG     1      38.094   3.222  -1.558  1.00  0.00     0.005 C 
ENDBRANCH  13  14
ENDBRANCH  12  13
ENDBRANCH  11  12
ENDBRANCH  10  11
ENDBRANCH   8   9
ENDBRANCH   7   8
ENDBRANCH   4   7
BRANCH   3  16
HETATM   16  O   LIG     1      38.976   2.930   1.880  1.00  0.00    -0.388 OA
HETATM   17  H   LIG     1      38.360   3.471   1.345  1.00  0.00     0.210 HD
ENDBRANCH   3  16
BRANCH   2  18
HETATM   18  O   LIG     1      39.301   5.733   2.074  1.00  0.00    -0.390 OA
HETATM   19  H   LIG     1      39.306   6.647   1.718  1.00  0.00     0.210 HD
ENDBRANCH   2  18
BRANCH   6  20
HETATM   20  C   LIG     1      43.401   5.328  -0.710  1.00  0.00     0.198 C 
BRANCH  20  21
HETATM   21  O   LIG     1      44.484   4.880   0.097  1.00  0.00    -0.398 OA
HETATM   22  H   LIG     1      44.199   4.936   1.026  1.00  0.00     0.209 HD
ENDBRANCH  20  21
ENDBRANCH   6  20
BRANCH   1  23
HETATM   23  O   LIG     1      42.041   5.909   1.912  1.00  0.00    -0.390 OA
HETATM   24  H   LIG     1      42.519   5.091   2.156  1.00  0.00     0.210 HD
ENDBRANCH   1  23
TORSDOF 12
ENDMDL
