REMARK AutoDockVina VirtualScreeningResult  Sun Mar  6 21:56:58 2016
USER  AD>  5 of 9 MODELS
USER  AD>  ligand efficiency  -0.2789
USER  AD>  -5.30,  3.990,  6.012
USER  AD> macro_close_ats: 17
USER  AD> hepi:A:GLY263:H
USER  AD> hepi:A:MET11:N
USER  AD> hepi:A:MET11:CA
USER  AD> hepi:A:GLU38:CB
USER  AD> hepi:A:THR188:CB
USER  AD> hepi:A:MET11:CB
USER  AD> hepi:A:THR188:H
USER  AD> hepi:A:PHE41:CZ
USER  AD> hepi:A:THR187:CA
USER  AD> hepi:A:THR262:OG1
USER  AD> hepi:A:LYS192:H
USER  AD> hepi:A:SER10:CA
USER  AD> hepi:A:GLY12:N
USER  AD> hepi:A:GLY12:H
USER  AD> hepi:A:LYS192:H
USER  AD> hepi:A:MET11:H
USER  AD> hepi:A:GLY263:N

USER  AD> lig_close_ats: 11
USER  AD> h11b_gb6_b1_m5_model1: :LIG1:C,H,H,C,C,H,O,C,O,C,O
MODEL 5
REMARK VINA RESULT:      -5.3      3.990      6.012
REMARK  11 active torsions:
REMARK  status: ('A' for Active; 'I' for Inactive)
REMARK    1  A    between atoms: C_1  and  O_19 
REMARK    2  A    between atoms: C_2  and  O_9 
REMARK    3  A    between atoms: C_3  and  O_10 
REMARK    4  A    between atoms: C_4  and  O_11 
REMARK    5  A    between atoms: C_6  and  C_7 
REMARK    6  A    between atoms: C_7  and  O_8 
REMARK    7  A    between atoms: O_11  and  C_12 
REMARK    8  A    between atoms: C_12  and  C_13 
REMARK    9  A    between atoms: C_14  and  C_15 
REMARK   10  A    between atoms: C_15  and  C_16 
REMARK   11  A    between atoms: C_16  and  C_17 
ROOT
HETATM    1  C   LIG     1      42.321   7.086   1.613  1.00  0.00     0.180 C 
HETATM    2  C   LIG     1      42.691   5.616   1.357  1.00  0.00     0.183 C 
HETATM    3  C   LIG     1      44.201   5.432   1.467  1.00  0.00     0.204 C 
HETATM    4  C   LIG     1      44.882   6.368   0.452  1.00  0.00     0.291 C 
HETATM    5  O   LIG     1      44.570   7.724   0.803  1.00  0.00    -0.348 OA
HETATM    6  C   LIG     1      43.168   8.038   0.739  1.00  0.00     0.179 C 
ENDROOT
BRANCH   4   7
HETATM    7  O   LIG     1      44.479   6.121  -0.900  1.00  0.00    -0.355 OA
BRANCH   7   8
HETATM    8  C   LIG     1      45.459   5.375  -1.618  1.00  0.00     0.198 C 
BRANCH   8   9
HETATM    9  C   LIG     1      46.417   6.325  -2.271  1.00  0.00    -0.005 C 
HETATM   10  C   LIG     1      47.722   6.048  -2.402  1.00  0.00    -0.029 C 
BRANCH  10  11
HETATM   11  C   LIG     1      48.738   6.975  -3.007  1.00  0.00     0.027 C 
BRANCH  11  12
HETATM   12  C   LIG     1      50.088   6.268  -3.175  1.00  0.00     0.003 C 
BRANCH  12  13
HETATM   13  C   LIG     1      51.259   7.245  -3.095  1.00  0.00    -0.004 C 
HETATM   14  C   LIG     1      52.243   6.838  -2.008  1.00  0.00     0.005 C 
ENDBRANCH  12  13
ENDBRANCH  11  12
ENDBRANCH  10  11
ENDBRANCH   8   9
ENDBRANCH   7   8
ENDBRANCH   4   7
BRANCH   3  15
HETATM   15  O   LIG     1      44.534   4.051   1.294  1.00  0.00    -0.388 OA
HETATM   16  H   LIG     1      45.200   3.861   1.988  1.00  0.00     0.210 HD
ENDBRANCH   3  15
BRANCH   2  17
HETATM   17  O   LIG     1      42.069   4.724   2.299  1.00  0.00    -0.390 OA
HETATM   18  H   LIG     1      41.323   5.198   2.713  1.00  0.00     0.210 HD
ENDBRANCH   2  17
BRANCH   6  19
HETATM   19  C   LIG     1      43.032   9.508   1.183  1.00  0.00     0.198 C 
BRANCH  19  20
HETATM   20  O   LIG     1      41.881   9.770   1.971  1.00  0.00    -0.398 OA
HETATM   21  H   LIG     1      42.120  10.420   2.652  1.00  0.00     0.209 HD
ENDBRANCH  19  20
ENDBRANCH   6  19
BRANCH   1  22
HETATM   22  O   LIG     1      40.915   7.246   1.404  1.00  0.00    -0.390 OA
HETATM   23  H   LIG     1      40.637   8.099   1.782  1.00  0.00     0.210 HD
ENDBRANCH   1  22
TORSDOF 11
ENDMDL
