REMARK AutoDockVina VirtualScreeningResult  Sun Mar  6 21:57:47 2016
USER  AD>  6 of 9 MODELS
USER  AD>  ligand efficiency  -0.3400
USER  AD>  -5.10, 11.762, 14.104
USER  AD> macro_close_ats: 11
USER  AD> hepi:A:LYS192:NZ
USER  AD> hepi:A:HIS266:NE2
USER  AD> hepi:A:GLY263:H
USER  AD> hepi:A:LYS192:H
USER  AD> hepi:A:GLY263:N
USER  AD> hepi:A:SER10:CA
USER  AD> hepi:A:THR262:CA
USER  AD> hepi:A:HIS266:CD2
USER  AD> hepi:A:ASP13:OD1
USER  AD> hepi:A:THR262:C
USER  AD> hepi:A:SER10:OG

USER  AD> lig_close_ats: 8
USER  AD> h11b_gb3_b2_m6_model1: :LIG1:O,C,H,O,H,O,H,C
MODEL 6
REMARK VINA RESULT:      -5.1     11.762     14.104
REMARK  8 active torsions:
REMARK  status: ('A' for Active; 'I' for Inactive)
REMARK    1  A    between atoms: C_1  and  O_15 
REMARK    2  A    between atoms: C_2  and  O_9 
REMARK    3  A    between atoms: C_3  and  O_10 
REMARK    4  A    between atoms: C_4  and  O_11 
REMARK    5  A    between atoms: C_6  and  C_7 
REMARK    6  A    between atoms: C_7  and  O_8 
REMARK    7  A    between atoms: O_11  and  C_12 
REMARK    8  A    between atoms: C_12  and  C_13 
ROOT
HETATM    1  C   LIG     1      40.049   3.445   1.408  1.00  0.00     0.180 C 
HETATM    2  C   LIG     1      40.468   4.787   2.005  1.00  0.00     0.183 C 
HETATM    3  C   LIG     1      41.729   5.332   1.337  1.00  0.00     0.204 C 
HETATM    4  C   LIG     1      42.841   4.260   1.353  1.00  0.00     0.291 C 
HETATM    5  O   LIG     1      42.372   3.032   0.782  1.00  0.00    -0.348 OA
HETATM    6  C   LIG     1      41.242   2.477   1.453  1.00  0.00     0.179 C 
ENDROOT
BRANCH   4   7
HETATM    7  O   LIG     1      43.933   4.685   0.535  1.00  0.00    -0.355 OA
BRANCH   7   8
HETATM    8  C   LIG     1      43.560   5.082  -0.779  1.00  0.00     0.197 C 
BRANCH   8   9
HETATM    9  C   LIG     1      44.774   5.568  -1.513  1.00  0.00    -0.011 C 
HETATM   10  C   LIG     1      45.943   5.851  -0.929  1.00  0.00     0.009 C 
ENDBRANCH   8   9
ENDBRANCH   7   8
ENDBRANCH   4   7
BRANCH   3  11
HETATM   11  O   LIG     1      42.120   6.529   2.031  1.00  0.00    -0.388 OA
HETATM   12  H   LIG     1      41.781   6.408   2.942  1.00  0.00     0.210 HD
ENDBRANCH   3  11
BRANCH   2  13
HETATM   13  O   LIG     1      39.404   5.744   1.860  1.00  0.00    -0.390 OA
HETATM   14  H   LIG     1      39.476   6.056   0.934  1.00  0.00     0.210 HD
ENDBRANCH   2  13
BRANCH   6  15
HETATM   15  C   LIG     1      40.907   1.144   0.770  1.00  0.00     0.198 C 
BRANCH  15  16
HETATM   16  O   LIG     1      42.091   0.413   0.461  1.00  0.00    -0.398 OA
HETATM   17  H   LIG     1      41.898  -0.521   0.666  1.00  0.00     0.209 HD
ENDBRANCH  15  16
ENDBRANCH   6  15
BRANCH   1  18
HETATM   18  O   LIG     1      38.923   2.972   2.157  1.00  0.00    -0.390 OA
HETATM   19  H   LIG     1      38.311   2.561   1.506  1.00  0.00     0.210 HD
ENDBRANCH   1  18
TORSDOF 8
ENDMDL
