REMARK AutoDockVina VirtualScreeningResult  Sun Mar  6 21:56:29 2016
USER  AD>  5 of 9 MODELS
USER  AD>  ligand efficiency  -0.3769
USER  AD>  -4.90, 11.891, 12.813
USER  AD> macro_close_ats: 7
USER  AD> hepi:A:SER10:OG
USER  AD> hepi:A:ASP261:CG
USER  AD> hepi:A:HIS266:NE2
USER  AD> hepi:A:ASP261:OD2
USER  AD> hepi:A:LYS192:H
USER  AD> hepi:A:GLY12:H
USER  AD> hepi:A:THR188:CG2

USER  AD> lig_close_ats: 6
USER  AD> h11b_aam_b1_m5_model1: :LIG1:C,H,C,O,O,H
MODEL 5
REMARK VINA RESULT:      -4.9     11.891     12.813
REMARK  6 active torsions:
REMARK  status: ('A' for Active; 'I' for Inactive)
REMARK    1  A    between atoms: C_1  and  O_7 
REMARK    2  A    between atoms: C_2  and  O_10 
REMARK    3  A    between atoms: C_3  and  O_11 
REMARK    4  A    between atoms: C_4  and  O_12 
REMARK    5  A    between atoms: C_6  and  C_8 
REMARK    6  A    between atoms: C_8  and  O_9 
ROOT
HETATM    1  C   LIG     1      42.002   4.764   1.884  1.00  0.00     0.180 C 
HETATM    2  C   LIG     1      40.526   5.180   1.989  1.00  0.00     0.183 C 
HETATM    3  C   LIG     1      39.750   4.712   0.753  1.00  0.00     0.204 C 
HETATM    4  C   LIG     1      40.449   5.233  -0.521  1.00  0.00     0.290 C 
HETATM    5  O   LIG     1      41.805   4.735  -0.545  1.00  0.00    -0.349 OA
HETATM    6  C   LIG     1      42.590   5.253   0.547  1.00  0.00     0.179 C 
ENDROOT
BRANCH   6   7
HETATM    7  C   LIG     1      44.045   4.818   0.347  1.00  0.00     0.198 C 
BRANCH   7   8
HETATM    8  O   LIG     1      44.556   4.169   1.505  1.00  0.00    -0.398 OA
HETATM    9  H   LIG     1      43.985   4.413   2.254  1.00  0.00     0.209 HD
ENDBRANCH   7   8
ENDBRANCH   6   7
BRANCH   1  10
HETATM   10  O   LIG     1      42.040   3.326   1.994  1.00  0.00    -0.390 OA
HETATM   11  H   LIG     1      42.971   3.063   2.124  1.00  0.00     0.210 HD
ENDBRANCH   1  10
BRANCH   2  12
HETATM   12  O   LIG     1      39.924   4.581   3.151  1.00  0.00    -0.390 OA
HETATM   13  H   LIG     1      39.636   3.689   2.863  1.00  0.00     0.210 HD
ENDBRANCH   2  12
BRANCH   4  14
HETATM   14  O   LIG     1      40.491   6.658  -0.638  1.00  0.00    -0.363 OA
HETATM   15  C   LIG     1      40.561   7.123  -1.979  1.00  0.00     0.204 C 
ENDBRANCH   4  14
BRANCH   3  16
HETATM   16  O   LIG     1      38.376   5.102   0.859  1.00  0.00    -0.388 OA
HETATM   17  H   LIG     1      37.870   4.266   0.790  1.00  0.00     0.210 HD
ENDBRANCH   3  16
TORSDOF 6
ENDMDL
