REMARK AutoDockVina VirtualScreeningResult  Sun Mar  6 21:56:55 2016
USER  AD>  3 of 9 MODELS
USER  AD>  ligand efficiency  -0.3533
USER  AD>  -5.30, 11.242, 13.648
USER  AD> macro_close_ats: 10
USER  AD> hepi:A:MET11:N
USER  AD> hepi:A:SER10:OG
USER  AD> hepi:A:ASP13:CG
USER  AD> hepi:A:GLY263:N
USER  AD> hepi:A:MET11:H
USER  AD> hepi:A:GLY263:H
USER  AD> hepi:A:ASP261:CG
USER  AD> hepi:A:ASP13:OD1
USER  AD> hepi:A:ILE287:CB
USER  AD> hepi:A:LYS192:H

USER  AD> lig_close_ats: 7
USER  AD> h11b_gb3_b1_m3_model1: :LIG1:C,H,O,H,H,O,H
MODEL 3
REMARK VINA RESULT:      -5.3     11.242     13.648
REMARK  8 active torsions:
REMARK  status: ('A' for Active; 'I' for Inactive)
REMARK    1  A    between atoms: C_1  and  O_15 
REMARK    2  A    between atoms: C_2  and  O_9 
REMARK    3  A    between atoms: C_3  and  O_10 
REMARK    4  A    between atoms: C_4  and  O_11 
REMARK    5  A    between atoms: C_6  and  C_7 
REMARK    6  A    between atoms: C_7  and  O_8 
REMARK    7  A    between atoms: O_11  and  C_12 
REMARK    8  A    between atoms: C_12  and  C_13 
ROOT
HETATM    1  C   LIG L   1      40.035   3.403   1.377  1.00  0.00     0.180 C 
HETATM    2  C   LIG L   1      40.297   4.791   1.958  1.00  0.00     0.183 C 
HETATM    3  C   LIG L   1      41.463   5.486   1.255  1.00  0.00     0.204 C 
HETATM    4  C   LIG L   1      42.700   4.561   1.243  1.00  0.00     0.291 C 
HETATM    5  O   LIG L   1      42.374   3.281   0.689  1.00  0.00    -0.348 OA
HETATM    6  C   LIG L   1      41.340   2.593   1.392  1.00  0.00     0.179 C 
ENDROOT
BRANCH   4   7
HETATM    7  O   LIG L   1      43.708   5.115   0.395  1.00  0.00    -0.355 OA
BRANCH   7   8
HETATM    8  C   LIG L   1      44.981   5.255   1.015  1.00  0.00     0.197 C 
BRANCH   8   9
HETATM    9  C   LIG L   1      45.199   6.693   1.380  1.00  0.00    -0.011 C 
HETATM   10  C   LIG L   1      45.853   7.101   2.473  1.00  0.00     0.009 C 
ENDBRANCH   8   9
ENDBRANCH   7   8
ENDBRANCH   4   7
BRANCH   3  11
HETATM   11  O   LIG L   1      41.718   6.726   1.935  1.00  0.00    -0.388 OA
HETATM   12  H   LIG L   1      42.578   6.590   2.383  1.00  0.00     0.210 HD
ENDBRANCH   3  11
BRANCH   2  13
HETATM   13  O   LIG L   1      39.119   5.606   1.840  1.00  0.00    -0.390 OA
HETATM   14  H   LIG L   1      38.514   5.086   1.271  1.00  0.00     0.210 HD
ENDBRANCH   2  13
BRANCH   6  15
HETATM   15  C   LIG L   1      41.157   1.224   0.721  1.00  0.00     0.198 C 
BRANCH  15  16
HETATM   16  O   LIG L   1      42.323   0.418   0.871  1.00  0.00    -0.398 OA
HETATM   17  H   LIG L   1      42.262  -0.281   0.193  1.00  0.00     0.209 HD
ENDBRANCH  15  16
ENDBRANCH   6  15
BRANCH   1  18
HETATM   18  O   LIG L   1      38.996   2.798   2.157  1.00  0.00    -0.390 OA
HETATM   19  H   LIG L   1      38.347   2.432   1.516  1.00  0.00     0.210 HD
ENDBRANCH   1  18
TORSDOF 8
ENDMDL
