REMARK AutoDockVina VirtualScreeningResult  Sun Mar  6 21:56:52 2016
USER  AD>  7 of 9 MODELS
USER  AD>  ligand efficiency  -0.3692
USER  AD>  -4.80,  1.247,  3.523
USER  AD> macro_close_ats: 7
USER  AD> hepi:A:LYS192:NZ
USER  AD> hepi:A:GLY12:H
USER  AD> hepi:A:ASP261:OD2
USER  AD> hepi:A:LYS192:H
USER  AD> hepi:A:MET11:H
USER  AD> hepi:A:ASP261:CG
USER  AD> hepi:A:ASP261:OD1

USER  AD> lig_close_ats: 5
USER  AD> h11b_gam_b1_m7_model1: :LIG1:H,O,O,H,H
MODEL 7
REMARK VINA RESULT:      -4.8      1.247      3.523
REMARK  6 active torsions:
REMARK  status: ('A' for Active; 'I' for Inactive)
REMARK    1  A    between atoms: C_1  and  O_13 
REMARK    2  A    between atoms: C_2  and  O_9 
REMARK    3  A    between atoms: C_3  and  O_10 
REMARK    4  A    between atoms: C_4  and  O_11 
REMARK    5  A    between atoms: C_6  and  C_7 
REMARK    6  A    between atoms: C_7  and  O_8 
ROOT
HETATM    1  C   LIG     1      41.313   5.527   1.157  1.00  0.00     0.180 C 
HETATM    2  C   LIG     1      39.915   4.904   1.084  1.00  0.00     0.183 C 
HETATM    3  C   LIG     1      39.912   3.507   1.701  1.00  0.00     0.204 C 
HETATM    4  C   LIG     1      40.997   2.648   1.017  1.00  0.00     0.290 C 
HETATM    5  O   LIG     1      42.276   3.263   1.258  1.00  0.00    -0.349 OA
HETATM    6  C   LIG     1      42.379   4.547   0.629  1.00  0.00     0.179 C 
ENDROOT
BRANCH   6   7
HETATM    7  C   LIG     1      43.790   5.095   0.879  1.00  0.00     0.198 C 
BRANCH   7   8
HETATM    8  O   LIG     1      44.617   4.087   1.460  1.00  0.00    -0.398 OA
HETATM    9  H   LIG     1      44.445   4.107   2.420  1.00  0.00     0.209 HD
ENDBRANCH   7   8
ENDBRANCH   6   7
BRANCH   1  10
HETATM   10  O   LIG     1      41.286   6.758   0.421  1.00  0.00    -0.390 OA
HETATM   11  H   LIG     1      41.098   7.471   1.069  1.00  0.00     0.210 HD
ENDBRANCH   1  10
BRANCH   2  12
HETATM   12  O   LIG     1      38.974   5.728   1.799  1.00  0.00    -0.390 OA
HETATM   13  H   LIG     1      38.102   5.319   1.625  1.00  0.00     0.210 HD
ENDBRANCH   2  12
BRANCH   4  14
HETATM   14  O   LIG     1      40.832   2.491  -0.395  1.00  0.00    -0.363 OA
HETATM   15  C   LIG     1      40.745   1.140  -0.820  1.00  0.00     0.204 C 
ENDBRANCH   4  14
BRANCH   3  16
HETATM   16  O   LIG     1      38.599   2.939   1.625  1.00  0.00    -0.388 OA
HETATM   17  H   LIG     1      38.106   3.359   2.360  1.00  0.00     0.210 HD
ENDBRANCH   3  16
TORSDOF 6
ENDMDL
