2780
 OpenBabel05271511392D

 30 30  0  0  1  0  0  0  0  0999 V2000
   88.0000 1337.9000    0.0000 C   0  0  0  0  0  0  0  0  0  0  0  0
  113.9800 1352.9000    0.0000 C   0  0  0  0  0  0  0  0  0  0  0  0
   62.0200 1352.9000    0.0000 N   0  3  0  0  0  0  0  0  0  0  0  0
  113.9800 1382.9000    0.0000 O   0  0  0  0  0  0  0  0  0  0  0  0
  165.9400 1352.9000    0.0000 C   0  0  0  0  0  0  0  0  0  0  0  0
  191.9200 1337.9000    0.0000 C   0  0  0  0  0  0  0  0  0  0  0  0
  139.9600 1337.9000    0.0000 N   0  0  0  0  0  0  0  0  0  0  0  0
  191.9200 1307.9000    0.0000 O   0  0  0  0  0  0  0  0  0  0  0  0
  243.8800 1307.9000    0.0000 C   0  0  0  0  0  0  0  0  0  0  0  0
  243.8800 1337.9000    0.0000 C   0  0  1  0  0  0  0  0  0  0  0  0
  269.8600 1352.9000    0.0000 C   0  0  0  0  0  0  0  0  0  0  0  0
  217.9000 1352.9000    0.0000 N   0  0  0  0  0  0  0  0  0  0  0  0
  269.8600 1382.9000    0.0000 O   0  0  0  0  0  0  0  0  0  0  0  0
  217.9000 1292.9000    0.0000 C   0  0  0  0  0  0  0  0  0  0  0  0
  217.9000 1262.9000    0.0000 C   0  0  0  0  0  0  0  0  0  0  0  0
  191.9200 1247.9000    0.0000 C   0  0  0  0  0  0  0  0  0  0  0  0
  191.9200 1217.9000    0.0000 N   0  0  0  0  0  0  0  0  0  0  0  0
  321.8200 1382.9000    0.0000 C   0  0  0  0  0  0  0  0  0  0  0  0
  321.8200 1352.9000    0.0000 C   0  0  1  0  0  0  0  0  0  0  0  0
  347.8100 1337.9000    0.0000 C   0  0  0  0  0  0  0  0  0  0  0  0
  295.8400 1337.9000    0.0000 N   0  0  0  0  0  0  0  0  0  0  0  0
  347.8100 1307.9000    0.0000 O   0  0  0  0  0  0  0  0  0  0  0  0
  407.4300 1311.3500    0.0000 C   0  0  0  0  0  0  0  0  0  0  0  0
  373.7900 1352.9000    0.0000 N   0  0  0  0  0  0  0  0  0  0  0  0
  401.1900 1340.6900    0.0000 C   0  0  1  0  0  0  0  0  0  0  0  0
  421.2700 1362.9900    0.0000 C   0  0  0  0  0  0  0  0  0  0  0  0
  406.2700 1388.9700    0.0000 C   0  0  0  0  0  0  0  0  0  0  0  0
  376.9200 1382.7300    0.0000 C   0  0  0  0  0  0  0  0  0  0  0  0
  435.9600 1302.0800    0.0000 O   0  0  0  0  0  0  0  0  0  0  0  0
  385.1400 1291.2700    0.0000 O   0  5  0  0  0  0  0  0  0  0  0  0
  1  3  1  0  0  0  0
  1  2  1  0  0  0  0
  2  7  1  0  0  0  0
  2  4  2  0  0  0  0
  5  7  1  0  0  0  0
  5  6  1  0  0  0  0
  6 12  1  0  0  0  0
  6  8  2  0  0  0  0
  9 14  1  0  0  0  0
 10 11  1  6  0  0  0
 10 12  1  0  0  0  0
 10  9  1  0  0  0  0
 11 21  1  0  0  0  0
 11 13  2  0  0  0  0
 14 15  1  0  0  0  0
 15 16  1  0  0  0  0
 16 17  1  0  0  0  0
 19 21  1  1  0  0  0
 19 20  1  0  0  0  0
 19 18  1  0  0  0  0
 20 24  1  0  0  0  0
 20 22  2  0  0  0  0
 23 30  1  0  0  0  0
 23 29  2  0  0  0  0
 24 25  1  0  0  0  0
 24 28  1  0  0  0  0
 25 26  1  0  0  0  0
 25 23  1  1  0  0  0
 26 27  1  0  0  0  0
 27 28  1  0  0  0  0
M  CHG  2   3   1  30  -1
M  END
