3549
 OpenBabel05271511392D

 33 33  0  0  1  0  0  0  0  0999 V2000
  546.0500 1384.9000    0.0000 C   0  0  0  0  0  0  0  0  0  0  0  0
  572.0300 1399.9000    0.0000 C   0  0  0  0  0  0  0  0  0  0  0  0
  520.0700 1399.9000    0.0000 N   0  0  0  0  0  0  0  0  0  0  0  0
  572.0300 1429.9000    0.0000 O   0  0  0  0  0  0  0  0  0  0  0  0
  623.9900 1399.9000    0.0000 C   0  0  0  0  0  0  0  0  0  0  0  0
  649.9700 1384.9000    0.0000 C   0  0  0  0  0  0  0  0  0  0  0  0
  598.0100 1384.9000    0.0000 N   0  0  0  0  0  0  0  0  0  0  0  0
  649.9700 1354.9000    0.0000 O   0  0  0  0  0  0  0  0  0  0  0  0
  701.9300 1354.9000    0.0000 C   0  0  0  0  0  0  0  0  0  0  0  0
  701.9300 1384.9000    0.0000 C   0  0  1  0  0  0  0  0  0  0  0  0
  727.9100 1399.9000    0.0000 C   0  0  0  0  0  0  0  0  0  0  0  0
  675.9500 1399.9000    0.0000 N   0  0  0  0  0  0  0  0  0  0  0  0
  727.9100 1429.9000    0.0000 O   0  0  0  0  0  0  0  0  0  0  0  0
  675.9500 1339.9000    0.0000 C   0  0  0  0  0  0  0  0  0  0  0  0
  675.9500 1309.9000    0.0000 C   0  0  0  0  0  0  0  0  0  0  0  0
  649.9700 1294.9000    0.0000 C   0  0  0  0  0  0  0  0  0  0  0  0
  649.9700 1264.9000    0.0000 N   0  0  0  0  0  0  0  0  0  0  0  0
  779.8700 1429.9000    0.0000 C   0  0  0  0  0  0  0  0  0  0  0  0
  779.8700 1399.9000    0.0000 C   0  0  1  0  0  0  0  0  0  0  0  0
  805.8500 1384.9000    0.0000 C   0  0  0  0  0  0  0  0  0  0  0  0
  753.8900 1384.9000    0.0000 N   0  0  0  0  0  0  0  0  0  0  0  0
  805.8500 1354.9000    0.0000 O   0  0  0  0  0  0  0  0  0  0  0  0
  865.4800 1358.3500    0.0000 C   0  0  0  0  0  0  0  0  0  0  0  0
  831.8400 1399.9000    0.0000 N   0  0  0  0  0  0  0  0  0  0  0  0
  859.2400 1387.6900    0.0000 C   0  0  1  0  0  0  0  0  0  0  0  0
  879.3200 1409.9900    0.0000 C   0  0  0  0  0  0  0  0  0  0  0  0
  864.3200 1435.9700    0.0000 C   0  0  0  0  0  0  0  0  0  0  0  0
  834.9700 1429.7300    0.0000 C   0  0  0  0  0  0  0  0  0  0  0  0
  894.0100 1349.0800    0.0000 O   0  0  0  0  0  0  0  0  0  0  0  0
  843.1800 1338.2700    0.0000 N   0  0  0  0  0  0  0  0  0  0  0  0
  494.0900 1384.9000    0.0000 C   0  0  0  0  0  0  0  0  0  0  0  0
  468.1000 1399.9000    0.0000 C   0  0  0  0  0  0  0  0  0  0  0  0
  494.0900 1354.9000    0.0000 O   0  0  0  0  0  0  0  0  0  0  0  0
  1  3  1  0  0  0  0
  1  2  1  0  0  0  0
  2  7  1  0  0  0  0
  2  4  2  0  0  0  0
  3 31  1  0  0  0  0
  5  7  1  0  0  0  0
  5  6  1  0  0  0  0
  6 12  1  0  0  0  0
  6  8  2  0  0  0  0
  9 14  1  0  0  0  0
 10 11  1  6  0  0  0
 10 12  1  0  0  0  0
 10  9  1  0  0  0  0
 11 21  1  0  0  0  0
 11 13  2  0  0  0  0
 14 15  1  0  0  0  0
 15 16  1  0  0  0  0
 16 17  1  0  0  0  0
 19 21  1  1  0  0  0
 19 20  1  0  0  0  0
 19 18  1  0  0  0  0
 20 24  1  0  0  0  0
 20 22  2  0  0  0  0
 23 30  1  0  0  0  0
 23 29  2  0  0  0  0
 24 25  1  0  0  0  0
 24 28  1  0  0  0  0
 25 26  1  0  0  0  0
 25 23  1  1  0  0  0
 26 27  1  0  0  0  0
 27 28  1  0  0  0  0
 31 32  1  0  0  0  0
 31 33  2  0  0  0  0
M  END
