1304
 OpenBabel05271511392D

 36 36  0  0  1  0  0  0  0  0999 V2000
 1006.0500 1380.9000    0.0000 C   0  0  0  0  0  0  0  0  0  0  0  0
 1032.0300 1395.9000    0.0000 C   0  0  0  0  0  0  0  0  0  0  0  0
  980.0700 1395.9000    0.0000 N   0  0  0  0  0  0  0  0  0  0  0  0
 1032.0300 1425.9000    0.0000 O   0  0  0  0  0  0  0  0  0  0  0  0
 1083.9900 1395.9000    0.0000 C   0  0  0  0  0  0  0  0  0  0  0  0
 1109.9700 1380.9000    0.0000 C   0  0  0  0  0  0  0  0  0  0  0  0
 1058.0100 1380.9000    0.0000 N   0  0  0  0  0  0  0  0  0  0  0  0
 1109.9700 1350.9000    0.0000 O   0  0  0  0  0  0  0  0  0  0  0  0
 1161.9300 1350.9000    0.0000 C   0  0  0  0  0  0  0  0  0  0  0  0
 1161.9300 1380.9000    0.0000 C   0  0  1  0  0  0  0  0  0  0  0  0
 1187.9100 1395.9000    0.0000 C   0  0  0  0  0  0  0  0  0  0  0  0
 1135.9500 1395.9000    0.0000 N   0  0  0  0  0  0  0  0  0  0  0  0
 1187.9100 1425.9000    0.0000 O   0  0  0  0  0  0  0  0  0  0  0  0
 1135.9500 1335.9000    0.0000 C   0  0  0  0  0  0  0  0  0  0  0  0
 1135.9500 1305.9000    0.0000 C   0  0  0  0  0  0  0  0  0  0  0  0
 1109.9700 1290.9000    0.0000 C   0  0  0  0  0  0  0  0  0  0  0  0
 1109.9700 1260.9000    0.0000 N   0  0  0  0  0  0  0  0  0  0  0  0
 1239.8700 1425.9000    0.0000 C   0  0  0  0  0  0  0  0  0  0  0  0
 1239.8700 1395.9000    0.0000 C   0  0  1  0  0  0  0  0  0  0  0  0
 1265.8500 1380.9000    0.0000 C   0  0  0  0  0  0  0  0  0  0  0  0
 1213.8900 1380.9000    0.0000 N   0  0  0  0  0  0  0  0  0  0  0  0
 1265.8500 1350.9000    0.0000 O   0  0  0  0  0  0  0  0  0  0  0  0
 1325.4800 1354.3500    0.0000 C   0  0  0  0  0  0  0  0  0  0  0  0
 1291.8400 1395.9000    0.0000 N   0  0  0  0  0  0  0  0  0  0  0  0
 1319.2400 1383.6900    0.0000 C   0  0  1  0  0  0  0  0  0  0  0  0
 1339.3200 1405.9900    0.0000 C   0  0  0  0  0  0  0  0  0  0  0  0
 1324.3200 1431.9700    0.0000 C   0  0  0  0  0  0  0  0  0  0  0  0
 1294.9700 1425.7300    0.0000 C   0  0  0  0  0  0  0  0  0  0  0  0
 1354.0100 1345.0800    0.0000 O   0  0  0  0  0  0  0  0  0  0  0  0
 1303.1800 1334.2700    0.0000 N   0  0  0  0  0  0  0  0  0  0  0  0
  954.0900 1380.9000    0.0000 C   0  0  0  0  0  0  0  0  0  0  0  0
  928.1000 1395.9000    0.0000 C   0  0  0  0  0  0  0  0  0  0  0  0
  954.0900 1350.9000    0.0000 O   0  0  0  0  0  0  0  0  0  0  0  0
 1080.9900 1253.1300    0.0000 C   0  0  0  0  0  0  0  0  0  0  0  0
 1073.2300 1224.1500    0.0000 C   0  0  0  0  0  0  0  0  0  0  0  0
 1059.7800 1274.3400    0.0000 O   0  0  0  0  0  0  0  0  0  0  0  0
  1  3  1  0  0  0  0
  1  2  1  0  0  0  0
  2  7  1  0  0  0  0
  2  4  2  0  0  0  0
  3 31  1  0  0  0  0
  5  7  1  0  0  0  0
  5  6  1  0  0  0  0
  6 12  1  0  0  0  0
  6  8  2  0  0  0  0
  9 14  1  0  0  0  0
 10 11  1  6  0  0  0
 10 12  1  0  0  0  0
 10  9  1  0  0  0  0
 11 21  1  0  0  0  0
 11 13  2  0  0  0  0
 14 15  1  0  0  0  0
 15 16  1  0  0  0  0
 16 17  1  0  0  0  0
 17 34  1  0  0  0  0
 19 21  1  1  0  0  0
 19 20  1  0  0  0  0
 19 18  1  0  0  0  0
 20 24  1  0  0  0  0
 20 22  2  0  0  0  0
 23 30  1  0  0  0  0
 23 29  2  0  0  0  0
 24 25  1  0  0  0  0
 24 28  1  0  0  0  0
 25 26  1  0  0  0  0
 25 23  1  1  0  0  0
 26 27  1  0  0  0  0
 27 28  1  0  0  0  0
 31 32  1  0  0  0  0
 31 33  2  0  0  0  0
 34 35  1  0  0  0  0
 34 36  2  0  0  0  0
M  END
