3199
 OpenBabel05271511392D

 22 21  0  0  1  0  0  0  0  0999 V2000
 1976.1000 1372.9000    0.0000 C   0  0  0  0  0  0  0  0  0  0  0  0
 2002.0800 1387.9000    0.0000 C   0  0  0  0  0  0  0  0  0  0  0  0
 2002.0800 1417.9000    0.0000 O   0  0  0  0  0  0  0  0  0  0  0  0
 2054.0400 1387.9000    0.0000 C   0  0  0  0  0  0  0  0  0  0  0  0
 2080.0200 1372.9000    0.0000 C   0  0  0  0  0  0  0  0  0  0  0  0
 2028.0600 1372.9000    0.0000 N   0  0  0  0  0  0  0  0  0  0  0  0
 2080.0200 1342.9000    0.0000 O   0  0  0  0  0  0  0  0  0  0  0  0
 2131.9800 1342.9000    0.0000 C   0  0  0  0  0  0  0  0  0  0  0  0
 2131.9800 1372.9000    0.0000 C   0  0  1  0  0  0  0  0  0  0  0  0
 2157.9600 1387.9000    0.0000 C   0  0  0  0  0  0  0  0  0  0  0  0
 2106.0000 1387.9000    0.0000 N   0  0  0  0  0  0  0  0  0  0  0  0
 2157.9600 1417.9000    0.0000 O   0  0  0  0  0  0  0  0  0  0  0  0
 2106.0000 1327.9000    0.0000 C   0  0  0  0  0  0  0  0  0  0  0  0
 2106.0000 1297.9000    0.0000 C   0  0  0  0  0  0  0  0  0  0  0  0
 2080.0200 1282.9000    0.0000 C   0  0  0  0  0  0  0  0  0  0  0  0
 2080.0200 1252.9000    0.0000 N   0  0  0  0  0  0  0  0  0  0  0  0
 2209.9200 1417.9000    0.0000 C   0  0  0  0  0  0  0  0  0  0  0  0
 2209.9200 1387.9000    0.0000 C   0  0  1  0  0  0  0  0  0  0  0  0
 2235.9000 1372.9000    0.0000 C   0  0  0  0  0  0  0  0  0  0  0  0
 2183.9400 1372.9000    0.0000 N   0  0  0  0  0  0  0  0  0  0  0  0
 2235.9000 1342.9000    0.0000 O   0  0  0  0  0  0  0  0  0  0  0  0
 2261.8900 1387.9000    0.0000 N   0  0  0  0  0  0  0  0  0  0  0  0
  1  2  1  0  0  0  0
  2  6  1  0  0  0  0
  2  3  2  0  0  0  0
  4  6  1  0  0  0  0
  4  5  1  0  0  0  0
  5 11  1  0  0  0  0
  5  7  2  0  0  0  0
  8 13  1  0  0  0  0
  9 10  1  6  0  0  0
  9 11  1  0  0  0  0
  9  8  1  0  0  0  0
 10 20  1  0  0  0  0
 10 12  2  0  0  0  0
 13 14  1  0  0  0  0
 14 15  1  0  0  0  0
 15 16  1  0  0  0  0
 18 20  1  1  0  0  0
 18 19  1  0  0  0  0
 18 17  1  0  0  0  0
 19 22  1  0  0  0  0
 19 21  2  0  0  0  0
M  END
