896
 OpenBabel05271511392D

 43 43  0  0  1  0  0  0  0  0999 V2000
 1129.4900 1346.9000    0.0000 C   0  0  0  0  0  0  0  0  0  0  0  0
 1155.4700 1361.9000    0.0000 C   0  0  0  0  0  0  0  0  0  0  0  0
 1103.5100 1361.9000    0.0000 N   0  0  0  0  0  0  0  0  0  0  0  0
 1155.4700 1391.9000    0.0000 O   0  0  0  0  0  0  0  0  0  0  0  0
 1207.4300 1361.9000    0.0000 C   0  0  0  0  0  0  0  0  0  0  0  0
 1233.4100 1346.9000    0.0000 C   0  0  0  0  0  0  0  0  0  0  0  0
 1181.4500 1346.9000    0.0000 N   0  0  0  0  0  0  0  0  0  0  0  0
 1233.4100 1316.9000    0.0000 O   0  0  0  0  0  0  0  0  0  0  0  0
 1285.3700 1316.9000    0.0000 C   0  0  0  0  0  0  0  0  0  0  0  0
 1285.3700 1346.9000    0.0000 C   0  0  1  0  0  0  0  0  0  0  0  0
 1311.3500 1361.9000    0.0000 C   0  0  0  0  0  0  0  0  0  0  0  0
 1259.3900 1361.9000    0.0000 N   0  0  0  0  0  0  0  0  0  0  0  0
 1311.3500 1391.9000    0.0000 O   0  0  0  0  0  0  0  0  0  0  0  0
 1259.3900 1301.9000    0.0000 C   0  0  0  0  0  0  0  0  0  0  0  0
 1259.3900 1271.9000    0.0000 C   0  0  0  0  0  0  0  0  0  0  0  0
 1233.4100 1256.9000    0.0000 C   0  0  0  0  0  0  0  0  0  0  0  0
 1233.4100 1226.9000    0.0000 N   0  0  0  0  0  0  0  0  0  0  0  0
 1363.3100 1391.9000    0.0000 C   0  0  0  0  0  0  0  0  0  0  0  0
 1363.3100 1361.9000    0.0000 C   0  0  1  0  0  0  0  0  0  0  0  0
 1389.2900 1346.9000    0.0000 C   0  0  0  0  0  0  0  0  0  0  0  0
 1337.3300 1346.9000    0.0000 N   0  0  0  0  0  0  0  0  0  0  0  0
 1389.2900 1316.9000    0.0000 O   0  0  0  0  0  0  0  0  0  0  0  0
 1448.9200 1320.3500    0.0000 C   0  0  0  0  0  0  0  0  0  0  0  0
 1415.2800 1361.9000    0.0000 N   0  0  0  0  0  0  0  0  0  0  0  0
 1442.6800 1349.6900    0.0000 C   0  0  1  0  0  0  0  0  0  0  0  0
 1462.7600 1371.9900    0.0000 C   0  0  0  0  0  0  0  0  0  0  0  0
 1447.7600 1397.9700    0.0000 C   0  0  0  0  0  0  0  0  0  0  0  0
 1418.4100 1391.7300    0.0000 C   0  0  0  0  0  0  0  0  0  0  0  0
 1477.4500 1311.0800    0.0000 O   0  0  0  0  0  0  0  0  0  0  0  0
 1426.6200 1300.2700    0.0000 N   0  0  0  0  0  0  0  0  0  0  0  0
 1077.5300 1346.9000    0.0000 C   0  0  0  0  0  0  0  0  0  0  0  0
 1051.5400 1361.9000    0.0000 C   0  0  0  0  0  0  0  0  0  0  0  0
 1077.5300 1316.9000    0.0000 O   0  0  0  0  0  0  0  0  0  0  0  0
 1204.4300 1219.1300    0.0000 C   0  0  2  0  0  0  0  0  0  0  0  0
 1196.6700 1190.1500    0.0000 S   0  0  0  0  0  0  0  0  0  0  0  0
 1167.6900 1182.3900    0.0000 C   0  0  0  0  0  0  0  0  0  0  0  0
 1159.9200 1153.4100    0.0000 C   0  0  0  0  0  0  0  0  0  0  0  0
 1130.9500 1145.6500    0.0000 N   0  0  0  0  0  0  0  0  0  0  0  0
 1123.1800 1116.6700    0.0000 C   0  0  0  0  0  0  0  0  0  0  0  0
 1094.2000 1108.9000    0.0000 C   0  0  0  0  0  0  0  0  0  0  0  0
 1189.4300 1245.1100    0.0000 C   0  0  0  0  0  0  0  0  0  0  0  0
 1178.4500 1234.1300    0.0000 O   0  5  0  0  0  0  0  0  0  0  0  0
 1144.4000 1095.4600    0.0000 O   0  0  0  0  0  0  0  0  0  0  0  0
  1  3  1  0  0  0  0
  1  2  1  0  0  0  0
  2  7  1  0  0  0  0
  2  4  2  0  0  0  0
  3 31  1  0  0  0  0
  5  7  1  0  0  0  0
  5  6  1  0  0  0  0
  6 12  1  0  0  0  0
  6  8  2  0  0  0  0
  9 14  1  0  0  0  0
 10 11  1  6  0  0  0
 10 12  1  0  0  0  0
 10  9  1  0  0  0  0
 11 21  1  0  0  0  0
 11 13  2  0  0  0  0
 14 15  1  0  0  0  0
 15 16  1  0  0  0  0
 16 17  1  0  0  0  0
 19 21  1  1  0  0  0
 19 20  1  0  0  0  0
 19 18  1  0  0  0  0
 20 24  1  0  0  0  0
 20 22  2  0  0  0  0
 23 30  1  0  0  0  0
 23 29  2  0  0  0  0
 24 25  1  0  0  0  0
 24 28  1  0  0  0  0
 25 26  1  0  0  0  0
 25 23  1  1  0  0  0
 26 27  1  0  0  0  0
 27 28  1  0  0  0  0
 31 32  1  0  0  0  0
 31 33  2  0  0  0  0
 34 17  1  1  0  0  0
 34 35  1  0  0  0  0
 34 41  1  0  0  0  0
 34 42  1  0  0  0  0
 35 36  1  0  0  0  0
 36 37  1  0  0  0  0
 37 38  1  0  0  0  0
 38 39  1  0  0  0  0
 39 40  1  0  0  0  0
 39 43  2  0  0  0  0
M  CHG  1  42  -1
M  END
