188
 OpenBabel05271511392D

 45 45  0  0  1  0  0  0  0  0999 V2000
   91.4400 1467.4200    0.0000 C   0  0  0  0  0  0  0  0  0  0  0  0
   62.3200 1512.2500    0.0000 N   0  3  0  0  0  0  0  0  0  0  0  0
   65.4600 1482.4200    0.0000 C   0  0  1  0  0  0  0  0  0  0  0  0
   38.0500 1470.2100    0.0000 C   0  0  0  0  0  0  0  0  0  0  0  0
   17.9800 1492.5100    0.0000 C   0  0  0  0  0  0  0  0  0  0  0  0
   32.9800 1518.4900    0.0000 C   0  0  0  0  0  0  0  0  0  0  0  0
   91.4400 1437.4200    0.0000 O   0  0  0  0  0  0  0  0  0  0  0  0
  143.4000 1437.4200    0.0000 C   0  0  0  0  0  0  0  0  0  0  0  0
  143.4000 1467.4200    0.0000 C   0  0  1  0  0  0  0  0  0  0  0  0
  169.3800 1482.4200    0.0000 C   0  0  0  0  0  0  0  0  0  0  0  0
  117.4200 1482.4200    0.0000 N   0  0  0  0  0  0  0  0  0  0  0  0
  169.3800 1512.4200    0.0000 O   0  0  0  0  0  0  0  0  0  0  0  0
   91.4400 1377.4200    0.0000 N   0  0  0  0  0  0  0  0  0  0  0  0
   91.4400 1347.4200    0.0000 C   0  0  0  0  0  0  0  0  0  0  0  0
  117.4200 1332.4200    0.0000 N   0  3  0  0  0  0  0  0  0  0  0  0
   65.4600 1332.4200    0.0000 N   0  0  0  0  0  0  0  0  0  0  0  0
  117.4200 1422.4200    0.0000 C   0  0  0  0  0  0  0  0  0  0  0  0
  117.4200 1392.4200    0.0000 C   0  0  0  0  0  0  0  0  0  0  0  0
  221.3400 1512.4200    0.0000 C   0  0  0  0  0  0  0  0  0  0  0  0
  221.3400 1482.4200    0.0000 C   0  0  1  0  0  0  0  0  0  0  0  0
  247.3200 1467.4200    0.0000 C   0  0  0  0  0  0  0  0  0  0  0  0
  195.3600 1467.4200    0.0000 N   0  0  0  0  0  0  0  0  0  0  0  0
  247.3200 1437.4200    0.0000 O   0  0  0  0  0  0  0  0  0  0  0  0
  195.3600 1527.4200    0.0000 C   0  0  0  0  0  0  0  0  0  0  0  0
  195.3600 1557.4200    0.0000 C   0  0  0  0  0  0  0  0  0  0  0  0
  169.3800 1572.4200    0.0000 C   0  0  0  0  0  0  0  0  0  0  0  0
  169.3800 1602.4200    0.0000 N   0  0  0  0  0  0  0  0  0  0  0  0
  299.2800 1437.4200    0.0000 C   0  0  0  0  0  0  0  0  0  0  0  0
  299.2800 1467.4200    0.0000 C   0  0  1  0  0  0  0  0  0  0  0  0
  325.2600 1482.4200    0.0000 C   0  0  0  0  0  0  0  0  0  0  0  0
  273.3000 1482.4200    0.0000 N   0  0  0  0  0  0  0  0  0  0  0  0
  325.2600 1512.4200    0.0000 O   0  0  0  0  0  0  0  0  0  0  0  0
  325.2600 1422.4200    0.0000 C   0  0  0  0  0  0  0  0  0  0  0  0
  325.2600 1392.4200    0.0000 C   0  0  0  0  0  0  0  0  0  0  0  0
  299.2800 1377.4200    0.0000 O   0  0  0  0  0  0  0  0  0  0  0  0
  351.2400 1377.4200    0.0000 N   0  0  0  0  0  0  0  0  0  0  0  0
  377.2200 1512.4200    0.0000 C   0  0  0  0  0  0  0  0  0  0  0  0
  377.2200 1482.4200    0.0000 C   0  0  1  0  0  0  0  0  0  0  0  0
  403.2100 1467.4200    0.0000 C   0  0  0  0  0  0  0  0  0  0  0  0
  351.2400 1467.4200    0.0000 N   0  0  0  0  0  0  0  0  0  0  0  0
  403.2100 1437.4200    0.0000 O   0  0  0  0  0  0  0  0  0  0  0  0
  403.2100 1527.4200    0.0000 C   0  0  0  0  0  0  0  0  0  0  0  0
  429.1900 1512.4200    0.0000 C   0  0  0  0  0  0  0  0  0  0  0  0
  403.2100 1557.4200    0.0000 C   0  0  0  0  0  0  0  0  0  0  0  0
  429.1900 1482.4200    0.0000 O   0  5  0  0  0  0  0  0  0  0  0  0
  1 11  1  0  0  0  0
  1  7  2  0  0  0  0
  2  3  1  0  0  0  0
  2  6  1  0  0  0  0
  3  4  1  0  0  0  0
  3  1  1  6  0  0  0
  4  5  1  0  0  0  0
  5  6  1  0  0  0  0
  8  9  1  0  0  0  0
  8 17  1  0  0  0  0
  9 11  1  6  0  0  0
  9 10  1  0  0  0  0
 10 22  1  0  0  0  0
 10 12  2  0  0  0  0
 13 14  1  0  0  0  0
 13 18  1  0  0  0  0
 14 16  1  0  0  0  0
 14 15  2  0  0  0  0
 17 18  1  0  0  0  0
 19 20  1  0  0  0  0
 19 24  1  0  0  0  0
 20 22  1  1  0  0  0
 20 21  1  0  0  0  0
 21 31  1  0  0  0  0
 21 23  2  0  0  0  0
 24 25  1  0  0  0  0
 25 26  1  0  0  0  0
 26 27  1  0  0  0  0
 28 33  1  0  0  0  0
 28 29  1  0  0  0  0
 29 30  1  6  0  0  0
 29 31  1  0  0  0  0
 30 40  1  0  0  0  0
 30 32  2  0  0  0  0
 33 34  1  0  0  0  0
 34 36  1  0  0  0  0
 34 35  2  0  0  0  0
 37 42  1  0  0  0  0
 37 38  1  0  0  0  0
 38 39  1  1  0  0  0
 38 40  1  0  0  0  0
 39 45  1  0  0  0  0
 39 41  2  0  0  0  0
 42 44  1  0  0  0  0
 42 43  1  0  0  0  0
M  CHG  3   2   1  15   1  45  -1
M  END
