1377
 OpenBabel05271511392D

 51 51  0  0  1  0  0  0  0  0999 V2000
 1001.9300 1436.5900    0.0000 C   0  0  0  0  0  0  0  0  0  0  0  0
  972.8100 1481.4200    0.0000 N   0  0  0  0  0  0  0  0  0  0  0  0
  975.9500 1451.5900    0.0000 C   0  0  1  0  0  0  0  0  0  0  0  0
  948.5400 1439.3800    0.0000 C   0  0  0  0  0  0  0  0  0  0  0  0
  928.4700 1461.6800    0.0000 C   0  0  0  0  0  0  0  0  0  0  0  0
  943.4700 1487.6600    0.0000 C   0  0  0  0  0  0  0  0  0  0  0  0
 1001.9300 1406.5900    0.0000 O   0  0  0  0  0  0  0  0  0  0  0  0
 1053.8900 1406.5900    0.0000 C   0  0  0  0  0  0  0  0  0  0  0  0
 1053.8900 1436.5900    0.0000 C   0  0  1  0  0  0  0  0  0  0  0  0
 1079.8700 1451.5900    0.0000 C   0  0  0  0  0  0  0  0  0  0  0  0
 1027.9100 1451.5900    0.0000 N   0  0  0  0  0  0  0  0  0  0  0  0
 1079.8700 1481.5900    0.0000 O   0  0  0  0  0  0  0  0  0  0  0  0
 1001.9300 1346.5900    0.0000 N   0  0  0  0  0  0  0  0  0  0  0  0
 1001.9300 1316.5900    0.0000 C   0  0  0  0  0  0  0  0  0  0  0  0
 1027.9100 1301.5900    0.0000 N   0  3  0  0  0  0  0  0  0  0  0  0
  975.9500 1301.5900    0.0000 N   0  0  0  0  0  0  0  0  0  0  0  0
 1027.9100 1391.5900    0.0000 C   0  0  0  0  0  0  0  0  0  0  0  0
 1027.9100 1361.5900    0.0000 C   0  0  0  0  0  0  0  0  0  0  0  0
 1131.8400 1481.5900    0.0000 C   0  0  0  0  0  0  0  0  0  0  0  0
 1131.8400 1451.5900    0.0000 C   0  0  1  0  0  0  0  0  0  0  0  0
 1157.8200 1436.5900    0.0000 C   0  0  0  0  0  0  0  0  0  0  0  0
 1105.8500 1436.5900    0.0000 N   0  0  0  0  0  0  0  0  0  0  0  0
 1157.8200 1406.5900    0.0000 O   0  0  0  0  0  0  0  0  0  0  0  0
 1105.8500 1496.5900    0.0000 C   0  0  0  0  0  0  0  0  0  0  0  0
 1105.8500 1526.5900    0.0000 C   0  0  0  0  0  0  0  0  0  0  0  0
 1079.8700 1541.5900    0.0000 C   0  0  0  0  0  0  0  0  0  0  0  0
 1079.8700 1571.5900    0.0000 N   0  0  0  0  0  0  0  0  0  0  0  0
 1209.7800 1406.5900    0.0000 C   0  0  0  0  0  0  0  0  0  0  0  0
 1209.7800 1436.5900    0.0000 C   0  0  1  0  0  0  0  0  0  0  0  0
 1235.7600 1451.5900    0.0000 C   0  0  0  0  0  0  0  0  0  0  0  0
 1183.8000 1451.5900    0.0000 N   0  0  0  0  0  0  0  0  0  0  0  0
 1235.7600 1481.5900    0.0000 O   0  0  0  0  0  0  0  0  0  0  0  0
 1235.7600 1391.5900    0.0000 C   0  0  0  0  0  0  0  0  0  0  0  0
 1235.7600 1361.5900    0.0000 C   0  0  0  0  0  0  0  0  0  0  0  0
 1209.7800 1346.5900    0.0000 O   0  0  0  0  0  0  0  0  0  0  0  0
 1261.7400 1346.5900    0.0000 N   0  0  0  0  0  0  0  0  0  0  0  0
 1287.7200 1481.5900    0.0000 C   0  0  0  0  0  0  0  0  0  0  0  0
 1287.7200 1451.5900    0.0000 C   0  0  1  0  0  0  0  0  0  0  0  0
 1313.7000 1436.5900    0.0000 C   0  0  0  0  0  0  0  0  0  0  0  0
 1261.7400 1436.5900    0.0000 N   0  0  0  0  0  0  0  0  0  0  0  0
 1313.7000 1406.5900    0.0000 O   0  0  0  0  0  0  0  0  0  0  0  0
 1313.7000 1496.5900    0.0000 C   0  0  0  0  0  0  0  0  0  0  0  0
 1339.6800 1481.5900    0.0000 C   0  0  0  0  0  0  0  0  0  0  0  0
 1313.7000 1526.5900    0.0000 C   0  0  0  0  0  0  0  0  0  0  0  0
 1339.6800 1451.5900    0.0000 N   0  0  0  0  0  0  0  0  0  0  0  0
  995.1100 1501.5000    0.0000 C   0  0  0  0  0  0  0  0  0  0  0  0
 1023.6400 1492.2300    0.0000 C   0  0  0  0  0  0  0  0  0  0  0  0
  988.8700 1530.8400    0.0000 O   0  0  0  0  0  0  0  0  0  0  0  0
 1053.8900 1586.5900    0.0000 C   0  0  0  0  0  0  0  0  0  0  0  0
 1053.8900 1616.5900    0.0000 C   0  0  0  0  0  0  0  0  0  0  0  0
 1027.9100 1571.5900    0.0000 O   0  0  0  0  0  0  0  0  0  0  0  0
  1 11  1  0  0  0  0
  1  7  2  0  0  0  0
  2  3  1  0  0  0  0
  2  6  1  0  0  0  0
  2 46  1  0  0  0  0
  3  4  1  0  0  0  0
  3  1  1  6  0  0  0
  4  5  1  0  0  0  0
  5  6  1  0  0  0  0
  8  9  1  0  0  0  0
  8 17  1  0  0  0  0
  9 11  1  6  0  0  0
  9 10  1  0  0  0  0
 10 22  1  0  0  0  0
 10 12  2  0  0  0  0
 13 14  1  0  0  0  0
 13 18  1  0  0  0  0
 14 16  1  0  0  0  0
 14 15  2  0  0  0  0
 17 18  1  0  0  0  0
 19 20  1  0  0  0  0
 19 24  1  0  0  0  0
 20 22  1  1  0  0  0
 20 21  1  0  0  0  0
 21 31  1  0  0  0  0
 21 23  2  0  0  0  0
 24 25  1  0  0  0  0
 25 26  1  0  0  0  0
 26 27  1  0  0  0  0
 27 49  1  0  0  0  0
 28 33  1  0  0  0  0
 28 29  1  0  0  0  0
 29 30  1  6  0  0  0
 29 31  1  0  0  0  0
 30 40  1  0  0  0  0
 30 32  2  0  0  0  0
 33 34  1  0  0  0  0
 34 36  1  0  0  0  0
 34 35  2  0  0  0  0
 37 42  1  0  0  0  0
 37 38  1  0  0  0  0
 38 39  1  1  0  0  0
 38 40  1  0  0  0  0
 39 45  1  0  0  0  0
 39 41  2  0  0  0  0
 42 44  1  0  0  0  0
 42 43  1  0  0  0  0
 46 47  1  0  0  0  0
 46 48  2  0  0  0  0
 49 50  1  0  0  0  0
 49 51  2  0  0  0  0
M  CHG  1  15   1
M  END
