3203
 OpenBabel05271511392D

 33 32  0  0  1  0  0  0  0  0999 V2000
 2035.9900 1468.5900    0.0000 C   0  0  0  0  0  0  0  0  0  0  0  0
 2010.0100 1483.5900    0.0000 C   0  0  0  0  0  0  0  0  0  0  0  0
 2035.9900 1438.5900    0.0000 O   0  0  0  0  0  0  0  0  0  0  0  0
 2087.9500 1438.5900    0.0000 C   0  0  0  0  0  0  0  0  0  0  0  0
 2087.9500 1468.5900    0.0000 C   0  0  1  0  0  0  0  0  0  0  0  0
 2113.9300 1483.5900    0.0000 C   0  0  0  0  0  0  0  0  0  0  0  0
 2061.9700 1483.5900    0.0000 N   0  0  0  0  0  0  0  0  0  0  0  0
 2113.9300 1513.5900    0.0000 O   0  0  0  0  0  0  0  0  0  0  0  0
 2035.9900 1378.5900    0.0000 N   0  0  0  0  0  0  0  0  0  0  0  0
 2035.9900 1348.5900    0.0000 C   0  0  0  0  0  0  0  0  0  0  0  0
 2061.9700 1333.5900    0.0000 N   0  3  0  0  0  0  0  0  0  0  0  0
 2010.0100 1333.5900    0.0000 N   0  0  0  0  0  0  0  0  0  0  0  0
 2061.9700 1423.5900    0.0000 C   0  0  0  0  0  0  0  0  0  0  0  0
 2061.9700 1393.5900    0.0000 C   0  0  0  0  0  0  0  0  0  0  0  0
 2165.9000 1513.5900    0.0000 C   0  0  0  0  0  0  0  0  0  0  0  0
 2165.9000 1483.5900    0.0000 C   0  0  1  0  0  0  0  0  0  0  0  0
 2191.8800 1468.5900    0.0000 C   0  0  0  0  0  0  0  0  0  0  0  0
 2139.9100 1468.5900    0.0000 N   0  0  0  0  0  0  0  0  0  0  0  0
 2191.8800 1438.5900    0.0000 O   0  0  0  0  0  0  0  0  0  0  0  0
 2139.9100 1528.5900    0.0000 C   0  0  0  0  0  0  0  0  0  0  0  0
 2139.9100 1558.5900    0.0000 C   0  0  0  0  0  0  0  0  0  0  0  0
 2113.9300 1573.5900    0.0000 C   0  0  0  0  0  0  0  0  0  0  0  0
 2113.9300 1603.5900    0.0000 N   0  0  0  0  0  0  0  0  0  0  0  0
 2243.8400 1438.5900    0.0000 C   0  0  0  0  0  0  0  0  0  0  0  0
 2243.8400 1468.5900    0.0000 C   0  0  1  0  0  0  0  0  0  0  0  0
 2269.8200 1483.5900    0.0000 C   0  0  0  0  0  0  0  0  0  0  0  0
 2217.8600 1483.5900    0.0000 N   0  0  0  0  0  0  0  0  0  0  0  0
 2269.8200 1513.5900    0.0000 O   0  0  0  0  0  0  0  0  0  0  0  0
 2269.8200 1423.5900    0.0000 C   0  0  0  0  0  0  0  0  0  0  0  0
 2269.8200 1393.5900    0.0000 C   0  0  0  0  0  0  0  0  0  0  0  0
 2243.8400 1378.5900    0.0000 O   0  0  0  0  0  0  0  0  0  0  0  0
 2295.8000 1378.5900    0.0000 N   0  0  0  0  0  0  0  0  0  0  0  0
 2295.8000 1468.5900    0.0000 N   0  0  0  0  0  0  0  0  0  0  0  0
  1  7  1  0  0  0  0
  1  2  1  0  0  0  0
  1  3  2  0  0  0  0
  4  5  1  0  0  0  0
  4 13  1  0  0  0  0
  5  7  1  6  0  0  0
  5  6  1  0  0  0  0
  6 18  1  0  0  0  0
  6  8  2  0  0  0  0
  9 10  1  0  0  0  0
  9 14  1  0  0  0  0
 10 12  1  0  0  0  0
 10 11  2  0  0  0  0
 13 14  1  0  0  0  0
 15 16  1  0  0  0  0
 15 20  1  0  0  0  0
 16 18  1  1  0  0  0
 16 17  1  0  0  0  0
 17 27  1  0  0  0  0
 17 19  2  0  0  0  0
 20 21  1  0  0  0  0
 21 22  1  0  0  0  0
 22 23  1  0  0  0  0
 24 29  1  0  0  0  0
 24 25  1  0  0  0  0
 25 26  1  6  0  0  0
 25 27  1  0  0  0  0
 26 33  1  0  0  0  0
 26 28  2  0  0  0  0
 29 30  1  0  0  0  0
 30 32  1  0  0  0  0
 30 31  2  0  0  0  0
M  CHG  1  11   1
M  END
