3622
 OpenBabel05271511392D

 48 48  0  0  1  0  0  0  0  0999 V2000
  541.9300 1468.5900    0.0000 C   0  0  0  0  0  0  0  0  0  0  0  0
  512.8100 1513.4200    0.0000 N   0  0  0  0  0  0  0  0  0  0  0  0
  515.9500 1483.5900    0.0000 C   0  0  1  0  0  0  0  0  0  0  0  0
  488.5400 1471.3800    0.0000 C   0  0  0  0  0  0  0  0  0  0  0  0
  468.4700 1493.6800    0.0000 C   0  0  0  0  0  0  0  0  0  0  0  0
  483.4700 1519.6600    0.0000 C   0  0  0  0  0  0  0  0  0  0  0  0
  541.9300 1438.5900    0.0000 O   0  0  0  0  0  0  0  0  0  0  0  0
  593.8900 1438.5900    0.0000 C   0  0  0  0  0  0  0  0  0  0  0  0
  593.8900 1468.5900    0.0000 C   0  0  1  0  0  0  0  0  0  0  0  0
  619.8700 1483.5900    0.0000 C   0  0  0  0  0  0  0  0  0  0  0  0
  567.9100 1483.5900    0.0000 N   0  0  0  0  0  0  0  0  0  0  0  0
  619.8700 1513.5900    0.0000 O   0  0  0  0  0  0  0  0  0  0  0  0
  541.9300 1378.5900    0.0000 N   0  0  0  0  0  0  0  0  0  0  0  0
  541.9300 1348.5900    0.0000 C   0  0  0  0  0  0  0  0  0  0  0  0
  567.9100 1333.5900    0.0000 N   0  3  0  0  0  0  0  0  0  0  0  0
  515.9500 1333.5900    0.0000 N   0  0  0  0  0  0  0  0  0  0  0  0
  567.9100 1423.5900    0.0000 C   0  0  0  0  0  0  0  0  0  0  0  0
  567.9100 1393.5900    0.0000 C   0  0  0  0  0  0  0  0  0  0  0  0
  671.8400 1513.5900    0.0000 C   0  0  0  0  0  0  0  0  0  0  0  0
  671.8400 1483.5900    0.0000 C   0  0  1  0  0  0  0  0  0  0  0  0
  697.8200 1468.5900    0.0000 C   0  0  0  0  0  0  0  0  0  0  0  0
  645.8500 1468.5900    0.0000 N   0  0  0  0  0  0  0  0  0  0  0  0
  697.8200 1438.5900    0.0000 O   0  0  0  0  0  0  0  0  0  0  0  0
  645.8500 1528.5900    0.0000 C   0  0  0  0  0  0  0  0  0  0  0  0
  645.8500 1558.5900    0.0000 C   0  0  0  0  0  0  0  0  0  0  0  0
  619.8700 1573.5900    0.0000 C   0  0  0  0  0  0  0  0  0  0  0  0
  619.8700 1603.5900    0.0000 N   0  0  0  0  0  0  0  0  0  0  0  0
  749.7800 1438.5900    0.0000 C   0  0  0  0  0  0  0  0  0  0  0  0
  749.7800 1468.5900    0.0000 C   0  0  1  0  0  0  0  0  0  0  0  0
  775.7600 1483.5900    0.0000 C   0  0  0  0  0  0  0  0  0  0  0  0
  723.8000 1483.5900    0.0000 N   0  0  0  0  0  0  0  0  0  0  0  0
  775.7600 1513.5900    0.0000 O   0  0  0  0  0  0  0  0  0  0  0  0
  775.7600 1423.5900    0.0000 C   0  0  0  0  0  0  0  0  0  0  0  0
  775.7600 1393.5900    0.0000 C   0  0  0  0  0  0  0  0  0  0  0  0
  749.7800 1378.5900    0.0000 O   0  0  0  0  0  0  0  0  0  0  0  0
  801.7400 1378.5900    0.0000 N   0  0  0  0  0  0  0  0  0  0  0  0
  827.7200 1513.5900    0.0000 C   0  0  0  0  0  0  0  0  0  0  0  0
  827.7200 1483.5900    0.0000 C   0  0  1  0  0  0  0  0  0  0  0  0
  853.7000 1468.5900    0.0000 C   0  0  0  0  0  0  0  0  0  0  0  0
  801.7400 1468.5900    0.0000 N   0  0  0  0  0  0  0  0  0  0  0  0
  853.7000 1438.5900    0.0000 O   0  0  0  0  0  0  0  0  0  0  0  0
  853.7000 1528.5900    0.0000 C   0  0  0  0  0  0  0  0  0  0  0  0
  879.6800 1513.5900    0.0000 C   0  0  0  0  0  0  0  0  0  0  0  0
  853.7000 1558.5900    0.0000 C   0  0  0  0  0  0  0  0  0  0  0  0
  879.6800 1483.5900    0.0000 N   0  0  0  0  0  0  0  0  0  0  0  0
  535.1100 1533.5000    0.0000 C   0  0  0  0  0  0  0  0  0  0  0  0
  563.6400 1524.2300    0.0000 C   0  0  0  0  0  0  0  0  0  0  0  0
  528.8700 1562.8400    0.0000 O   0  0  0  0  0  0  0  0  0  0  0  0
  1 11  1  0  0  0  0
  1  7  2  0  0  0  0
  2  3  1  0  0  0  0
  2  6  1  0  0  0  0
  2 46  1  0  0  0  0
  3  4  1  0  0  0  0
  3  1  1  6  0  0  0
  4  5  1  0  0  0  0
  5  6  1  0  0  0  0
  8  9  1  0  0  0  0
  8 17  1  0  0  0  0
  9 11  1  6  0  0  0
  9 10  1  0  0  0  0
 10 22  1  0  0  0  0
 10 12  2  0  0  0  0
 13 14  1  0  0  0  0
 13 18  1  0  0  0  0
 14 16  1  0  0  0  0
 14 15  2  0  0  0  0
 17 18  1  0  0  0  0
 19 20  1  0  0  0  0
 19 24  1  0  0  0  0
 20 22  1  1  0  0  0
 20 21  1  0  0  0  0
 21 31  1  0  0  0  0
 21 23  2  0  0  0  0
 24 25  1  0  0  0  0
 25 26  1  0  0  0  0
 26 27  1  0  0  0  0
 28 33  1  0  0  0  0
 28 29  1  0  0  0  0
 29 30  1  6  0  0  0
 29 31  1  0  0  0  0
 30 40  1  0  0  0  0
 30 32  2  0  0  0  0
 33 34  1  0  0  0  0
 34 36  1  0  0  0  0
 34 35  2  0  0  0  0
 37 42  1  0  0  0  0
 37 38  1  0  0  0  0
 38 39  1  1  0  0  0
 38 40  1  0  0  0  0
 39 45  1  0  0  0  0
 39 41  2  0  0  0  0
 42 44  1  0  0  0  0
 42 43  1  0  0  0  0
 46 47  1  0  0  0  0
 46 48  2  0  0  0  0
M  CHG  1  15   1
M  END
