963
 OpenBabel05271511392D

 58 58  0  0  1  0  0  0  0  0999 V2000
 1125.3700 1324.5900    0.0000 C   0  0  0  0  0  0  0  0  0  0  0  0
 1096.2500 1369.4200    0.0000 N   0  0  0  0  0  0  0  0  0  0  0  0
 1099.3900 1339.5900    0.0000 C   0  0  1  0  0  0  0  0  0  0  0  0
 1071.9800 1327.3800    0.0000 C   0  0  0  0  0  0  0  0  0  0  0  0
 1051.9100 1349.6800    0.0000 C   0  0  0  0  0  0  0  0  0  0  0  0
 1066.9100 1375.6600    0.0000 C   0  0  0  0  0  0  0  0  0  0  0  0
 1125.3700 1294.5900    0.0000 O   0  0  0  0  0  0  0  0  0  0  0  0
 1177.3300 1294.5900    0.0000 C   0  0  0  0  0  0  0  0  0  0  0  0
 1177.3300 1324.5900    0.0000 C   0  0  1  0  0  0  0  0  0  0  0  0
 1203.3100 1339.5900    0.0000 C   0  0  0  0  0  0  0  0  0  0  0  0
 1151.3500 1339.5900    0.0000 N   0  0  0  0  0  0  0  0  0  0  0  0
 1203.3100 1369.5900    0.0000 O   0  0  0  0  0  0  0  0  0  0  0  0
 1125.3700 1234.5900    0.0000 N   0  0  0  0  0  0  0  0  0  0  0  0
 1125.3700 1204.5900    0.0000 C   0  0  0  0  0  0  0  0  0  0  0  0
 1151.3500 1189.5900    0.0000 N   0  3  0  0  0  0  0  0  0  0  0  0
 1099.3900 1189.5900    0.0000 N   0  0  0  0  0  0  0  0  0  0  0  0
 1151.3500 1279.5900    0.0000 C   0  0  0  0  0  0  0  0  0  0  0  0
 1151.3500 1249.5900    0.0000 C   0  0  0  0  0  0  0  0  0  0  0  0
 1255.2800 1369.5900    0.0000 C   0  0  0  0  0  0  0  0  0  0  0  0
 1255.2800 1339.5900    0.0000 C   0  0  1  0  0  0  0  0  0  0  0  0
 1281.2600 1324.5900    0.0000 C   0  0  0  0  0  0  0  0  0  0  0  0
 1229.2900 1324.5900    0.0000 N   0  0  0  0  0  0  0  0  0  0  0  0
 1281.2600 1294.5900    0.0000 O   0  0  0  0  0  0  0  0  0  0  0  0
 1229.2900 1384.5900    0.0000 C   0  0  0  0  0  0  0  0  0  0  0  0
 1229.2900 1414.5900    0.0000 C   0  0  0  0  0  0  0  0  0  0  0  0
 1203.3100 1429.5900    0.0000 C   0  0  0  0  0  0  0  0  0  0  0  0
 1203.3100 1459.5900    0.0000 N   0  0  0  0  0  0  0  0  0  0  0  0
 1333.2200 1294.5900    0.0000 C   0  0  0  0  0  0  0  0  0  0  0  0
 1333.2200 1324.5900    0.0000 C   0  0  1  0  0  0  0  0  0  0  0  0
 1359.2000 1339.5900    0.0000 C   0  0  0  0  0  0  0  0  0  0  0  0
 1307.2400 1339.5900    0.0000 N   0  0  0  0  0  0  0  0  0  0  0  0
 1359.2000 1369.5900    0.0000 O   0  0  0  0  0  0  0  0  0  0  0  0
 1359.2000 1279.5900    0.0000 C   0  0  0  0  0  0  0  0  0  0  0  0
 1359.2000 1249.5900    0.0000 C   0  0  0  0  0  0  0  0  0  0  0  0
 1333.2200 1234.5900    0.0000 O   0  0  0  0  0  0  0  0  0  0  0  0
 1385.1800 1234.5900    0.0000 N   0  0  0  0  0  0  0  0  0  0  0  0
 1411.1600 1369.5900    0.0000 C   0  0  0  0  0  0  0  0  0  0  0  0
 1411.1600 1339.5900    0.0000 C   0  0  1  0  0  0  0  0  0  0  0  0
 1437.1400 1324.5900    0.0000 C   0  0  0  0  0  0  0  0  0  0  0  0
 1385.1800 1324.5900    0.0000 N   0  0  0  0  0  0  0  0  0  0  0  0
 1437.1400 1294.5900    0.0000 O   0  0  0  0  0  0  0  0  0  0  0  0
 1437.1400 1384.5900    0.0000 C   0  0  0  0  0  0  0  0  0  0  0  0
 1463.1200 1369.5900    0.0000 C   0  0  0  0  0  0  0  0  0  0  0  0
 1437.1400 1414.5900    0.0000 C   0  0  0  0  0  0  0  0  0  0  0  0
 1463.1200 1339.5900    0.0000 N   0  0  0  0  0  0  0  0  0  0  0  0
 1118.5500 1389.5000    0.0000 C   0  0  0  0  0  0  0  0  0  0  0  0
 1147.0800 1380.2300    0.0000 C   0  0  0  0  0  0  0  0  0  0  0  0
 1112.3100 1418.8400    0.0000 O   0  0  0  0  0  0  0  0  0  0  0  0
 1177.3300 1474.5900    0.0000 C   0  0  2  0  0  0  0  0  0  0  0  0
 1177.3300 1504.5900    0.0000 S   0  0  0  0  0  0  0  0  0  0  0  0
 1151.3500 1519.5900    0.0000 C   0  0  0  0  0  0  0  0  0  0  0  0
 1151.3500 1549.5900    0.0000 C   0  0  0  0  0  0  0  0  0  0  0  0
 1125.3700 1564.5900    0.0000 N   0  0  0  0  0  0  0  0  0  0  0  0
 1125.3700 1594.5900    0.0000 C   0  0  0  0  0  0  0  0  0  0  0  0
 1099.3900 1609.5900    0.0000 C   0  0  0  0  0  0  0  0  0  0  0  0
 1148.3600 1466.8200    0.0000 C   0  0  0  0  0  0  0  0  0  0  0  0
 1156.1200 1453.3700    0.0000 O   0  5  0  0  0  0  0  0  0  0  0  0
 1151.3500 1609.5900    0.0000 O   0  0  0  0  0  0  0  0  0  0  0  0
  1 11  1  0  0  0  0
  1  7  2  0  0  0  0
  2  3  1  0  0  0  0
  2  6  1  0  0  0  0
  2 46  1  0  0  0  0
  3  4  1  0  0  0  0
  3  1  1  6  0  0  0
  4  5  1  0  0  0  0
  5  6  1  0  0  0  0
  8  9  1  0  0  0  0
  8 17  1  0  0  0  0
  9 11  1  6  0  0  0
  9 10  1  0  0  0  0
 10 22  1  0  0  0  0
 10 12  2  0  0  0  0
 13 14  1  0  0  0  0
 13 18  1  0  0  0  0
 14 16  1  0  0  0  0
 14 15  2  0  0  0  0
 17 18  1  0  0  0  0
 19 20  1  0  0  0  0
 19 24  1  0  0  0  0
 20 22  1  1  0  0  0
 20 21  1  0  0  0  0
 21 31  1  0  0  0  0
 21 23  2  0  0  0  0
 24 25  1  0  0  0  0
 25 26  1  0  0  0  0
 26 27  1  0  0  0  0
 28 33  1  0  0  0  0
 28 29  1  0  0  0  0
 29 30  1  6  0  0  0
 29 31  1  0  0  0  0
 30 40  1  0  0  0  0
 30 32  2  0  0  0  0
 33 34  1  0  0  0  0
 34 36  1  0  0  0  0
 34 35  2  0  0  0  0
 37 42  1  0  0  0  0
 37 38  1  0  0  0  0
 38 39  1  1  0  0  0
 38 40  1  0  0  0  0
 39 45  1  0  0  0  0
 39 41  2  0  0  0  0
 42 44  1  0  0  0  0
 42 43  1  0  0  0  0
 46 47  1  0  0  0  0
 46 48  2  0  0  0  0
 49 27  1  1  0  0  0
 49 50  1  0  0  0  0
 49 56  1  0  0  0  0
 49 57  1  0  0  0  0
 50 51  1  0  0  0  0
 51 52  1  0  0  0  0
 52 53  1  0  0  0  0
 53 54  1  0  0  0  0
 54 55  1  0  0  0  0
 54 58  2  0  0  0  0
M  CHG  2  15   1  57  -1
M  END
