191
 OpenBabel05271511392D

 34 33  0  0  1  0  0  0  0  0999 V2000
   17.6100 1564.7500    0.0000 C   0  0  0  0  0  0  0  0  0  0  0  0
   43.6000 1549.7500    0.0000 C   0  0  1  0  0  0  0  0  0  0  0  0
   69.5700 1564.7500    0.0000 C   0  0  0  0  0  0  0  0  0  0  0  0
   43.6000 1519.7500    0.0000 N   0  3  0  0  0  0  0  0  0  0  0  0
   69.5700 1594.7500    0.0000 O   0  0  0  0  0  0  0  0  0  0  0  0
  121.5400 1594.7500    0.0000 C   0  0  2  0  0  0  0  0  0  0  0  0
  121.5400 1564.7500    0.0000 C   0  0  3  0  0  0  0  0  0  0  0  0
  147.5100 1549.7500    0.0000 C   0  0  0  0  0  0  0  0  0  0  0  0
   95.5500 1549.7500    0.0000 N   0  0  0  0  0  0  0  0  0  0  0  0
  147.5100 1519.7500    0.0000 O   0  0  0  0  0  0  0  0  0  0  0  0
  147.5100 1609.7500    0.0000 O   0  0  0  0  0  0  0  0  0  0  0  0
   95.5500 1609.7500    0.0000 C   0  0  0  0  0  0  0  0  0  0  0  0
  199.4700 1519.7500    0.0000 C   0  0  0  0  0  0  0  0  0  0  0  0
  199.4700 1549.7500    0.0000 C   0  0  1  0  0  0  0  0  0  0  0  0
  225.4600 1564.7500    0.0000 C   0  0  0  0  0  0  0  0  0  0  0  0
  173.4900 1564.7500    0.0000 N   0  0  0  0  0  0  0  0  0  0  0  0
  225.4600 1594.7500    0.0000 O   0  0  0  0  0  0  0  0  0  0  0  0
  173.4900 1504.7500    0.0000 C   0  0  0  0  0  0  0  0  0  0  0  0
  173.4900 1474.7500    0.0000 C   0  0  0  0  0  0  0  0  0  0  0  0
  147.5100 1459.7500    0.0000 C   0  0  0  0  0  0  0  0  0  0  0  0
  147.5100 1429.7500    0.0000 N   0  3  0  0  0  0  0  0  0  0  0  0
  277.4100 1594.7500    0.0000 C   0  0  0  0  0  0  0  0  0  0  0  0
  277.4100 1564.7500    0.0000 C   0  0  1  0  0  0  0  0  0  0  0  0
  303.4000 1549.7500    0.0000 C   0  0  0  0  0  0  0  0  0  0  0  0
  251.4300 1549.7500    0.0000 N   0  0  0  0  0  0  0  0  0  0  0  0
  303.4000 1519.7500    0.0000 O   0  0  0  0  0  0  0  0  0  0  0  0
  303.4000 1609.7500    0.0000 C   0  0  0  0  0  0  0  0  0  0  0  0
  251.4300 1609.7500    0.0000 C   0  0  0  0  0  0  0  0  0  0  0  0
  355.3500 1519.7500    0.0000 C   0  0  0  0  0  0  0  0  0  0  0  0
  355.3500 1549.7500    0.0000 C   0  0  1  0  0  0  0  0  0  0  0  0
  381.3500 1564.7500    0.0000 C   0  0  0  0  0  0  0  0  0  0  0  0
  329.3800 1564.7500    0.0000 N   0  0  0  0  0  0  0  0  0  0  0  0
  381.3500 1594.7500    0.0000 O   0  0  0  0  0  0  0  0  0  0  0  0
  407.3200 1549.7500    0.0000 O   0  5  0  0  0  0  0  0  0  0  0  0
  1  2  1  0  0  0  0
  2  4  1  1  0  0  0
  2  3  1  0  0  0  0
  3  9  1  0  0  0  0
  3  5  2  0  0  0  0
  6 12  1  1  0  0  0
  6 11  1  0  0  0  0
  6  7  1  0  0  0  0
  7  8  1  0  0  0  0
  7  9  1  0  0  0  0
  8 16  1  0  0  0  0
  8 10  2  0  0  0  0
 13 18  1  0  0  0  0
 14 16  1  6  0  0  0
 14 15  1  0  0  0  0
 14 13  1  0  0  0  0
 15 25  1  0  0  0  0
 15 17  2  0  0  0  0
 18 19  1  0  0  0  0
 19 20  1  0  0  0  0
 20 21  1  0  0  0  0
 22 27  1  0  0  0  0
 22 28  1  0  0  0  0
 23 25  1  1  0  0  0
 23 24  1  0  0  0  0
 23 22  1  0  0  0  0
 24 32  1  0  0  0  0
 24 26  2  0  0  0  0
 30 32  1  6  0  0  0
 30 31  1  0  0  0  0
 30 29  1  0  0  0  0
 31 34  1  0  0  0  0
 31 33  2  0  0  0  0
M  CHG  3   4   1  21   1  34  -1
M  END
