3118
 OpenBabel05271511392D

 30 29  0  0  1  0  0  0  0  0999 V2000
 1976.1000 1547.2500    0.0000 C   0  0  0  0  0  0  0  0  0  0  0  0
 2002.0800 1562.2500    0.0000 C   0  0  0  0  0  0  0  0  0  0  0  0
 2002.0800 1592.2500    0.0000 O   0  0  0  0  0  0  0  0  0  0  0  0
 2054.0400 1592.2500    0.0000 C   0  0  2  0  0  0  0  0  0  0  0  0
 2054.0400 1562.2500    0.0000 C   0  0  3  0  0  0  0  0  0  0  0  0
 2080.0200 1547.2500    0.0000 C   0  0  0  0  0  0  0  0  0  0  0  0
 2028.0600 1547.2500    0.0000 N   0  0  0  0  0  0  0  0  0  0  0  0
 2080.0200 1517.2500    0.0000 O   0  0  0  0  0  0  0  0  0  0  0  0
 2080.0200 1607.2500    0.0000 O   0  0  0  0  0  0  0  0  0  0  0  0
 2028.0600 1607.2500    0.0000 C   0  0  0  0  0  0  0  0  0  0  0  0
 2131.9900 1517.2500    0.0000 C   0  0  0  0  0  0  0  0  0  0  0  0
 2131.9900 1547.2500    0.0000 C   0  0  1  0  0  0  0  0  0  0  0  0
 2157.9700 1562.2500    0.0000 C   0  0  0  0  0  0  0  0  0  0  0  0
 2106.0000 1562.2500    0.0000 N   0  0  0  0  0  0  0  0  0  0  0  0
 2157.9700 1592.2500    0.0000 O   0  0  0  0  0  0  0  0  0  0  0  0
 2106.0000 1502.2500    0.0000 C   0  0  0  0  0  0  0  0  0  0  0  0
 2106.0000 1472.2500    0.0000 C   0  0  0  0  0  0  0  0  0  0  0  0
 2080.0200 1457.2500    0.0000 C   0  0  0  0  0  0  0  0  0  0  0  0
 2080.0200 1427.2500    0.0000 N   0  0  0  0  0  0  0  0  0  0  0  0
 2209.9300 1592.2500    0.0000 C   0  0  0  0  0  0  0  0  0  0  0  0
 2209.9300 1562.2500    0.0000 C   0  0  1  0  0  0  0  0  0  0  0  0
 2235.9100 1547.2500    0.0000 C   0  0  0  0  0  0  0  0  0  0  0  0
 2183.9500 1547.2500    0.0000 N   0  0  0  0  0  0  0  0  0  0  0  0
 2235.9100 1517.2500    0.0000 O   0  0  0  0  0  0  0  0  0  0  0  0
 2235.9100 1607.2500    0.0000 C   0  0  0  0  0  0  0  0  0  0  0  0
 2183.9500 1607.2500    0.0000 C   0  0  0  0  0  0  0  0  0  0  0  0
 2261.8900 1562.2500    0.0000 N   0  0  0  0  0  0  0  0  0  0  0  0
 2051.0500 1419.4900    0.0000 C   0  0  0  0  0  0  0  0  0  0  0  0
 2043.2800 1390.5100    0.0000 C   0  0  0  0  0  0  0  0  0  0  0  0
 2029.8300 1440.7000    0.0000 O   0  0  0  0  0  0  0  0  0  0  0  0
  1  2  1  0  0  0  0
  2  7  1  0  0  0  0
  2  3  2  0  0  0  0
  4 10  1  1  0  0  0
  4  9  1  0  0  0  0
  4  5  1  0  0  0  0
  5  6  1  0  0  0  0
  5  7  1  0  0  0  0
  6 14  1  0  0  0  0
  6  8  2  0  0  0  0
 11 16  1  0  0  0  0
 12 14  1  6  0  0  0
 12 13  1  0  0  0  0
 12 11  1  0  0  0  0
 13 23  1  0  0  0  0
 13 15  2  0  0  0  0
 16 17  1  0  0  0  0
 17 18  1  0  0  0  0
 18 19  1  0  0  0  0
 19 28  1  0  0  0  0
 20 25  1  0  0  0  0
 20 26  1  0  0  0  0
 21 23  1  1  0  0  0
 21 22  1  0  0  0  0
 21 20  1  0  0  0  0
 22 27  1  0  0  0  0
 22 24  2  0  0  0  0
 28 29  1  0  0  0  0
 28 30  2  0  0  0  0
M  END
