3725
 OpenBabel05271511392D

 37 36  0  0  1  0  0  0  0  0999 V2000
  494.0800 1562.2500    0.0000 C   0  0  0  0  0  0  0  0  0  0  0  0
  520.0600 1547.2500    0.0000 C   0  0  1  0  0  0  0  0  0  0  0  0
  546.0400 1562.2500    0.0000 C   0  0  0  0  0  0  0  0  0  0  0  0
  520.0600 1517.2500    0.0000 N   0  0  0  0  0  0  0  0  0  0  0  0
  546.0400 1592.2500    0.0000 O   0  0  0  0  0  0  0  0  0  0  0  0
  598.0000 1592.2500    0.0000 C   0  0  2  0  0  0  0  0  0  0  0  0
  598.0000 1562.2500    0.0000 C   0  0  3  0  0  0  0  0  0  0  0  0
  623.9800 1547.2500    0.0000 C   0  0  0  0  0  0  0  0  0  0  0  0
  572.0200 1547.2500    0.0000 N   0  0  0  0  0  0  0  0  0  0  0  0
  623.9800 1517.2500    0.0000 O   0  0  0  0  0  0  0  0  0  0  0  0
  623.9800 1607.2500    0.0000 O   0  0  0  0  0  0  0  0  0  0  0  0
  572.0200 1607.2500    0.0000 C   0  0  0  0  0  0  0  0  0  0  0  0
  675.9500 1517.2500    0.0000 C   0  0  0  0  0  0  0  0  0  0  0  0
  675.9500 1547.2500    0.0000 C   0  0  1  0  0  0  0  0  0  0  0  0
  701.9300 1562.2500    0.0000 C   0  0  0  0  0  0  0  0  0  0  0  0
  649.9600 1562.2500    0.0000 N   0  0  0  0  0  0  0  0  0  0  0  0
  701.9300 1592.2500    0.0000 O   0  0  0  0  0  0  0  0  0  0  0  0
  649.9600 1502.2500    0.0000 C   0  0  0  0  0  0  0  0  0  0  0  0
  649.9600 1472.2500    0.0000 C   0  0  0  0  0  0  0  0  0  0  0  0
  623.9800 1457.2500    0.0000 C   0  0  0  0  0  0  0  0  0  0  0  0
  623.9800 1427.2500    0.0000 N   0  0  0  0  0  0  0  0  0  0  0  0
  753.8900 1592.2500    0.0000 C   0  0  0  0  0  0  0  0  0  0  0  0
  753.8900 1562.2500    0.0000 C   0  0  1  0  0  0  0  0  0  0  0  0
  779.8700 1547.2500    0.0000 C   0  0  0  0  0  0  0  0  0  0  0  0
  727.9100 1547.2500    0.0000 N   0  0  0  0  0  0  0  0  0  0  0  0
  779.8700 1517.2500    0.0000 O   0  0  0  0  0  0  0  0  0  0  0  0
  779.8700 1607.2500    0.0000 C   0  0  0  0  0  0  0  0  0  0  0  0
  727.9100 1607.2500    0.0000 C   0  0  0  0  0  0  0  0  0  0  0  0
  831.8300 1517.2500    0.0000 C   0  0  0  0  0  0  0  0  0  0  0  0
  831.8300 1547.2500    0.0000 C   0  0  1  0  0  0  0  0  0  0  0  0
  857.8100 1562.2500    0.0000 C   0  0  0  0  0  0  0  0  0  0  0  0
  805.8500 1562.2500    0.0000 N   0  0  0  0  0  0  0  0  0  0  0  0
  857.8100 1592.2500    0.0000 O   0  0  0  0  0  0  0  0  0  0  0  0
  883.7900 1547.2500    0.0000 N   0  0  0  0  0  0  0  0  0  0  0  0
  494.0800 1502.2500    0.0000 C   0  0  0  0  0  0  0  0  0  0  0  0
  494.0800 1472.2500    0.0000 O   0  0  0  0  0  0  0  0  0  0  0  0
  468.1000 1517.2500    0.0000 C   0  0  0  0  0  0  0  0  0  0  0  0
  1  2  1  0  0  0  0
  2  4  1  1  0  0  0
  2  3  1  0  0  0  0
  3  9  1  0  0  0  0
  3  5  2  0  0  0  0
  4 35  1  0  0  0  0
  6 12  1  1  0  0  0
  6 11  1  0  0  0  0
  6  7  1  0  0  0  0
  7  8  1  0  0  0  0
  7  9  1  0  0  0  0
  8 16  1  0  0  0  0
  8 10  2  0  0  0  0
 13 18  1  0  0  0  0
 14 16  1  6  0  0  0
 14 15  1  0  0  0  0
 14 13  1  0  0  0  0
 15 25  1  0  0  0  0
 15 17  2  0  0  0  0
 18 19  1  0  0  0  0
 19 20  1  0  0  0  0
 20 21  1  0  0  0  0
 22 27  1  0  0  0  0
 22 28  1  0  0  0  0
 23 25  1  1  0  0  0
 23 24  1  0  0  0  0
 23 22  1  0  0  0  0
 24 32  1  0  0  0  0
 24 26  2  0  0  0  0
 30 32  1  6  0  0  0
 30 31  1  0  0  0  0
 30 29  1  0  0  0  0
 31 34  1  0  0  0  0
 31 33  2  0  0  0  0
 35 36  2  0  0  0  0
 35 37  1  0  0  0  0
M  END
