1480
 OpenBabel05271511392D

 40 39  0  0  1  0  0  0  0  0999 V2000
  954.0800 1558.2500    0.0000 C   0  0  0  0  0  0  0  0  0  0  0  0
  980.0600 1543.2500    0.0000 C   0  0  1  0  0  0  0  0  0  0  0  0
 1006.0400 1558.2500    0.0000 C   0  0  0  0  0  0  0  0  0  0  0  0
  980.0600 1513.2500    0.0000 N   0  0  0  0  0  0  0  0  0  0  0  0
 1006.0400 1588.2500    0.0000 O   0  0  0  0  0  0  0  0  0  0  0  0
 1058.0000 1588.2500    0.0000 C   0  0  2  0  0  0  0  0  0  0  0  0
 1058.0000 1558.2500    0.0000 C   0  0  3  0  0  0  0  0  0  0  0  0
 1083.9800 1543.2500    0.0000 C   0  0  0  0  0  0  0  0  0  0  0  0
 1032.0200 1543.2500    0.0000 N   0  0  0  0  0  0  0  0  0  0  0  0
 1083.9800 1513.2500    0.0000 O   0  0  0  0  0  0  0  0  0  0  0  0
 1079.2100 1609.4600    0.0000 O   0  0  0  0  0  0  0  0  0  0  0  0
 1032.0200 1603.2500    0.0000 C   0  0  0  0  0  0  0  0  0  0  0  0
 1135.9500 1513.2500    0.0000 C   0  0  0  0  0  0  0  0  0  0  0  0
 1135.9500 1543.2500    0.0000 C   0  0  1  0  0  0  0  0  0  0  0  0
 1161.9300 1558.2500    0.0000 C   0  0  0  0  0  0  0  0  0  0  0  0
 1109.9600 1558.2500    0.0000 N   0  0  0  0  0  0  0  0  0  0  0  0
 1161.9300 1588.2500    0.0000 O   0  0  0  0  0  0  0  0  0  0  0  0
 1109.9600 1498.2500    0.0000 C   0  0  0  0  0  0  0  0  0  0  0  0
 1109.9600 1468.2500    0.0000 C   0  0  0  0  0  0  0  0  0  0  0  0
 1083.9800 1453.2500    0.0000 C   0  0  0  0  0  0  0  0  0  0  0  0
 1083.9800 1423.2500    0.0000 N   0  0  0  0  0  0  0  0  0  0  0  0
 1213.8900 1588.2500    0.0000 C   0  0  0  0  0  0  0  0  0  0  0  0
 1213.8900 1558.2500    0.0000 C   0  0  1  0  0  0  0  0  0  0  0  0
 1239.8700 1543.2500    0.0000 C   0  0  0  0  0  0  0  0  0  0  0  0
 1187.9100 1543.2500    0.0000 N   0  0  0  0  0  0  0  0  0  0  0  0
 1239.8700 1513.2500    0.0000 O   0  0  0  0  0  0  0  0  0  0  0  0
 1239.8700 1603.2500    0.0000 C   0  0  0  0  0  0  0  0  0  0  0  0
 1187.9100 1603.2500    0.0000 C   0  0  0  0  0  0  0  0  0  0  0  0
 1291.8300 1513.2500    0.0000 C   0  0  0  0  0  0  0  0  0  0  0  0
 1291.8300 1543.2500    0.0000 C   0  0  1  0  0  0  0  0  0  0  0  0
 1317.8100 1558.2500    0.0000 C   0  0  0  0  0  0  0  0  0  0  0  0
 1265.8500 1558.2500    0.0000 N   0  0  0  0  0  0  0  0  0  0  0  0
 1317.8100 1588.2500    0.0000 O   0  0  0  0  0  0  0  0  0  0  0  0
 1343.7900 1543.2500    0.0000 N   0  0  0  0  0  0  0  0  0  0  0  0
  954.0800 1498.2500    0.0000 C   0  0  0  0  0  0  0  0  0  0  0  0
  954.0800 1468.2500    0.0000 O   0  0  0  0  0  0  0  0  0  0  0  0
  928.1000 1513.2500    0.0000 C   0  0  0  0  0  0  0  0  0  0  0  0
 1055.0100 1415.4900    0.0000 C   0  0  0  0  0  0  0  0  0  0  0  0
 1047.2400 1386.5100    0.0000 C   0  0  0  0  0  0  0  0  0  0  0  0
 1033.7900 1436.7000    0.0000 O   0  0  0  0  0  0  0  0  0  0  0  0
  1  2  1  0  0  0  0
  2  4  1  1  0  0  0
  2  3  1  0  0  0  0
  3  9  1  0  0  0  0
  3  5  2  0  0  0  0
  4 35  1  0  0  0  0
  6 12  1  1  0  0  0
  6 11  1  0  0  0  0
  6  7  1  0  0  0  0
  7  8  1  0  0  0  0
  7  9  1  0  0  0  0
  8 16  1  0  0  0  0
  8 10  2  0  0  0  0
 13 18  1  0  0  0  0
 14 16  1  6  0  0  0
 14 15  1  0  0  0  0
 14 13  1  0  0  0  0
 15 25  1  0  0  0  0
 15 17  2  0  0  0  0
 18 19  1  0  0  0  0
 19 20  1  0  0  0  0
 20 21  1  0  0  0  0
 21 38  1  0  0  0  0
 22 27  1  0  0  0  0
 22 28  1  0  0  0  0
 23 25  1  1  0  0  0
 23 24  1  0  0  0  0
 23 22  1  0  0  0  0
 24 32  1  0  0  0  0
 24 26  2  0  0  0  0
 30 32  1  6  0  0  0
 30 31  1  0  0  0  0
 30 29  1  0  0  0  0
 31 34  1  0  0  0  0
 31 33  2  0  0  0  0
 35 36  2  0  0  0  0
 35 37  1  0  0  0  0
 38 39  1  0  0  0  0
 38 40  2  0  0  0  0
M  END
