1060
 OpenBabel05271511392D

 47 46  0  0  1  0  0  0  0  0999 V2000
 1077.5200 1564.2500    0.0000 C   0  0  0  0  0  0  0  0  0  0  0  0
 1103.5000 1549.2500    0.0000 C   0  0  1  0  0  0  0  0  0  0  0  0
 1129.4800 1564.2500    0.0000 C   0  0  0  0  0  0  0  0  0  0  0  0
 1103.5000 1519.2500    0.0000 N   0  0  0  0  0  0  0  0  0  0  0  0
 1129.4800 1594.2500    0.0000 O   0  0  0  0  0  0  0  0  0  0  0  0
 1181.4400 1594.2500    0.0000 C   0  0  2  0  0  0  0  0  0  0  0  0
 1181.4400 1564.2500    0.0000 C   0  0  3  0  0  0  0  0  0  0  0  0
 1207.4200 1549.2500    0.0000 C   0  0  0  0  0  0  0  0  0  0  0  0
 1155.4600 1549.2500    0.0000 N   0  0  0  0  0  0  0  0  0  0  0  0
 1207.4200 1519.2500    0.0000 O   0  0  0  0  0  0  0  0  0  0  0  0
 1207.4200 1609.2500    0.0000 O   0  0  0  0  0  0  0  0  0  0  0  0
 1155.4600 1609.2500    0.0000 C   0  0  0  0  0  0  0  0  0  0  0  0
 1259.3900 1519.2500    0.0000 C   0  0  0  0  0  0  0  0  0  0  0  0
 1259.3900 1549.2500    0.0000 C   0  0  1  0  0  0  0  0  0  0  0  0
 1285.3700 1564.2500    0.0000 C   0  0  0  0  0  0  0  0  0  0  0  0
 1233.4000 1564.2500    0.0000 N   0  0  0  0  0  0  0  0  0  0  0  0
 1285.3700 1594.2500    0.0000 O   0  0  0  0  0  0  0  0  0  0  0  0
 1233.4000 1504.2500    0.0000 C   0  0  0  0  0  0  0  0  0  0  0  0
 1233.4000 1474.2500    0.0000 C   0  0  0  0  0  0  0  0  0  0  0  0
 1207.4200 1459.2500    0.0000 C   0  0  0  0  0  0  0  0  0  0  0  0
 1207.4200 1429.2500    0.0000 N   0  0  0  0  0  0  0  0  0  0  0  0
 1337.3300 1594.2500    0.0000 C   0  0  0  0  0  0  0  0  0  0  0  0
 1337.3300 1564.2500    0.0000 C   0  0  1  0  0  0  0  0  0  0  0  0
 1363.3100 1549.2500    0.0000 C   0  0  0  0  0  0  0  0  0  0  0  0
 1311.3500 1549.2500    0.0000 N   0  0  0  0  0  0  0  0  0  0  0  0
 1363.3100 1519.2500    0.0000 O   0  0  0  0  0  0  0  0  0  0  0  0
 1363.3100 1609.2500    0.0000 C   0  0  0  0  0  0  0  0  0  0  0  0
 1311.3500 1609.2500    0.0000 C   0  0  0  0  0  0  0  0  0  0  0  0
 1415.2700 1519.2500    0.0000 C   0  0  0  0  0  0  0  0  0  0  0  0
 1415.2700 1549.2500    0.0000 C   0  0  1  0  0  0  0  0  0  0  0  0
 1441.2500 1564.2500    0.0000 C   0  0  0  0  0  0  0  0  0  0  0  0
 1389.2900 1564.2500    0.0000 N   0  0  0  0  0  0  0  0  0  0  0  0
 1441.2500 1594.2500    0.0000 O   0  0  0  0  0  0  0  0  0  0  0  0
 1467.2300 1549.2500    0.0000 N   0  0  0  0  0  0  0  0  0  0  0  0
 1077.5200 1504.2500    0.0000 C   0  0  0  0  0  0  0  0  0  0  0  0
 1077.5200 1474.2500    0.0000 O   0  0  0  0  0  0  0  0  0  0  0  0
 1051.5400 1519.2500    0.0000 C   0  0  0  0  0  0  0  0  0  0  0  0
 1181.4400 1414.2500    0.0000 C   0  0  1  0  0  0  0  0  0  0  0  0
 1181.4400 1384.2500    0.0000 S   0  0  0  0  0  0  0  0  0  0  0  0
 1155.4600 1369.2500    0.0000 C   0  0  0  0  0  0  0  0  0  0  0  0
 1155.4600 1339.2500    0.0000 C   0  0  0  0  0  0  0  0  0  0  0  0
 1129.4800 1324.2500    0.0000 N   0  0  0  0  0  0  0  0  0  0  0  0
 1129.4800 1294.2500    0.0000 C   0  0  0  0  0  0  0  0  0  0  0  0
 1103.5000 1279.2500    0.0000 C   0  0  0  0  0  0  0  0  0  0  0  0
 1160.2300 1435.4700    0.0000 O   0  5  0  0  0  0  0  0  0  0  0  0
 1152.4700 1422.0200    0.0000 C   0  0  0  0  0  0  0  0  0  0  0  0
 1155.4600 1279.2500    0.0000 O   0  0  0  0  0  0  0  0  0  0  0  0
  1  2  1  0  0  0  0
  2  4  1  1  0  0  0
  2  3  1  0  0  0  0
  3  9  1  0  0  0  0
  3  5  2  0  0  0  0
  4 35  1  0  0  0  0
  6 12  1  1  0  0  0
  6 11  1  0  0  0  0
  6  7  1  0  0  0  0
  7  8  1  0  0  0  0
  7  9  1  0  0  0  0
  8 16  1  0  0  0  0
  8 10  2  0  0  0  0
 13 18  1  0  0  0  0
 14 16  1  6  0  0  0
 14 15  1  0  0  0  0
 14 13  1  0  0  0  0
 15 25  1  0  0  0  0
 15 17  2  0  0  0  0
 18 19  1  0  0  0  0
 19 20  1  0  0  0  0
 20 21  1  0  0  0  0
 22 27  1  0  0  0  0
 22 28  1  0  0  0  0
 23 25  1  1  0  0  0
 23 24  1  0  0  0  0
 23 22  1  0  0  0  0
 24 32  1  0  0  0  0
 24 26  2  0  0  0  0
 30 32  1  6  0  0  0
 30 31  1  0  0  0  0
 30 29  1  0  0  0  0
 31 34  1  0  0  0  0
 31 33  2  0  0  0  0
 35 36  2  0  0  0  0
 35 37  1  0  0  0  0
 38 21  1  6  0  0  0
 38 39  1  0  0  0  0
 38 45  1  0  0  0  0
 38 46  1  0  0  0  0
 39 40  1  0  0  0  0
 40 41  1  0  0  0  0
 41 42  1  0  0  0  0
 42 43  1  0  0  0  0
 43 44  1  0  0  0  0
 43 47  2  0  0  0  0
M  CHG  1  45  -1
M  END
