24
 OpenBabel05271511392D

 39 38  0  0  1  0  0  0  0  0999 V2000
   25.5400  742.9000    0.0000 C   0  0  0  0  0  0  0  0  0  0  0  0
   51.5200  757.9000    0.0000 C   0  0  1  0  0  0  0  0  0  0  0  0
   77.5000  742.9000    0.0000 C   0  0  0  0  0  0  0  0  0  0  0  0
   51.5200  787.9000    0.0000 N   0  3  0  0  0  0  0  0  0  0  0  0
   77.5000  712.9000    0.0000 O   0  0  0  0  0  0  0  0  0  0  0  0
  129.4600  712.9000    0.0000 C   0  0  0  0  0  0  0  0  0  0  0  0
  129.4600  742.9000    0.0000 C   0  0  1  0  0  0  0  0  0  0  0  0
  155.4400  757.9000    0.0000 C   0  0  0  0  0  0  0  0  0  0  0  0
  103.4800  757.9000    0.0000 N   0  0  0  0  0  0  0  0  0  0  0  0
  155.4400  787.9000    0.0000 O   0  0  0  0  0  0  0  0  0  0  0  0
   77.5000  652.9000    0.0000 N   0  0  0  0  0  0  0  0  0  0  0  0
   77.5000  622.9000    0.0000 C   0  0  0  0  0  0  0  0  0  0  0  0
  103.4800  607.9000    0.0000 N   0  3  0  0  0  0  0  0  0  0  0  0
   51.5200  607.9000    0.0000 N   0  0  0  0  0  0  0  0  0  0  0  0
  103.4800  697.9000    0.0000 C   0  0  0  0  0  0  0  0  0  0  0  0
  103.4800  667.9000    0.0000 C   0  0  0  0  0  0  0  0  0  0  0  0
  207.4000  787.9000    0.0000 C   0  0  0  0  0  0  0  0  0  0  0  0
  207.4000  757.9000    0.0000 C   0  0  1  0  0  0  0  0  0  0  0  0
  233.3800  742.9000    0.0000 C   0  0  0  0  0  0  0  0  0  0  0  0
  181.4200  742.9000    0.0000 N   0  0  0  0  0  0  0  0  0  0  0  0
  233.3800  712.9000    0.0000 O   0  0  0  0  0  0  0  0  0  0  0  0
  181.4200  802.9000    0.0000 C   0  0  0  0  0  0  0  0  0  0  0  0
  181.4200  832.9000    0.0000 C   0  0  0  0  0  0  0  0  0  0  0  0
  155.4400  847.9000    0.0000 C   0  0  0  0  0  0  0  0  0  0  0  0
  155.4400  877.9000    0.0000 N   0  0  0  0  0  0  0  0  0  0  0  0
  285.3400  712.9000    0.0000 C   0  0  0  0  0  0  0  0  0  0  0  0
  285.3400  742.9000    0.0000 C   0  0  1  0  0  0  0  0  0  0  0  0
  311.3200  757.9000    0.0000 C   0  0  0  0  0  0  0  0  0  0  0  0
  259.3600  757.9000    0.0000 N   0  0  0  0  0  0  0  0  0  0  0  0
  311.3200  787.9000    0.0000 O   0  0  0  0  0  0  0  0  0  0  0  0
  311.3200  697.9000    0.0000 O   0  0  0  0  0  0  0  0  0  0  0  0
  363.2900  787.9000    0.0000 C   0  0  2  0  0  0  0  0  0  0  0  0
  363.2900  757.9000    0.0000 C   0  0  3  0  0  0  0  0  0  0  0  0
  389.2700  742.9000    0.0000 C   0  0  0  0  0  0  0  0  0  0  0  0
  337.3000  742.9000    0.0000 N   0  0  0  0  0  0  0  0  0  0  0  0
  389.2700  712.9000    0.0000 O   0  0  0  0  0  0  0  0  0  0  0  0
  337.3000  802.9000    0.0000 O   0  0  0  0  0  0  0  0  0  0  0  0
  389.2700  802.9000    0.0000 C   0  0  0  0  0  0  0  0  0  0  0  0
  415.2500  757.9000    0.0000 O   0  5  0  0  0  0  0  0  0  0  0  0
  1  2  1  0  0  0  0
  2  4  1  6  0  0  0
  2  3  1  0  0  0  0
  3  9  1  0  0  0  0
  3  5  2  0  0  0  0
  6 15  1  0  0  0  0
  7  8  1  6  0  0  0
  7  9  1  0  0  0  0
  7  6  1  0  0  0  0
  8 20  1  0  0  0  0
  8 10  2  0  0  0  0
 11 16  1  0  0  0  0
 11 12  1  0  0  0  0
 12 14  1  0  0  0  0
 12 13  2  0  0  0  0
 15 16  1  0  0  0  0
 17 22  1  0  0  0  0
 18 20  1  1  0  0  0
 18 19  1  0  0  0  0
 18 17  1  0  0  0  0
 19 29  1  0  0  0  0
 19 21  2  0  0  0  0
 22 23  1  0  0  0  0
 23 24  1  0  0  0  0
 24 25  1  0  0  0  0
 26 31  1  0  0  0  0
 27 29  1  6  0  0  0
 27 28  1  0  0  0  0
 27 26  1  0  0  0  0
 28 35  1  0  0  0  0
 28 30  2  0  0  0  0
 32 38  1  6  0  0  0
 32 37  1  0  0  0  0
 32 33  1  0  0  0  0
 33 34  1  0  0  0  0
 33 35  1  0  0  0  0
 34 39  1  0  0  0  0
 34 36  2  0  0  0  0
M  CHG  3   4   1  13   1  39  -1
M  END
