5187
 OpenBabel05271511392D

 42 41  0  0  1  0  0  0  0  0999 V2000
  494.0800  778.9000    0.0000 C   0  0  0  0  0  0  0  0  0  0  0  0
  520.0600  793.9000    0.0000 C   0  0  1  0  0  0  0  0  0  0  0  0
  546.0400  778.9000    0.0000 C   0  0  0  0  0  0  0  0  0  0  0  0
  520.0600  823.9000    0.0000 N   0  0  0  0  0  0  0  0  0  0  0  0
  546.0400  748.9000    0.0000 O   0  0  0  0  0  0  0  0  0  0  0  0
  598.0000  748.9000    0.0000 C   0  0  0  0  0  0  0  0  0  0  0  0
  598.0000  778.9000    0.0000 C   0  0  1  0  0  0  0  0  0  0  0  0
  623.9800  793.9000    0.0000 C   0  0  0  0  0  0  0  0  0  0  0  0
  572.0200  793.9000    0.0000 N   0  0  0  0  0  0  0  0  0  0  0  0
  623.9800  823.9000    0.0000 O   0  0  0  0  0  0  0  0  0  0  0  0
  546.0400  688.9000    0.0000 N   0  0  0  0  0  0  0  0  0  0  0  0
  546.0400  658.9000    0.0000 C   0  0  0  0  0  0  0  0  0  0  0  0
  572.0200  643.9000    0.0000 N   0  3  0  0  0  0  0  0  0  0  0  0
  520.0600  643.9000    0.0000 N   0  0  0  0  0  0  0  0  0  0  0  0
  572.0200  733.9000    0.0000 C   0  0  0  0  0  0  0  0  0  0  0  0
  572.0200  703.9000    0.0000 C   0  0  0  0  0  0  0  0  0  0  0  0
  675.9500  823.9000    0.0000 C   0  0  0  0  0  0  0  0  0  0  0  0
  675.9500  793.9000    0.0000 C   0  0  1  0  0  0  0  0  0  0  0  0
  701.9300  778.9000    0.0000 C   0  0  0  0  0  0  0  0  0  0  0  0
  649.9700  778.9000    0.0000 N   0  0  0  0  0  0  0  0  0  0  0  0
  701.9300  748.9000    0.0000 O   0  0  0  0  0  0  0  0  0  0  0  0
  649.9700  838.9000    0.0000 C   0  0  0  0  0  0  0  0  0  0  0  0
  649.9700  868.9000    0.0000 C   0  0  0  0  0  0  0  0  0  0  0  0
  623.9800  883.9000    0.0000 C   0  0  0  0  0  0  0  0  0  0  0  0
  623.9800  913.9000    0.0000 N   0  0  0  0  0  0  0  0  0  0  0  0
  753.8900  748.9000    0.0000 C   0  0  0  0  0  0  0  0  0  0  0  0
  753.8900  778.9000    0.0000 C   0  0  1  0  0  0  0  0  0  0  0  0
  779.8700  793.9000    0.0000 C   0  0  0  0  0  0  0  0  0  0  0  0
  727.9100  793.9000    0.0000 N   0  0  0  0  0  0  0  0  0  0  0  0
  779.8700  823.9000    0.0000 O   0  0  0  0  0  0  0  0  0  0  0  0
  779.8700  733.9000    0.0000 O   0  0  0  0  0  0  0  0  0  0  0  0
  831.8300  823.9000    0.0000 C   0  0  2  0  0  0  0  0  0  0  0  0
  831.8300  793.9000    0.0000 C   0  0  3  0  0  0  0  0  0  0  0  0
  857.8100  778.9000    0.0000 C   0  0  0  0  0  0  0  0  0  0  0  0
  805.8500  778.9000    0.0000 N   0  0  0  0  0  0  0  0  0  0  0  0
  857.8100  748.9000    0.0000 O   0  0  0  0  0  0  0  0  0  0  0  0
  805.8500  838.9000    0.0000 O   0  0  0  0  0  0  0  0  0  0  0  0
  857.8100  838.9000    0.0000 C   0  0  0  0  0  0  0  0  0  0  0  0
  883.7900  793.9000    0.0000 N   0  0  0  0  0  0  0  0  0  0  0  0
  494.0800  838.9000    0.0000 C   0  0  0  0  0  0  0  0  0  0  0  0
  468.1000  823.9000    0.0000 C   0  0  0  0  0  0  0  0  0  0  0  0
  494.0800  868.9000    0.0000 O   0  0  0  0  0  0  0  0  0  0  0  0
  1  2  1  0  0  0  0
  2  4  1  6  0  0  0
  2  3  1  0  0  0  0
  3  9  1  0  0  0  0
  3  5  2  0  0  0  0
  4 40  1  0  0  0  0
  6 15  1  0  0  0  0
  7  8  1  6  0  0  0
  7  9  1  0  0  0  0
  7  6  1  0  0  0  0
  8 20  1  0  0  0  0
  8 10  2  0  0  0  0
 11 16  1  0  0  0  0
 11 12  1  0  0  0  0
 12 14  1  0  0  0  0
 12 13  2  0  0  0  0
 15 16  1  0  0  0  0
 17 22  1  0  0  0  0
 18 20  1  1  0  0  0
 18 19  1  0  0  0  0
 18 17  1  0  0  0  0
 19 29  1  0  0  0  0
 19 21  2  0  0  0  0
 22 23  1  0  0  0  0
 23 24  1  0  0  0  0
 24 25  1  0  0  0  0
 26 31  1  0  0  0  0
 27 29  1  6  0  0  0
 27 28  1  0  0  0  0
 27 26  1  0  0  0  0
 28 35  1  0  0  0  0
 28 30  2  0  0  0  0
 32 38  1  6  0  0  0
 32 37  1  0  0  0  0
 32 33  1  0  0  0  0
 33 34  1  0  0  0  0
 33 35  1  0  0  0  0
 34 39  1  0  0  0  0
 34 36  2  0  0  0  0
 40 41  1  0  0  0  0
 40 42  2  0  0  0  0
M  CHG  1  13   1
M  END
