3204
 OpenBabel05271511392D

 30 29  0  0  1  0  0  0  0  0999 V2000
 2010.0100  789.9000    0.0000 C   0  0  0  0  0  0  0  0  0  0  0  0
 2035.9900  774.9000    0.0000 C   0  0  0  0  0  0  0  0  0  0  0  0
 2035.9900  744.9000    0.0000 O   0  0  0  0  0  0  0  0  0  0  0  0
 2087.9500  744.9000    0.0000 C   0  0  0  0  0  0  0  0  0  0  0  0
 2087.9500  774.9000    0.0000 C   0  0  1  0  0  0  0  0  0  0  0  0
 2113.9300  789.9000    0.0000 C   0  0  0  0  0  0  0  0  0  0  0  0
 2061.9700  789.9000    0.0000 N   0  0  0  0  0  0  0  0  0  0  0  0
 2113.9300  819.9000    0.0000 O   0  0  0  0  0  0  0  0  0  0  0  0
 2035.9900  684.9000    0.0000 N   0  0  0  0  0  0  0  0  0  0  0  0
 2035.9900  654.9000    0.0000 C   0  0  0  0  0  0  0  0  0  0  0  0
 2061.9700  639.9000    0.0000 N   0  3  0  0  0  0  0  0  0  0  0  0
 2010.0100  639.9000    0.0000 N   0  0  0  0  0  0  0  0  0  0  0  0
 2061.9700  729.9000    0.0000 C   0  0  0  0  0  0  0  0  0  0  0  0
 2061.9700  699.9000    0.0000 C   0  0  0  0  0  0  0  0  0  0  0  0
 2165.9000  819.9000    0.0000 C   0  0  0  0  0  0  0  0  0  0  0  0
 2165.9000  789.9000    0.0000 C   0  0  1  0  0  0  0  0  0  0  0  0
 2191.8800  774.9000    0.0000 C   0  0  0  0  0  0  0  0  0  0  0  0
 2139.9200  774.9000    0.0000 N   0  0  0  0  0  0  0  0  0  0  0  0
 2191.8800  744.9000    0.0000 O   0  0  0  0  0  0  0  0  0  0  0  0
 2139.9200  834.9000    0.0000 C   0  0  0  0  0  0  0  0  0  0  0  0
 2139.9200  864.9000    0.0000 C   0  0  0  0  0  0  0  0  0  0  0  0
 2113.9300  879.9000    0.0000 C   0  0  0  0  0  0  0  0  0  0  0  0
 2113.9300  909.9000    0.0000 N   0  0  0  0  0  0  0  0  0  0  0  0
 2243.8400  744.9000    0.0000 C   0  0  0  0  0  0  0  0  0  0  0  0
 2243.8400  774.9000    0.0000 C   0  0  1  0  0  0  0  0  0  0  0  0
 2269.8200  789.9000    0.0000 C   0  0  0  0  0  0  0  0  0  0  0  0
 2217.8600  789.9000    0.0000 N   0  0  0  0  0  0  0  0  0  0  0  0
 2269.8200  819.9000    0.0000 O   0  0  0  0  0  0  0  0  0  0  0  0
 2269.8200  729.9000    0.0000 O   0  0  0  0  0  0  0  0  0  0  0  0
 2295.8000  774.9000    0.0000 N   0  0  0  0  0  0  0  0  0  0  0  0
  1  2  1  0  0  0  0
  2  7  1  0  0  0  0
  2  3  2  0  0  0  0
  4 13  1  0  0  0  0
  5  6  1  6  0  0  0
  5  7  1  0  0  0  0
  5  4  1  0  0  0  0
  6 18  1  0  0  0  0
  6  8  2  0  0  0  0
  9 14  1  0  0  0  0
  9 10  1  0  0  0  0
 10 12  1  0  0  0  0
 10 11  2  0  0  0  0
 13 14  1  0  0  0  0
 15 20  1  0  0  0  0
 16 18  1  1  0  0  0
 16 17  1  0  0  0  0
 16 15  1  0  0  0  0
 17 27  1  0  0  0  0
 17 19  2  0  0  0  0
 20 21  1  0  0  0  0
 21 22  1  0  0  0  0
 22 23  1  0  0  0  0
 24 29  1  0  0  0  0
 25 27  1  6  0  0  0
 25 26  1  0  0  0  0
 25 24  1  0  0  0  0
 26 30  1  0  0  0  0
 26 28  2  0  0  0  0
M  CHG  1  11   1
M  END
