3210
 OpenBabel05271511392D

 53 52  0  0  1  0  0  0  0  0999 V2000
 2296.0800 1319.2400    0.0000 C   0  0  1  0  0  0  0  0  0  0  0  0
 2322.0600 1304.2400    0.0000 C   0  0  1  0  0  0  0  0  0  0  0  0
 2348.0400 1319.2400    0.0000 C   0  0  0  0  0  0  0  0  0  0  0  0
 2322.0600 1274.2400    0.0000 N   0  0  0  0  0  0  0  0  0  0  0  0
 2348.0400 1349.2400    0.0000 O   0  0  0  0  0  0  0  0  0  0  0  0
 2270.1000 1304.2400    0.0000 C   0  0  0  0  0  0  0  0  0  0  0  0
 2296.0800 1349.2400    0.0000 O   0  0  0  0  0  0  0  0  0  0  0  0
 2400.0000 1349.2400    0.0000 C   0  0  0  0  0  0  0  0  0  0  0  0
 2400.0000 1319.2400    0.0000 C   0  0  1  0  0  0  0  0  0  0  0  0
 2425.9900 1304.2400    0.0000 C   0  0  0  0  0  0  0  0  0  0  0  0
 2374.0200 1304.2400    0.0000 N   0  0  0  0  0  0  0  0  0  0  0  0
 2425.9900 1274.2400    0.0000 O   0  0  0  0  0  0  0  0  0  0  0  0
 2477.9500 1274.2400    0.0000 C   0  0  0  0  0  0  0  0  0  0  0  0
 2477.9500 1304.2400    0.0000 C   0  0  1  0  0  0  0  0  0  0  0  0
 2503.9300 1319.2400    0.0000 C   0  0  0  0  0  0  0  0  0  0  0  0
 2451.9700 1319.2400    0.0000 N   0  0  0  0  0  0  0  0  0  0  0  0
 2503.9300 1349.2400    0.0000 O   0  0  0  0  0  0  0  0  0  0  0  0
 2425.9900 1214.2400    0.0000 N   0  0  0  0  0  0  0  0  0  0  0  0
 2425.9900 1184.2400    0.0000 C   0  0  0  0  0  0  0  0  0  0  0  0
 2451.9700 1169.2400    0.0000 N   0  3  0  0  0  0  0  0  0  0  0  0
 2400.0000 1169.2400    0.0000 N   0  0  0  0  0  0  0  0  0  0  0  0
 2451.9700 1259.2400    0.0000 C   0  0  0  0  0  0  0  0  0  0  0  0
 2451.9700 1229.2400    0.0000 C   0  0  0  0  0  0  0  0  0  0  0  0
 2555.8900 1349.2400    0.0000 C   0  0  0  0  0  0  0  0  0  0  0  0
 2555.8900 1319.2400    0.0000 C   0  0  1  0  0  0  0  0  0  0  0  0
 2581.8700 1304.2400    0.0000 C   0  0  0  0  0  0  0  0  0  0  0  0
 2529.9100 1304.2400    0.0000 N   0  0  0  0  0  0  0  0  0  0  0  0
 2581.8700 1274.2400    0.0000 O   0  0  0  0  0  0  0  0  0  0  0  0
 2581.8700 1364.2400    0.0000 C   0  0  0  0  0  0  0  0  0  0  0  0
 2581.8700 1394.2400    0.0000 C   0  0  0  0  0  0  0  0  0  0  0  0
 2607.8500 1409.2400    0.0000 C   0  0  0  0  0  0  0  0  0  0  0  0
 2607.8500 1439.2400    0.0000 N   0  0  0  0  0  0  0  0  0  0  0  0
 2633.8300 1274.2400    0.0000 C   0  0  0  0  0  0  0  0  0  0  0  0
 2633.8300 1304.2400    0.0000 C   0  0  1  0  0  0  0  0  0  0  0  0
 2659.8100 1319.2400    0.0000 C   0  0  0  0  0  0  0  0  0  0  0  0
 2607.8500 1319.2400    0.0000 N   0  0  0  0  0  0  0  0  0  0  0  0
 2659.8100 1349.2400    0.0000 O   0  0  0  0  0  0  0  0  0  0  0  0
 2659.8100 1259.2400    0.0000 O   0  0  0  0  0  0  0  0  0  0  0  0
 2711.7700 1349.2400    0.0000 C   0  0  1  0  0  0  0  0  0  0  0  0
 2711.7700 1319.2400    0.0000 C   0  0  1  0  0  0  0  0  0  0  0  0
 2737.7500 1304.2400    0.0000 C   0  0  0  0  0  0  0  0  0  0  0  0
 2685.7900 1304.2400    0.0000 N   0  0  0  0  0  0  0  0  0  0  0  0
 2737.7500 1274.2400    0.0000 O   0  0  0  0  0  0  0  0  0  0  0  0
 2737.7500 1364.2400    0.0000 C   0  0  0  0  0  0  0  0  0  0  0  0
 2685.7900 1364.2400    0.0000 O   0  0  0  0  0  0  0  0  0  0  0  0
 2789.7200 1304.2400    0.0000 C   0  0  0  0  0  0  0  0  0  0  0  0
 2815.7000 1319.2400    0.0000 C   0  0  0  0  0  0  0  0  0  0  0  0
 2763.7400 1319.2400    0.0000 N   0  0  0  0  0  0  0  0  0  0  0  0
 2815.7000 1349.2400    0.0000 O   0  0  0  0  0  0  0  0  0  0  0  0
 2841.6800 1304.2400    0.0000 N   0  0  0  0  0  0  0  0  0  0  0  0
 2296.0800 1229.2400    0.0000 O   0  0  0  0  0  0  0  0  0  0  0  0
 2296.0800 1259.2400    0.0000 C   0  0  0  0  0  0  0  0  0  0  0  0
 2270.1000 1274.2400    0.0000 C   0  0  0  0  0  0  0  0  0  0  0  0
  1  2  1  0  0  0  0
  1  6  1  1  0  0  0
  1  7  1  0  0  0  0
  2  4  1  1  0  0  0
  2  3  1  0  0  0  0
  3  5  2  0  0  0  0
  3 11  1  0  0  0  0
  4 52  1  0  0  0  0
  9  8  1  1  0  0  0
  9 10  1  0  0  0  0
  9 11  1  0  0  0  0
 10 12  2  0  0  0  0
 10 16  1  0  0  0  0
 13 22  1  0  0  0  0
 14 16  1  6  0  0  0
 14 15  1  0  0  0  0
 14 13  1  0  0  0  0
 15 17  2  0  0  0  0
 15 27  1  0  0  0  0
 18 23  1  0  0  0  0
 18 19  1  0  0  0  0
 19 20  2  0  0  0  0
 19 21  1  0  0  0  0
 22 23  1  0  0  0  0
 24 29  1  0  0  0  0
 25 27  1  1  0  0  0
 25 26  1  0  0  0  0
 25 24  1  0  0  0  0
 26 28  2  0  0  0  0
 26 36  1  0  0  0  0
 29 30  1  0  0  0  0
 30 31  1  0  0  0  0
 31 32  1  0  0  0  0
 33 38  1  0  0  0  0
 34 36  1  6  0  0  0
 34 35  1  0  0  0  0
 34 33  1  0  0  0  0
 35 37  2  0  0  0  0
 35 42  1  0  0  0  0
 39 40  1  0  0  0  0
 39 44  1  6  0  0  0
 39 45  1  0  0  0  0
 40 42  1  1  0  0  0
 40 41  1  0  0  0  0
 41 43  2  0  0  0  0
 41 48  1  0  0  0  0
 46 47  1  0  0  0  0
 46 48  1  0  0  0  0
 47 49  2  0  0  0  0
 47 50  1  0  0  0  0
 51 52  2  0  0  0  0
 52 53  1  0  0  0  0
M  CHG  1  20   1
M  END
