3312
 OpenBabel05271511392D

 66 65  0  0  1  0  0  0  0  0999 V2000
 2140.5800 1470.8400    0.0000 C   0  0  0  0  0  0  0  0  0  0  0  0
 2166.5600 1455.8400    0.0000 C   0  0  1  0  0  0  0  0  0  0  0  0
 2192.5400 1470.8400    0.0000 C   0  0  0  0  0  0  0  0  0  0  0  0
 2166.5600 1425.8400    0.0000 N   0  0  0  0  0  0  0  0  0  0  0  0
 2192.5400 1500.8400    0.0000 O   0  0  0  0  0  0  0  0  0  0  0  0
 2114.6000 1455.8400    0.0000 C   0  0  0  0  0  0  0  0  0  0  0  0
 2088.6200 1470.8400    0.0000 C   0  0  0  0  0  0  0  0  0  0  0  0
 2088.6200 1500.8400    0.0000 O   0  0  0  0  0  0  0  0  0  0  0  0
 2062.6400 1455.8400    0.0000 O   0  0  0  0  0  0  0  0  0  0  0  0
 2244.5000 1500.8400    0.0000 C   0  0  1  0  0  0  0  0  0  0  0  0
 2244.5000 1470.8400    0.0000 C   0  0  1  0  0  0  0  0  0  0  0  0
 2270.4900 1455.8400    0.0000 C   0  0  0  0  0  0  0  0  0  0  0  0
 2218.5200 1455.8400    0.0000 N   0  0  0  0  0  0  0  0  0  0  0  0
 2270.4900 1425.8400    0.0000 O   0  0  0  0  0  0  0  0  0  0  0  0
 2218.5200 1515.8400    0.0000 C   0  0  0  0  0  0  0  0  0  0  0  0
 2270.4900 1515.8400    0.0000 O   0  0  0  0  0  0  0  0  0  0  0  0
 2322.4500 1425.8400    0.0000 C   0  0  0  0  0  0  0  0  0  0  0  0
 2322.4500 1455.8400    0.0000 C   0  0  1  0  0  0  0  0  0  0  0  0
 2348.4300 1470.8400    0.0000 C   0  0  0  0  0  0  0  0  0  0  0  0
 2296.4700 1470.8400    0.0000 N   0  0  0  0  0  0  0  0  0  0  0  0
 2348.4300 1500.8400    0.0000 O   0  0  0  0  0  0  0  0  0  0  0  0
 2400.3900 1500.8400    0.0000 C   0  0  0  0  0  0  0  0  0  0  0  0
 2400.3900 1470.8400    0.0000 C   0  0  1  0  0  0  0  0  0  0  0  0
 2426.3700 1455.8400    0.0000 C   0  0  0  0  0  0  0  0  0  0  0  0
 2374.4100 1455.8400    0.0000 N   0  0  0  0  0  0  0  0  0  0  0  0
 2426.3700 1425.8400    0.0000 O   0  0  0  0  0  0  0  0  0  0  0  0
 2348.4300 1560.8400    0.0000 N   0  0  0  0  0  0  0  0  0  0  0  0
 2348.4300 1590.8400    0.0000 C   0  0  0  0  0  0  0  0  0  0  0  0
 2374.4100 1605.8400    0.0000 N   0  3  0  0  0  0  0  0  0  0  0  0
 2322.4500 1605.8400    0.0000 N   0  0  0  0  0  0  0  0  0  0  0  0
 2374.4100 1515.8400    0.0000 C   0  0  0  0  0  0  0  0  0  0  0  0
 2374.4100 1545.8400    0.0000 C   0  0  0  0  0  0  0  0  0  0  0  0
 2478.3300 1425.8400    0.0000 C   0  0  0  0  0  0  0  0  0  0  0  0
 2478.3300 1455.8400    0.0000 C   0  0  1  0  0  0  0  0  0  0  0  0
 2504.3100 1470.8400    0.0000 C   0  0  0  0  0  0  0  0  0  0  0  0
 2452.3500 1470.8400    0.0000 N   0  0  0  0  0  0  0  0  0  0  0  0
 2504.3100 1500.8400    0.0000 O   0  0  0  0  0  0  0  0  0  0  0  0
 2504.3100 1410.8400    0.0000 C   0  0  0  0  0  0  0  0  0  0  0  0
 2504.3100 1380.8400    0.0000 C   0  0  0  0  0  0  0  0  0  0  0  0
 2530.2900 1365.8400    0.0000 C   0  0  0  0  0  0  0  0  0  0  0  0
 2530.2900 1335.8400    0.0000 N   0  0  0  0  0  0  0  0  0  0  0  0
 2556.2700 1500.8400    0.0000 C   0  0  0  0  0  0  0  0  0  0  0  0
 2556.2700 1470.8400    0.0000 C   0  0  1  0  0  0  0  0  0  0  0  0
 2582.2500 1455.8400    0.0000 C   0  0  0  0  0  0  0  0  0  0  0  0
 2530.2900 1455.8400    0.0000 N   0  0  0  0  0  0  0  0  0  0  0  0
 2582.2500 1425.8400    0.0000 O   0  0  0  0  0  0  0  0  0  0  0  0
 2582.2500 1515.8400    0.0000 O   0  0  0  0  0  0  0  0  0  0  0  0
 2634.2200 1425.8400    0.0000 C   0  0  1  0  0  0  0  0  0  0  0  0
 2634.2200 1455.8400    0.0000 C   0  0  1  0  0  0  0  0  0  0  0  0
 2660.2000 1470.8400    0.0000 C   0  0  0  0  0  0  0  0  0  0  0  0
 2608.2400 1470.8400    0.0000 N   0  0  0  0  0  0  0  0  0  0  0  0
 2660.2000 1500.8400    0.0000 O   0  0  0  0  0  0  0  0  0  0  0  0
 2660.2000 1410.8400    0.0000 C   0  0  0  0  0  0  0  0  0  0  0  0
 2608.2400 1410.8400    0.0000 O   0  0  0  0  0  0  0  0  0  0  0  0
 2712.1600 1470.8400    0.0000 C   0  0  0  0  0  0  0  0  0  0  0  0
 2738.1400 1455.8400    0.0000 C   0  0  0  0  0  0  0  0  0  0  0  0
 2686.1800 1455.8400    0.0000 N   0  0  0  0  0  0  0  0  0  0  0  0
 2738.1400 1425.8400    0.0000 O   0  0  0  0  0  0  0  0  0  0  0  0
 2790.1000 1455.8400    0.0000 C   0  0  0  0  0  0  0  0  0  0  0  0
 2816.0800 1470.8400    0.0000 C   0  0  0  0  0  0  0  0  0  0  0  0
 2764.1200 1470.8400    0.0000 N   0  0  0  0  0  0  0  0  0  0  0  0
 2816.0800 1500.8400    0.0000 O   0  0  0  0  0  0  0  0  0  0  0  0
 2842.0600 1455.8400    0.0000 N   0  0  0  0  0  0  0  0  0  0  0  0
 2140.5800 1410.8400    0.0000 C   0  0  0  0  0  0  0  0  0  0  0  0
 2140.5800 1380.8400    0.0000 C   0  0  0  0  0  0  0  0  0  0  0  0
 2114.6000 1425.8400    0.0000 O   0  0  0  0  0  0  0  0  0  0  0  0
  1  2  1  0  0  0  0
  1  6  1  0  0  0  0
  2  4  1  1  0  0  0
  2  3  1  0  0  0  0
  3  5  2  0  0  0  0
  3 13  1  0  0  0  0
  4 64  1  0  0  0  0
  6  7  1  0  0  0  0
  7  8  2  0  0  0  0
  7  9  1  0  0  0  0
 10 11  1  0  0  0  0
 10 15  1  1  0  0  0
 10 16  1  0  0  0  0
 11 13  1  1  0  0  0
 11 12  1  0  0  0  0
 12 14  2  0  0  0  0
 12 20  1  0  0  0  0
 18 17  1  6  0  0  0
 18 19  1  0  0  0  0
 18 20  1  0  0  0  0
 19 21  2  0  0  0  0
 19 25  1  0  0  0  0
 22 31  1  0  0  0  0
 23 25  1  1  0  0  0
 23 24  1  0  0  0  0
 23 22  1  0  0  0  0
 24 26  2  0  0  0  0
 24 36  1  0  0  0  0
 27 32  1  0  0  0  0
 27 28  1  0  0  0  0
 28 29  2  0  0  0  0
 28 30  1  0  0  0  0
 31 32  1  0  0  0  0
 33 38  1  0  0  0  0
 34 36  1  6  0  0  0
 34 35  1  0  0  0  0
 34 33  1  0  0  0  0
 35 37  2  0  0  0  0
 35 45  1  0  0  0  0
 38 39  1  0  0  0  0
 39 40  1  0  0  0  0
 40 41  1  0  0  0  0
 42 47  1  0  0  0  0
 43 45  1  1  0  0  0
 43 44  1  0  0  0  0
 43 42  1  0  0  0  0
 44 46  2  0  0  0  0
 44 51  1  0  0  0  0
 48 49  1  0  0  0  0
 48 53  1  1  0  0  0
 48 54  1  0  0  0  0
 49 51  1  6  0  0  0
 49 50  1  0  0  0  0
 50 52  2  0  0  0  0
 50 57  1  0  0  0  0
 55 56  1  0  0  0  0
 55 57  1  0  0  0  0
 56 58  2  0  0  0  0
 56 61  1  0  0  0  0
 59 60  1  0  0  0  0
 59 61  1  0  0  0  0
 60 62  2  0  0  0  0
 60 63  1  0  0  0  0
 64 65  1  0  0  0  0
 64 66  2  0  0  0  0
M  CHG  1  29   1
M  END
