1206
 OpenBabel05271511392D

 45 44  0  0  1  0  0  0  0  0999 V2000
  954.0800  774.9000    0.0000 C   0  0  0  0  0  0  0  0  0  0  0  0
  980.0600  789.9000    0.0000 C   0  0  1  0  0  0  0  0  0  0  0  0
 1006.0400  774.9000    0.0000 C   0  0  0  0  0  0  0  0  0  0  0  0
  980.0600  819.9000    0.0000 N   0  0  0  0  0  0  0  0  0  0  0  0
 1006.0400  744.9000    0.0000 O   0  0  0  0  0  0  0  0  0  0  0  0
 1058.0000  744.9000    0.0000 C   0  0  0  0  0  0  0  0  0  0  0  0
 1058.0000  774.9000    0.0000 C   0  0  1  0  0  0  0  0  0  0  0  0
 1083.9800  789.9000    0.0000 C   0  0  0  0  0  0  0  0  0  0  0  0
 1032.0200  789.9000    0.0000 N   0  0  0  0  0  0  0  0  0  0  0  0
 1083.9800  819.9000    0.0000 O   0  0  0  0  0  0  0  0  0  0  0  0
 1006.0400  684.9000    0.0000 N   0  0  0  0  0  0  0  0  0  0  0  0
 1006.0400  654.9000    0.0000 C   0  0  0  0  0  0  0  0  0  0  0  0
 1032.0200  639.9000    0.0000 N   0  3  0  0  0  0  0  0  0  0  0  0
  980.0600  639.9000    0.0000 N   0  0  0  0  0  0  0  0  0  0  0  0
 1032.0200  729.9000    0.0000 C   0  0  0  0  0  0  0  0  0  0  0  0
 1032.0200  699.9000    0.0000 C   0  0  0  0  0  0  0  0  0  0  0  0
 1135.9500  819.9000    0.0000 C   0  0  0  0  0  0  0  0  0  0  0  0
 1135.9500  789.9000    0.0000 C   0  0  1  0  0  0  0  0  0  0  0  0
 1161.9300  774.9000    0.0000 C   0  0  0  0  0  0  0  0  0  0  0  0
 1109.9700  774.9000    0.0000 N   0  0  0  0  0  0  0  0  0  0  0  0
 1161.9300  744.9000    0.0000 O   0  0  0  0  0  0  0  0  0  0  0  0
 1109.9700  834.9000    0.0000 C   0  0  0  0  0  0  0  0  0  0  0  0
 1109.9700  864.9000    0.0000 C   0  0  0  0  0  0  0  0  0  0  0  0
 1083.9800  879.9000    0.0000 C   0  0  0  0  0  0  0  0  0  0  0  0
 1083.9800  909.9000    0.0000 N   0  0  0  0  0  0  0  0  0  0  0  0
 1213.8900  744.9000    0.0000 C   0  0  0  0  0  0  0  0  0  0  0  0
 1213.8900  774.9000    0.0000 C   0  0  1  0  0  0  0  0  0  0  0  0
 1239.8700  789.9000    0.0000 C   0  0  0  0  0  0  0  0  0  0  0  0
 1187.9100  789.9000    0.0000 N   0  0  0  0  0  0  0  0  0  0  0  0
 1239.8700  819.9000    0.0000 O   0  0  0  0  0  0  0  0  0  0  0  0
 1239.8700  729.9000    0.0000 O   0  0  0  0  0  0  0  0  0  0  0  0
 1291.8300  819.9000    0.0000 C   0  0  2  0  0  0  0  0  0  0  0  0
 1291.8300  789.9000    0.0000 C   0  0  3  0  0  0  0  0  0  0  0  0
 1317.8100  774.9000    0.0000 C   0  0  0  0  0  0  0  0  0  0  0  0
 1265.8500  774.9000    0.0000 N   0  0  0  0  0  0  0  0  0  0  0  0
 1317.8100  744.9000    0.0000 O   0  0  0  0  0  0  0  0  0  0  0  0
 1265.8500  834.9000    0.0000 O   0  0  0  0  0  0  0  0  0  0  0  0
 1317.8100  834.9000    0.0000 C   0  0  0  0  0  0  0  0  0  0  0  0
 1343.7900  789.9000    0.0000 N   0  0  0  0  0  0  0  0  0  0  0  0
  954.0800  834.9000    0.0000 C   0  0  0  0  0  0  0  0  0  0  0  0
  928.1000  819.9000    0.0000 C   0  0  0  0  0  0  0  0  0  0  0  0
  954.0800  864.9000    0.0000 O   0  0  0  0  0  0  0  0  0  0  0  0
 1058.0000  924.9000    0.0000 C   0  0  0  0  0  0  0  0  0  0  0  0
 1058.0000  954.9000    0.0000 C   0  0  0  0  0  0  0  0  0  0  0  0
 1032.0200  909.9000    0.0000 O   0  0  0  0  0  0  0  0  0  0  0  0
  1  2  1  0  0  0  0
  2  4  1  6  0  0  0
  2  3  1  0  0  0  0
  3  9  1  0  0  0  0
  3  5  2  0  0  0  0
  4 40  1  0  0  0  0
  6 15  1  0  0  0  0
  7  8  1  6  0  0  0
  7  9  1  0  0  0  0
  7  6  1  0  0  0  0
  8 20  1  0  0  0  0
  8 10  2  0  0  0  0
 11 16  1  0  0  0  0
 11 12  1  0  0  0  0
 12 14  1  0  0  0  0
 12 13  2  0  0  0  0
 15 16  1  0  0  0  0
 17 22  1  0  0  0  0
 18 20  1  1  0  0  0
 18 19  1  0  0  0  0
 18 17  1  0  0  0  0
 19 29  1  0  0  0  0
 19 21  2  0  0  0  0
 22 23  1  0  0  0  0
 23 24  1  0  0  0  0
 24 25  1  0  0  0  0
 25 43  1  0  0  0  0
 26 31  1  0  0  0  0
 27 29  1  6  0  0  0
 27 28  1  0  0  0  0
 27 26  1  0  0  0  0
 28 35  1  0  0  0  0
 28 30  2  0  0  0  0
 32 38  1  6  0  0  0
 32 37  1  0  0  0  0
 32 33  1  0  0  0  0
 33 34  1  0  0  0  0
 33 35  1  0  0  0  0
 34 39  1  0  0  0  0
 34 36  2  0  0  0  0
 40 41  1  0  0  0  0
 40 42  2  0  0  0  0
 43 44  1  0  0  0  0
 43 45  2  0  0  0  0
M  CHG  1  13   1
M  END
