1717
 OpenBabel05271511392D

 38 37  0  0  1  0  0  0  0  0999 V2000
 1934.8200  530.9000    0.0000 C   0  0  0  0  0  0  0  0  0  0  0  0
 1960.8000  545.9000    0.0000 C   0  0  1  0  0  0  0  0  0  0  0  0
 1986.7800  530.9000    0.0000 C   0  0  0  0  0  0  0  0  0  0  0  0
 1960.8000  575.9000    0.0000 N   0  0  0  0  0  0  0  0  0  0  0  0
 2038.7400  500.9000    0.0000 C   0  0  0  0  0  0  0  0  0  0  0  0
 2038.7400  530.9000    0.0000 C   0  0  1  0  0  0  0  0  0  0  0  0
 2064.7200  545.9000    0.0000 C   0  0  0  0  0  0  0  0  0  0  0  0
 2012.7600  545.9000    0.0000 C   0  0  0  0  0  0  0  0  0  0  0  0
 1986.7800  440.9000    0.0000 N   0  0  0  0  0  0  0  0  0  0  0  0
 1986.7800  410.9000    0.0000 C   0  0  0  0  0  0  0  0  0  0  0  0
 2012.7600  395.9000    0.0000 N   0  3  0  0  0  0  0  0  0  0  0  0
 1960.8000  395.9000    0.0000 N   0  0  0  0  0  0  0  0  0  0  0  0
 2012.7600  485.9000    0.0000 C   0  0  0  0  0  0  0  0  0  0  0  0
 2012.7600  455.9000    0.0000 C   0  0  0  0  0  0  0  0  0  0  0  0
 2116.6900  575.9000    0.0000 C   0  0  0  0  0  0  0  0  0  0  0  0
 2116.6900  545.9000    0.0000 C   0  0  1  0  0  0  0  0  0  0  0  0
 2142.6700  530.9000    0.0000 C   0  0  0  0  0  0  0  0  0  0  0  0
 2090.7100  530.9000    0.0000 C   0  0  0  0  0  0  0  0  0  0  0  0
 2090.7100  590.9000    0.0000 C   0  0  0  0  0  0  0  0  0  0  0  0
 2090.7100  620.9000    0.0000 C   0  0  0  0  0  0  0  0  0  0  0  0
 2064.7200  635.9000    0.0000 C   0  0  0  0  0  0  0  0  0  0  0  0
 2064.7200  665.9000    0.0000 N   0  3  0  0  0  0  0  0  0  0  0  0
 2194.6300  500.9000    0.0000 C   0  0  0  0  0  0  0  0  0  0  0  0
 2194.6300  530.9000    0.0000 C   0  0  1  0  0  0  0  0  0  0  0  0
 2220.6100  545.9000    0.0000 C   0  0  0  0  0  0  0  0  0  0  0  0
 2168.6500  545.9000    0.0000 C   0  0  0  0  0  0  0  0  0  0  0  0
 2220.6100  485.9000    0.0000 O   0  0  0  0  0  0  0  0  0  0  0  0
 2272.5700  575.9000    0.0000 C   0  0  2  0  0  0  0  0  0  0  0  0
 2272.5700  545.9000    0.0000 C   0  0  3  0  0  0  0  0  0  0  0  0
 2298.5500  530.9000    0.0000 C   0  0  0  0  0  0  0  0  0  0  0  0
 2246.5900  530.9000    0.0000 C   0  0  0  0  0  0  0  0  0  0  0  0
 2298.5500  500.9000    0.0000 O   0  0  0  0  0  0  0  0  0  0  0  0
 2246.5900  590.9000    0.0000 O   0  0  0  0  0  0  0  0  0  0  0  0
 2298.5500  590.9000    0.0000 C   0  0  0  0  0  0  0  0  0  0  0  0
 2324.5300  545.9000    0.0000 N   0  0  0  0  0  0  0  0  0  0  0  0
 1934.8200  590.9000    0.0000 C   0  0  0  0  0  0  0  0  0  0  0  0
 1908.8400  575.9000    0.0000 C   0  0  0  0  0  0  0  0  0  0  0  0
 1934.8200  620.9000    0.0000 O   0  0  0  0  0  0  0  0  0  0  0  0
  1  2  1  0  0  0  0
  2  4  1  6  0  0  0
  2  3  1  0  0  0  0
  3  8  2  0  0  0  0
  4 36  1  0  0  0  0
  5 13  1  0  0  0  0
  6  7  1  6  0  0  0
  6  8  1  0  0  0  0
  6  5  1  0  0  0  0
  7 18  2  0  0  0  0
  9 14  1  0  0  0  0
  9 10  1  0  0  0  0
 10 12  1  0  0  0  0
 10 11  2  0  0  0  0
 13 14  1  0  0  0  0
 15 19  1  0  0  0  0
 16 18  1  1  0  0  0
 16 17  1  0  0  0  0
 16 15  1  0  0  0  0
 17 26  2  0  0  0  0
 19 20  1  0  0  0  0
 20 21  1  0  0  0  0
 21 22  1  0  0  0  0
 23 27  1  0  0  0  0
 24 26  1  6  0  0  0
 24 25  1  0  0  0  0
 24 23  1  0  0  0  0
 25 31  2  0  0  0  0
 28 34  1  6  0  0  0
 28 33  1  0  0  0  0
 28 29  1  0  0  0  0
 29 30  1  0  0  0  0
 29 31  1  0  0  0  0
 30 35  1  0  0  0  0
 30 32  2  0  0  0  0
 36 37  1  0  0  0  0
 36 38  2  0  0  0  0
M  CHG  2  11   1  22   1
M  END
