2426
 OpenBabel05271511392D

 43 46  0  0  1  0  0  0  0  0999 V2000
 2097.6400  873.9000    0.0000 C   0  0  0  0  0  0  0  0  0  0  0  0
 2123.6200  888.9000    0.0000 C   0  0  1  0  0  0  0  0  0  0  0  0
 2149.6000  873.9000    0.0000 C   0  0  0  0  0  0  0  0  0  0  0  0
 2123.6200  918.9000    0.0000 N   0  0  0  0  0  0  0  0  0  0  0  0
 2149.6000  843.9000    0.0000 N   0  0  0  0  0  0  0  0  0  0  0  0
 2201.5600  843.9000    0.0000 C   0  0  0  0  0  0  0  0  0  0  0  0
 2201.5600  873.9000    0.0000 C   0  0  0  0  0  0  0  0  0  0  0  0
 2227.5400  888.9000    0.0000 C   0  0  0  0  0  0  0  0  0  0  0  0
 2175.5800  888.9000    0.0000 N   0  0  0  0  0  0  0  0  0  0  0  0
 2227.5400  918.9000    0.0000 N   0  0  0  0  0  0  0  0  0  0  0  0
 2149.6000  783.9000    0.0000 N   0  0  0  0  0  0  0  0  0  0  0  0
 2149.6000  753.9000    0.0000 C   0  0  0  0  0  0  0  0  0  0  0  0
 2175.5800  738.9000    0.0000 N   0  3  0  0  0  0  0  0  0  0  0  0
 2123.6200  738.9000    0.0000 N   0  0  0  0  0  0  0  0  0  0  0  0
 2175.5800  828.9000    0.0000 C   0  0  0  0  0  0  0  0  0  0  0  0
 2175.5800  798.9000    0.0000 C   0  0  0  0  0  0  0  0  0  0  0  0
 2279.5100  918.9000    0.0000 C   0  0  0  0  0  0  0  0  0  0  0  0
 2279.5100  888.9000    0.0000 C   0  0  0  0  0  0  0  0  0  0  0  0
 2305.4900  873.9000    0.0000 C   0  0  0  0  0  0  0  0  0  0  0  0
 2253.5200  873.9000    0.0000 N   0  0  0  0  0  0  0  0  0  0  0  0
 2305.4900  843.9000    0.0000 N   0  0  0  0  0  0  0  0  0  0  0  0
 2253.5200  933.9000    0.0000 C   0  0  0  0  0  0  0  0  0  0  0  0
 2253.5200  963.9000    0.0000 C   0  0  0  0  0  0  0  0  0  0  0  0
 2227.5400  978.9000    0.0000 C   0  0  0  0  0  0  0  0  0  0  0  0
 2227.5400 1008.9000    0.0000 N   0  3  0  0  0  0  0  0  0  0  0  0
 2357.4500  843.9000    0.0000 C   0  0  0  0  0  0  0  0  0  0  0  0
 2357.4500  873.9000    0.0000 C   0  0  0  0  0  0  0  0  0  0  0  0
 2383.4300  888.9000    0.0000 C   0  0  0  0  0  0  0  0  0  0  0  0
 2331.4700  888.9000    0.0000 N   0  0  0  0  0  0  0  0  0  0  0  0
 2383.4300  918.9000    0.0000 N   0  0  0  0  0  0  0  0  0  0  0  0
 2383.4300  828.9000    0.0000 O   0  0  0  0  0  0  0  0  0  0  0  0
 2435.3900  918.9000    0.0000 C   0  0  0  0  0  0  0  0  0  0  0  0
 2435.3900  888.9000    0.0000 C   0  0  0  0  0  0  0  0  0  0  0  0
 2461.3700  873.9000    0.0000 C   0  0  0  0  0  0  0  0  0  0  0  0
 2409.4100  873.9000    0.0000 N   0  0  0  0  0  0  0  0  0  0  0  0
 2461.3700  843.9000    0.0000 O   0  0  0  0  0  0  0  0  0  0  0  0
 2409.4100  933.9000    0.0000 C   0  0  0  0  0  0  0  0  0  0  0  0
 2461.3700  933.9000    0.0000 O   0  0  0  0  0  0  0  0  0  0  0  0
 2487.3500  888.9000    0.0000 N   0  0  0  0  0  0  0  0  0  0  0  0
 2097.6400  933.9000    0.0000 C   0  0  0  0  0  0  0  0  0  0  0  0
 2071.6600  918.9000    0.0000 C   0  0  0  0  0  0  0  0  0  0  0  0
 2097.6400  963.9000    0.0000 O   0  0  0  0  0  0  0  0  0  0  0  0
 2331.4700  828.9000    0.0000 C   0  0  0  0  0  0  0  0  0  0  0  0
  1  2  1  0  0  0  0
  2  4  1  6  0  0  0
  2  3  1  0  0  0  0
  3  9  1  0  0  0  0
  3  5  2  0  0  0  0
  4 40  1  0  0  0  0
  5 15  1  0  0  0  0
  6 15  2  0  0  0  0
  6  7  1  0  0  0  0
  7  8  1  0  0  0  0
  7  9  2  0  0  0  0
  8 20  1  0  0  0  0
  8 10  2  0  0  0  0
 10 22  1  0  0  0  0
 11 16  1  0  0  0  0
 11 12  1  0  0  0  0
 12 14  1  0  0  0  0
 12 13  2  0  0  0  0
 15 16  1  0  0  0  0
 17 18  1  0  0  0  0
 17 22  2  0  0  0  0
 18 20  2  0  0  0  0
 18 19  1  0  0  0  0
 19 29  1  0  0  0  0
 19 21  2  0  0  0  0
 21 43  1  0  0  0  0
 22 23  1  0  0  0  0
 23 24  1  0  0  0  0
 24 25  1  0  0  0  0
 26 27  1  0  0  0  0
 26 31  1  0  0  0  0
 26 43  2  0  0  0  0
 27 29  2  0  0  0  0
 27 28  1  0  0  0  0
 28 35  1  0  0  0  0
 28 30  2  0  0  0  0
 30 37  1  0  0  0  0
 32 38  1  0  0  0  0
 32 37  2  0  0  0  0
 32 33  1  0  0  0  0
 33 34  1  0  0  0  0
 33 35  2  0  0  0  0
 34 39  1  0  0  0  0
 34 36  2  0  0  0  0
 40 41  1  0  0  0  0
 40 42  2  0  0  0  0
M  CHG  2  13   1  25   1
M  END
