804
 OpenBabel05271511392D

 52 51  0  0  1  0  0  0  0  0999 V2000
 1077.5200  742.9000    0.0000 C   0  0  0  0  0  0  0  0  0  0  0  0
 1103.5000  757.9000    0.0000 C   0  0  1  0  0  0  0  0  0  0  0  0
 1129.4800  742.9000    0.0000 C   0  0  0  0  0  0  0  0  0  0  0  0
 1103.5000  787.9000    0.0000 N   0  0  0  0  0  0  0  0  0  0  0  0
 1129.4800  712.9000    0.0000 O   0  0  0  0  0  0  0  0  0  0  0  0
 1181.4400  712.9000    0.0000 C   0  0  0  0  0  0  0  0  0  0  0  0
 1181.4400  742.9000    0.0000 C   0  0  1  0  0  0  0  0  0  0  0  0
 1207.4200  757.9000    0.0000 C   0  0  0  0  0  0  0  0  0  0  0  0
 1155.4600  757.9000    0.0000 N   0  0  0  0  0  0  0  0  0  0  0  0
 1207.4200  787.9000    0.0000 O   0  0  0  0  0  0  0  0  0  0  0  0
 1129.4800  652.9000    0.0000 N   0  0  0  0  0  0  0  0  0  0  0  0
 1129.4800  622.9000    0.0000 C   0  0  0  0  0  0  0  0  0  0  0  0
 1155.4600  607.9000    0.0000 N   0  3  0  0  0  0  0  0  0  0  0  0
 1103.5000  607.9000    0.0000 N   0  0  0  0  0  0  0  0  0  0  0  0
 1155.4600  697.9000    0.0000 C   0  0  0  0  0  0  0  0  0  0  0  0
 1155.4600  667.9000    0.0000 C   0  0  0  0  0  0  0  0  0  0  0  0
 1259.3900  787.9000    0.0000 C   0  0  0  0  0  0  0  0  0  0  0  0
 1259.3900  757.9000    0.0000 C   0  0  1  0  0  0  0  0  0  0  0  0
 1285.3700  742.9000    0.0000 C   0  0  0  0  0  0  0  0  0  0  0  0
 1233.4100  742.9000    0.0000 N   0  0  0  0  0  0  0  0  0  0  0  0
 1285.3700  712.9000    0.0000 O   0  0  0  0  0  0  0  0  0  0  0  0
 1233.4100  802.9000    0.0000 C   0  0  0  0  0  0  0  0  0  0  0  0
 1233.4100  832.9000    0.0000 C   0  0  0  0  0  0  0  0  0  0  0  0
 1207.4200  847.9000    0.0000 C   0  0  0  0  0  0  0  0  0  0  0  0
 1207.4200  877.9000    0.0000 N   0  0  0  0  0  0  0  0  0  0  0  0
 1337.3300  712.9000    0.0000 C   0  0  0  0  0  0  0  0  0  0  0  0
 1337.3300  742.9000    0.0000 C   0  0  1  0  0  0  0  0  0  0  0  0
 1363.3100  757.9000    0.0000 C   0  0  0  0  0  0  0  0  0  0  0  0
 1311.3500  757.9000    0.0000 N   0  0  0  0  0  0  0  0  0  0  0  0
 1363.3100  787.9000    0.0000 O   0  0  0  0  0  0  0  0  0  0  0  0
 1363.3100  697.9000    0.0000 O   0  0  0  0  0  0  0  0  0  0  0  0
 1415.2700  787.9000    0.0000 C   0  0  2  0  0  0  0  0  0  0  0  0
 1415.2700  757.9000    0.0000 C   0  0  3  0  0  0  0  0  0  0  0  0
 1441.2500  742.9000    0.0000 C   0  0  0  0  0  0  0  0  0  0  0  0
 1389.2900  742.9000    0.0000 N   0  0  0  0  0  0  0  0  0  0  0  0
 1441.2500  712.9000    0.0000 O   0  0  0  0  0  0  0  0  0  0  0  0
 1389.2900  802.9000    0.0000 O   0  0  0  0  0  0  0  0  0  0  0  0
 1441.2500  802.9000    0.0000 C   0  0  0  0  0  0  0  0  0  0  0  0
 1467.2300  757.9000    0.0000 N   0  0  0  0  0  0  0  0  0  0  0  0
 1077.5200  802.9000    0.0000 C   0  0  0  0  0  0  0  0  0  0  0  0
 1051.5400  787.9000    0.0000 C   0  0  0  0  0  0  0  0  0  0  0  0
 1077.5200  832.9000    0.0000 O   0  0  0  0  0  0  0  0  0  0  0  0
 1181.4400  892.9000    0.0000 C   0  0  2  0  0  0  0  0  0  0  0  0
 1181.4400  922.9000    0.0000 S   0  0  0  0  0  0  0  0  0  0  0  0
 1155.4600  937.9000    0.0000 C   0  0  0  0  0  0  0  0  0  0  0  0
 1155.4600  967.9000    0.0000 C   0  0  0  0  0  0  0  0  0  0  0  0
 1129.4800  982.9000    0.0000 N   0  0  0  0  0  0  0  0  0  0  0  0
 1129.4800 1012.9000    0.0000 C   0  0  0  0  0  0  0  0  0  0  0  0
 1103.5000 1027.9000    0.0000 C   0  0  0  0  0  0  0  0  0  0  0  0
 1152.4700  885.1300    0.0000 C   0  0  0  0  0  0  0  0  0  0  0  0
 1160.2300  871.6800    0.0000 O   0  5  0  0  0  0  0  0  0  0  0  0
 1155.4600 1027.9000    0.0000 O   0  0  0  0  0  0  0  0  0  0  0  0
  1  2  1  0  0  0  0
  2  4  1  6  0  0  0
  2  3  1  0  0  0  0
  3  9  1  0  0  0  0
  3  5  2  0  0  0  0
  4 40  1  0  0  0  0
  6 15  1  0  0  0  0
  7  8  1  6  0  0  0
  7  9  1  0  0  0  0
  7  6  1  0  0  0  0
  8 20  1  0  0  0  0
  8 10  2  0  0  0  0
 11 16  1  0  0  0  0
 11 12  1  0  0  0  0
 12 14  1  0  0  0  0
 12 13  2  0  0  0  0
 15 16  1  0  0  0  0
 17 22  1  0  0  0  0
 18 20  1  1  0  0  0
 18 19  1  0  0  0  0
 18 17  1  0  0  0  0
 19 29  1  0  0  0  0
 19 21  2  0  0  0  0
 22 23  1  0  0  0  0
 23 24  1  0  0  0  0
 24 25  1  0  0  0  0
 26 31  1  0  0  0  0
 27 29  1  6  0  0  0
 27 28  1  0  0  0  0
 27 26  1  0  0  0  0
 28 35  1  0  0  0  0
 28 30  2  0  0  0  0
 32 38  1  6  0  0  0
 32 37  1  0  0  0  0
 32 33  1  0  0  0  0
 33 34  1  0  0  0  0
 33 35  1  0  0  0  0
 34 39  1  0  0  0  0
 34 36  2  0  0  0  0
 40 41  1  0  0  0  0
 40 42  2  0  0  0  0
 43 25  1  1  0  0  0
 43 44  1  0  0  0  0
 43 50  1  0  0  0  0
 43 51  1  0  0  0  0
 44 45  1  0  0  0  0
 45 46  1  0  0  0  0
 46 47  1  0  0  0  0
 47 48  1  0  0  0  0
 48 49  1  0  0  0  0
 48 52  2  0  0  0  0
M  CHG  2  13   1  51  -1
M  END
