3
 OpenBabel05271511392D

 10  9  0  0  1  0  0  0  0  0999 V2000
  243.8900  453.0000    0.0000 O   0  5  0  0  0  0  0  0  0  0  0  0
  217.9100  438.0000    0.0000 C   0  0  0  0  0  0  0  0  0  0  0  0
  191.9300  453.0000    0.0000 C   0  0  2  0  0  0  0  0  0  0  0  0
  165.9500  438.0000    0.0000 C   0  0  0  0  0  0  0  0  0  0  0  0
  139.9700  453.0000    0.0000 C   0  0  0  0  0  0  0  0  0  0  0  0
  113.9900  438.0000    0.0000 C   0  0  0  0  0  0  0  0  0  0  0  0
   88.0100  453.0000    0.0000 C   0  0  0  0  0  0  0  0  0  0  0  0
   62.0200  438.0000    0.0000 N   0  0  0  0  0  0  0  0  0  0  0  0
  191.9300  483.0000    0.0000 N   0  3  0  0  0  0  0  0  0  0  0  0
  217.9100  408.0000    0.0000 O   0  0  0  0  0  0  0  0  0  0  0  0
  1  2  1  0  0  0  0
  2 10  2  0  0  0  0
  3  2  1  6  0  0  0
  3  4  1  0  0  0  0
  3  9  1  0  0  0  0
  4  5  1  0  0  0  0
  5  6  1  0  0  0  0
  6  7  1  0  0  0  0
  7  8  1  0  0  0  0
M  CHG  2   1  -1   9   1
M  END
