3805
 OpenBabel05271511392D

 13 12  0  0  1  0  0  0  0  0999 V2000
  701.9200  489.0000    0.0000 N   0  0  0  0  0  0  0  0  0  0  0  0
  675.9400  474.0000    0.0000 C   0  0  0  0  0  0  0  0  0  0  0  0
  649.9600  489.0000    0.0000 C   0  0  2  0  0  0  0  0  0  0  0  0
  623.9800  474.0000    0.0000 C   0  0  0  0  0  0  0  0  0  0  0  0
  598.0000  489.0000    0.0000 C   0  0  0  0  0  0  0  0  0  0  0  0
  572.0200  474.0000    0.0000 C   0  0  0  0  0  0  0  0  0  0  0  0
  546.0400  489.0000    0.0000 C   0  0  0  0  0  0  0  0  0  0  0  0
  520.0600  474.0000    0.0000 N   0  0  0  0  0  0  0  0  0  0  0  0
  649.9600  519.0000    0.0000 N   0  0  0  0  0  0  0  0  0  0  0  0
  675.9400  444.0000    0.0000 O   0  0  0  0  0  0  0  0  0  0  0  0
  675.9400  534.0000    0.0000 C   0  0  0  0  0  0  0  0  0  0  0  0
  701.9200  519.0000    0.0000 C   0  0  0  0  0  0  0  0  0  0  0  0
  675.9400  564.0000    0.0000 O   0  0  0  0  0  0  0  0  0  0  0  0
  1  2  1  0  0  0  0
  2 10  2  0  0  0  0
  3  2  1  6  0  0  0
  3  4  1  0  0  0  0
  3  9  1  0  0  0  0
  4  5  1  0  0  0  0
  5  6  1  0  0  0  0
  6  7  1  0  0  0  0
  7  8  1  0  0  0  0
  9 11  1  0  0  0  0
 11 12  1  0  0  0  0
 11 13  2  0  0  0  0
M  END
