1560
 OpenBabel05271511392D

 16 15  0  0  1  0  0  0  0  0999 V2000
 1161.9200  485.0000    0.0000 N   0  0  0  0  0  0  0  0  0  0  0  0
 1135.9400  470.0000    0.0000 C   0  0  0  0  0  0  0  0  0  0  0  0
 1109.9600  485.0000    0.0000 C   0  0  2  0  0  0  0  0  0  0  0  0
 1083.9800  470.0000    0.0000 C   0  0  0  0  0  0  0  0  0  0  0  0
 1058.0000  485.0000    0.0000 C   0  0  0  0  0  0  0  0  0  0  0  0
 1032.0200  470.0000    0.0000 C   0  0  0  0  0  0  0  0  0  0  0  0
 1006.0400  485.0000    0.0000 C   0  0  0  0  0  0  0  0  0  0  0  0
  980.0600  470.0000    0.0000 N   0  0  0  0  0  0  0  0  0  0  0  0
 1109.9600  515.0000    0.0000 N   0  0  0  0  0  0  0  0  0  0  0  0
 1135.9400  440.0000    0.0000 O   0  0  0  0  0  0  0  0  0  0  0  0
  954.0800  485.0000    0.0000 C   0  0  0  0  0  0  0  0  0  0  0  0
  928.1000  470.0000    0.0000 C   0  0  0  0  0  0  0  0  0  0  0  0
  954.0800  515.0000    0.0000 O   0  0  0  0  0  0  0  0  0  0  0  0
 1135.9400  530.0000    0.0000 C   0  0  0  0  0  0  0  0  0  0  0  0
 1161.9200  515.0000    0.0000 C   0  0  0  0  0  0  0  0  0  0  0  0
 1135.9400  560.0000    0.0000 O   0  0  0  0  0  0  0  0  0  0  0  0
  1  2  1  0  0  0  0
  2 10  2  0  0  0  0
  3  2  1  6  0  0  0
  3  4  1  0  0  0  0
  3  9  1  0  0  0  0
  4  5  1  0  0  0  0
  5  6  1  0  0  0  0
  6  7  1  0  0  0  0
  7  8  1  0  0  0  0
  8 11  1  0  0  0  0
  9 14  1  0  0  0  0
 11 12  1  0  0  0  0
 11 13  2  0  0  0  0
 14 15  1  0  0  0  0
 14 16  2  0  0  0  0
M  END
