1150
 OpenBabel05271511392D

 23 22  0  0  1  0  0  0  0  0999 V2000
 1415.2700  453.0000    0.0000 N   0  0  0  0  0  0  0  0  0  0  0  0
 1389.2900  438.0000    0.0000 C   0  0  0  0  0  0  0  0  0  0  0  0
 1363.3100  453.0000    0.0000 C   0  0  2  0  0  0  0  0  0  0  0  0
 1337.3300  438.0000    0.0000 C   0  0  0  0  0  0  0  0  0  0  0  0
 1311.3500  453.0000    0.0000 C   0  0  0  0  0  0  0  0  0  0  0  0
 1285.3700  438.0000    0.0000 C   0  0  0  0  0  0  0  0  0  0  0  0
 1259.3900  453.0000    0.0000 C   0  0  0  0  0  0  0  0  0  0  0  0
 1233.4100  438.0000    0.0000 N   0  0  0  0  0  0  0  0  0  0  0  0
 1363.3100  483.0000    0.0000 N   0  0  0  0  0  0  0  0  0  0  0  0
 1389.2900  408.0000    0.0000 O   0  0  0  0  0  0  0  0  0  0  0  0
 1389.2900  498.0000    0.0000 C   0  0  0  0  0  0  0  0  0  0  0  0
 1415.2700  483.0000    0.0000 C   0  0  0  0  0  0  0  0  0  0  0  0
 1389.2900  528.0000    0.0000 O   0  0  0  0  0  0  0  0  0  0  0  0
 1207.4300  453.0000    0.0000 C   0  0  1  0  0  0  0  0  0  0  0  0
 1181.4500  438.0000    0.0000 S   0  0  0  0  0  0  0  0  0  0  0  0
 1155.4700  453.0000    0.0000 C   0  0  0  0  0  0  0  0  0  0  0  0
 1129.4800  438.0000    0.0000 C   0  0  0  0  0  0  0  0  0  0  0  0
 1103.5000  453.0000    0.0000 N   0  0  0  0  0  0  0  0  0  0  0  0
 1077.5200  438.0000    0.0000 C   0  0  0  0  0  0  0  0  0  0  0  0
 1051.5400  453.0000    0.0000 C   0  0  0  0  0  0  0  0  0  0  0  0
 1199.6600  481.9800    0.0000 O   0  5  0  0  0  0  0  0  0  0  0  0
 1215.1900  481.9800    0.0000 C   0  0  0  0  0  0  0  0  0  0  0  0
 1077.5200  408.0000    0.0000 O   0  0  0  0  0  0  0  0  0  0  0  0
  1  2  1  0  0  0  0
  2 10  2  0  0  0  0
  3  2  1  6  0  0  0
  3  4  1  0  0  0  0
  3  9  1  0  0  0  0
  4  5  1  0  0  0  0
  5  6  1  0  0  0  0
  6  7  1  0  0  0  0
  7  8  1  0  0  0  0
  9 11  1  0  0  0  0
 11 12  1  0  0  0  0
 11 13  2  0  0  0  0
 14  8  1  1  0  0  0
 14 15  1  0  0  0  0
 14 21  1  0  0  0  0
 14 22  1  0  0  0  0
 15 16  1  0  0  0  0
 16 17  1  0  0  0  0
 17 18  1  0  0  0  0
 18 19  1  0  0  0  0
 19 20  1  0  0  0  0
 19 23  2  0  0  0  0
M  CHG  1  21  -1
M  END
