MODEL 1
REMARK VINA RESULT:      -5.4      0.000      0.000
REMARK  8 active torsions:
REMARK  status: ('A' for Active; 'I' for Inactive)
REMARK    1  A    between atoms: C_1  and  O_7 
REMARK    2  A    between atoms: C_2  and  O_10 
REMARK    3  A    between atoms: C_3  and  O_11 
REMARK    4  A    between atoms: C_4  and  O_12 
REMARK    5  A    between atoms: C_6  and  C_8 
REMARK    6  A    between atoms: C_8  and  O_9 
REMARK    7  A    between atoms: O_12  and  C_13 
REMARK    8  A    between atoms: C_13  and  C_14 
ROOT
HETATM    1  C   LIG     1      50.808  11.865   8.555  1.00  0.00     0.180 C 
HETATM    2  C   LIG     1      50.058  10.899   7.641  1.00  0.00     0.183 C 
HETATM    3  C   LIG     1      48.951  11.603   6.843  1.00  0.00     0.204 C 
HETATM    4  C   LIG     1      48.076  12.488   7.768  1.00  0.00     0.291 C 
HETATM    5  O   LIG     1      48.902  13.323   8.604  1.00  0.00    -0.348 OA
HETATM    6  C   LIG     1      49.787  12.580   9.447  1.00  0.00     0.179 C 
ENDROOT
BRANCH   4   7
HETATM    7  O   LIG     1      47.251  13.397   7.035  1.00  0.00    -0.355 OA
BRANCH   7   8
HETATM    8  C   LIG     1      45.847  13.223   7.177  1.00  0.00     0.197 C 
BRANCH   8   9
HETATM    9  C   LIG     1      45.379  13.665   8.528  1.00  0.00    -0.011 C 
HETATM   10  C   LIG     1      44.326  13.135   9.169  1.00  0.00     0.009 C 
ENDBRANCH   8   9
ENDBRANCH   7   8
ENDBRANCH   4   7
BRANCH   3  11
HETATM   11  O   LIG     1      48.193  10.578   6.178  1.00  0.00    -0.388 OA
HETATM   12  H   LIG     1      48.448  10.643   5.235  1.00  0.00     0.210 HD
ENDBRANCH   3  11
BRANCH   2  13
HETATM   13  O   LIG     1      50.964  10.284   6.708  1.00  0.00    -0.390 OA
HETATM   14  H   LIG     1      50.565  10.430   5.823  1.00  0.00     0.210 HD
ENDBRANCH   2  13
BRANCH   6  15
HETATM   15  C   LIG     1      50.455  13.545  10.430  1.00  0.00     0.198 C 
BRANCH  15  16
HETATM   16  O   LIG     1      51.180  14.547   9.726  1.00  0.00    -0.398 OA
HETATM   17  H   LIG     1      51.998  14.721  10.224  1.00  0.00     0.209 HD
ENDBRANCH  15  16
ENDBRANCH   6  15
BRANCH   1  18
HETATM   18  O   LIG     1      51.519  12.790   7.711  1.00  0.00    -0.390 OA
HETATM   19  H   LIG     1      50.859  13.407   7.335  1.00  0.00     0.210 HD
ENDBRANCH   1  18
TORSDOF 8
ENDMDL
MODEL 2
REMARK VINA RESULT:      -5.2      0.857      1.228
REMARK  8 active torsions:
REMARK  status: ('A' for Active; 'I' for Inactive)
REMARK    1  A    between atoms: C_1  and  O_7 
REMARK    2  A    between atoms: C_2  and  O_10 
REMARK    3  A    between atoms: C_3  and  O_11 
REMARK    4  A    between atoms: C_4  and  O_12 
REMARK    5  A    between atoms: C_6  and  C_8 
REMARK    6  A    between atoms: C_8  and  O_9 
REMARK    7  A    between atoms: O_12  and  C_13 
REMARK    8  A    between atoms: C_13  and  C_14 
ROOT
HETATM    1  C   LIG     1      50.971  11.758   8.619  1.00  0.00     0.180 C 
HETATM    2  C   LIG     1      50.311  10.744   7.685  1.00  0.00     0.183 C 
HETATM    3  C   LIG     1      49.245  11.394   6.791  1.00  0.00     0.204 C 
HETATM    4  C   LIG     1      48.285  12.281   7.626  1.00  0.00     0.291 C 
HETATM    5  O   LIG     1      49.028  13.163   8.490  1.00  0.00    -0.348 OA
HETATM    6  C   LIG     1      49.871  12.470   9.415  1.00  0.00     0.179 C 
ENDROOT
BRANCH   4   7
HETATM    7  O   LIG     1      47.490  13.145   6.810  1.00  0.00    -0.355 OA
BRANCH   7   8
HETATM    8  C   LIG     1      46.112  13.234   7.148  1.00  0.00     0.197 C 
BRANCH   8   9
HETATM    9  C   LIG     1      45.253  12.588   6.105  1.00  0.00    -0.011 C 
HETATM   10  C   LIG     1      45.121  11.262   5.957  1.00  0.00     0.009 C 
ENDBRANCH   8   9
ENDBRANCH   7   8
ENDBRANCH   4   7
BRANCH   3  11
HETATM   11  O   LIG     1      48.562  10.329   6.108  1.00  0.00    -0.388 OA
HETATM   12  H   LIG     1      48.658   9.549   6.692  1.00  0.00     0.210 HD
ENDBRANCH   3  11
BRANCH   2  13
HETATM   13  O   LIG     1      51.295  10.129   6.837  1.00  0.00    -0.390 OA
HETATM   14  H   LIG     1      50.806   9.459   6.313  1.00  0.00     0.210 HD
ENDBRANCH   2  13
BRANCH   6  15
HETATM   15  C   LIG     1      50.445  13.482  10.411  1.00  0.00     0.198 C 
BRANCH  15  16
HETATM   16  O   LIG     1      51.184  14.487   9.727  1.00  0.00    -0.398 OA
HETATM   17  H   LIG     1      51.291  15.238  10.337  1.00  0.00     0.209 HD
ENDBRANCH  15  16
ENDBRANCH   6  15
BRANCH   1  18
HETATM   18  O   LIG     1      51.715  12.677   7.797  1.00  0.00    -0.390 OA
HETATM   19  H   LIG     1      51.904  13.467   8.342  1.00  0.00     0.210 HD
ENDBRANCH   1  18
TORSDOF 8
ENDMDL
MODEL 3
REMARK VINA RESULT:      -5.1     12.712     14.655
REMARK  8 active torsions:
REMARK  status: ('A' for Active; 'I' for Inactive)
REMARK    1  A    between atoms: C_1  and  O_7 
REMARK    2  A    between atoms: C_2  and  O_10 
REMARK    3  A    between atoms: C_3  and  O_11 
REMARK    4  A    between atoms: C_4  and  O_12 
REMARK    5  A    between atoms: C_6  and  C_8 
REMARK    6  A    between atoms: C_8  and  O_9 
REMARK    7  A    between atoms: O_12  and  C_13 
REMARK    8  A    between atoms: C_13  and  C_14 
ROOT
HETATM    1  C   LIG     1      41.458   5.349   1.041  1.00  0.00     0.180 C 
HETATM    2  C   LIG     1      40.020   4.842   0.947  1.00  0.00     0.183 C 
HETATM    3  C   LIG     1      39.898   3.372   1.375  1.00  0.00     0.204 C 
HETATM    4  C   LIG     1      40.977   2.500   0.682  1.00  0.00     0.291 C 
HETATM    5  O   LIG     1      42.279   3.105   0.810  1.00  0.00    -0.348 OA
HETATM    6  C   LIG     1      42.357   4.410   0.228  1.00  0.00     0.179 C 
ENDROOT
BRANCH   4   7
HETATM    7  O   LIG     1      41.106   1.210   1.284  1.00  0.00    -0.355 OA
BRANCH   7   8
HETATM    8  C   LIG     1      40.537   0.123   0.565  1.00  0.00     0.197 C 
BRANCH   8   9
HETATM    9  C   LIG     1      39.701  -0.740   1.459  1.00  0.00    -0.011 C 
HETATM   10  C   LIG     1      39.349  -2.001   1.170  1.00  0.00     0.009 C 
ENDBRANCH   8   9
ENDBRANCH   7   8
ENDBRANCH   4   7
BRANCH   3  11
HETATM   11  O   LIG     1      38.560   2.951   1.059  1.00  0.00    -0.388 OA
HETATM   12  H   LIG     1      37.979   3.651   1.421  1.00  0.00     0.210 HD
ENDBRANCH   3  11
BRANCH   2  13
HETATM   13  O   LIG     1      39.154   5.628   1.784  1.00  0.00    -0.390 OA
HETATM   14  H   LIG     1      38.560   4.982   2.223  1.00  0.00     0.210 HD
ENDBRANCH   2  13
BRANCH   6  15
HETATM   15  C   LIG     1      43.819   4.864   0.234  1.00  0.00     0.198 C 
BRANCH  15  16
HETATM   16  O   LIG     1      44.547   4.183   1.248  1.00  0.00    -0.398 OA
HETATM   17  H   LIG     1      44.283   3.246   1.220  1.00  0.00     0.209 HD
ENDBRANCH  15  16
ENDBRANCH   6  15
BRANCH   1  18
HETATM   18  O   LIG     1      41.818   5.358   2.436  1.00  0.00    -0.390 OA
HETATM   19  H   LIG     1      42.441   6.101   2.570  1.00  0.00     0.210 HD
ENDBRANCH   1  18
TORSDOF 8
ENDMDL
MODEL 4
REMARK VINA RESULT:      -5.0      9.657     11.707
REMARK  8 active torsions:
REMARK  status: ('A' for Active; 'I' for Inactive)
REMARK    1  A    between atoms: C_1  and  O_7 
REMARK    2  A    between atoms: C_2  and  O_10 
REMARK    3  A    between atoms: C_3  and  O_11 
REMARK    4  A    between atoms: C_4  and  O_12 
REMARK    5  A    between atoms: C_6  and  C_8 
REMARK    6  A    between atoms: C_8  and  O_9 
REMARK    7  A    between atoms: O_12  and  C_13 
REMARK    8  A    between atoms: C_13  and  C_14 
ROOT
HETATM    1  C   LIG     1      44.308   7.438   1.170  1.00  0.00     0.180 C 
HETATM    2  C   LIG     1      43.277   8.565   1.200  1.00  0.00     0.183 C 
HETATM    3  C   LIG     1      41.921   8.091   1.742  1.00  0.00     0.204 C 
HETATM    4  C   LIG     1      41.476   6.776   1.052  1.00  0.00     0.291 C 
HETATM    5  O   LIG     1      42.546   5.811   1.056  1.00  0.00    -0.348 OA
HETATM    6  C   LIG     1      43.720   6.265   0.376  1.00  0.00     0.179 C 
ENDROOT
BRANCH   4   7
HETATM    7  O   LIG     1      40.397   6.136   1.739  1.00  0.00    -0.355 OA
BRANCH   7   8
HETATM    8  C   LIG     1      40.477   4.721   1.852  1.00  0.00     0.197 C 
BRANCH   8   9
HETATM    9  C   LIG     1      39.386   4.052   1.074  1.00  0.00    -0.011 C 
HETATM   10  C   LIG     1      38.947   2.808   1.314  1.00  0.00     0.009 C 
ENDBRANCH   8   9
ENDBRANCH   7   8
ENDBRANCH   4   7
BRANCH   3  11
HETATM   11  O   LIG     1      40.987   9.166   1.540  1.00  0.00    -0.388 OA
HETATM   12  H   LIG     1      40.111   8.735   1.477  1.00  0.00     0.210 HD
ENDBRANCH   3  11
BRANCH   2  13
HETATM   13  O   LIG     1      43.740   9.646   2.028  1.00  0.00    -0.390 OA
HETATM   14  H   LIG     1      43.341   9.488   2.910  1.00  0.00     0.210 HD
ENDBRANCH   2  13
BRANCH   6  15
HETATM   15  C   LIG     1      44.704   5.098   0.260  1.00  0.00     0.198 C 
BRANCH  15  16
HETATM   16  O   LIG     1      44.552   4.209   1.361  1.00  0.00    -0.398 OA
HETATM   17  H   LIG     1      44.683   4.726   2.175  1.00  0.00     0.209 HD
ENDBRANCH  15  16
ENDBRANCH   6  15
BRANCH   1  18
HETATM   18  O   LIG     1      44.583   7.073   2.536  1.00  0.00    -0.390 OA
HETATM   19  H   LIG     1      44.257   6.160   2.664  1.00  0.00     0.210 HD
ENDBRANCH   1  18
TORSDOF 8
ENDMDL
MODEL 5
REMARK VINA RESULT:      -5.0      6.882      9.204
REMARK  8 active torsions:
REMARK  status: ('A' for Active; 'I' for Inactive)
REMARK    1  A    between atoms: C_1  and  O_7 
REMARK    2  A    between atoms: C_2  and  O_10 
REMARK    3  A    between atoms: C_3  and  O_11 
REMARK    4  A    between atoms: C_4  and  O_12 
REMARK    5  A    between atoms: C_6  and  C_8 
REMARK    6  A    between atoms: C_8  and  O_9 
REMARK    7  A    between atoms: O_12  and  C_13 
REMARK    8  A    between atoms: C_13  and  C_14 
ROOT
HETATM    1  C   LIG     1      43.682   6.616   0.970  1.00  0.00     0.180 C 
HETATM    2  C   LIG     1      45.207   6.579   1.042  1.00  0.00     0.183 C 
HETATM    3  C   LIG     1      45.731   7.038   2.411  1.00  0.00     0.204 C 
HETATM    4  C   LIG     1      45.058   8.365   2.846  1.00  0.00     0.291 C 
HETATM    5  O   LIG     1      43.627   8.284   2.696  1.00  0.00    -0.348 OA
HETATM    6  C   LIG     1      43.213   8.025   1.351  1.00  0.00     0.179 C 
ENDROOT
BRANCH   4   7
HETATM    7  O   LIG     1      45.270   8.657   4.230  1.00  0.00    -0.355 OA
BRANCH   7   8
HETATM    8  C   LIG     1      45.937   9.879   4.518  1.00  0.00     0.197 C 
BRANCH   8   9
HETATM    9  C   LIG     1      45.325  10.568   5.698  1.00  0.00    -0.011 C 
HETATM   10  C   LIG     1      45.114  11.890   5.770  1.00  0.00     0.009 C 
ENDBRANCH   8   9
ENDBRANCH   7   8
ENDBRANCH   4   7
BRANCH   3  11
HETATM   11  O   LIG     1      47.159   7.152   2.298  1.00  0.00    -0.388 OA
HETATM   12  H   LIG     1      47.516   6.364   2.756  1.00  0.00     0.210 HD
ENDBRANCH   3  11
BRANCH   2  13
HETATM   13  O   LIG     1      45.688   5.246   0.800  1.00  0.00    -0.390 OA
HETATM   14  H   LIG     1      45.554   5.090  -0.160  1.00  0.00     0.210 HD
ENDBRANCH   2  13
BRANCH   6  15
HETATM   15  C   LIG     1      41.691   8.168   1.270  1.00  0.00     0.198 C 
BRANCH  15  16
HETATM   16  O   LIG     1      41.266   9.352   1.934  1.00  0.00    -0.398 OA
HETATM   17  H   LIG     1      40.611   9.790   1.363  1.00  0.00     0.209 HD
ENDBRANCH  15  16
ENDBRANCH   6  15
BRANCH   1  18
HETATM   18  O   LIG     1      43.185   5.622   1.888  1.00  0.00    -0.390 OA
HETATM   19  H   LIG     1      42.332   5.950   2.237  1.00  0.00     0.210 HD
ENDBRANCH   1  18
TORSDOF 8
ENDMDL
MODEL 6
REMARK VINA RESULT:      -5.0     27.545     29.642
REMARK  8 active torsions:
REMARK  status: ('A' for Active; 'I' for Inactive)
REMARK    1  A    between atoms: C_1  and  O_7 
REMARK    2  A    between atoms: C_2  and  O_10 
REMARK    3  A    between atoms: C_3  and  O_11 
REMARK    4  A    between atoms: C_4  and  O_12 
REMARK    5  A    between atoms: C_6  and  C_8 
REMARK    6  A    between atoms: C_8  and  O_9 
REMARK    7  A    between atoms: O_12  and  C_13 
REMARK    8  A    between atoms: C_13  and  C_14 
ROOT
HETATM    1  C   LIG     1      64.526  -0.302 -16.418  1.00  0.00     0.180 C 
HETATM    2  C   LIG     1      63.494  -1.351 -16.012  1.00  0.00     0.183 C 
HETATM    3  C   LIG     1      62.247  -0.718 -15.378  1.00  0.00     0.204 C 
HETATM    4  C   LIG     1      62.640   0.311 -14.287  1.00  0.00     0.291 C 
HETATM    5  O   LIG     1      63.646   1.218 -14.781  1.00  0.00    -0.348 OA
HETATM    6  C   LIG     1      64.848   0.560 -15.191  1.00  0.00     0.179 C 
ENDROOT
BRANCH   4   7
HETATM    7  O   LIG     1      61.546   1.145 -13.901  1.00  0.00    -0.355 OA
BRANCH   7   8
HETATM    8  C   LIG     1      61.021   0.929 -12.597  1.00  0.00     0.197 C 
BRANCH   8   9
HETATM    9  C   LIG     1      59.545   0.680 -12.640  1.00  0.00    -0.011 C 
HETATM   10  C   LIG     1      58.813   0.320 -11.576  1.00  0.00     0.009 C 
ENDBRANCH   8   9
ENDBRANCH   7   8
ENDBRANCH   4   7
BRANCH   3  11
HETATM   11  O   LIG     1      61.445  -1.793 -14.861  1.00  0.00    -0.388 OA
HETATM   12  H   LIG     1      61.229  -1.533 -13.942  1.00  0.00     0.210 HD
ENDBRANCH   3  11
BRANCH   2  13
HETATM   13  O   LIG     1      63.077  -2.114 -17.158  1.00  0.00    -0.390 OA
HETATM   14  H   LIG     1      63.288  -3.048 -16.940  1.00  0.00     0.210 HD
ENDBRANCH   2  13
BRANCH   6  15
HETATM   15  C   LIG     1      65.909   1.622 -15.495  1.00  0.00     0.198 C 
BRANCH  15  16
HETATM   16  O   LIG     1      65.566   2.858 -14.881  1.00  0.00    -0.398 OA
HETATM   17  H   LIG     1      64.661   2.771 -14.532  1.00  0.00     0.209 HD
ENDBRANCH  15  16
ENDBRANCH   6  15
BRANCH   1  18
HETATM   18  O   LIG     1      63.949   0.479 -17.482  1.00  0.00    -0.390 OA
HETATM   19  H   LIG     1      64.611   1.150 -17.742  1.00  0.00     0.210 HD
ENDBRANCH   1  18
TORSDOF 8
ENDMDL
MODEL 7
REMARK VINA RESULT:      -4.9     16.715     18.720
REMARK  8 active torsions:
REMARK  status: ('A' for Active; 'I' for Inactive)
REMARK    1  A    between atoms: C_1  and  O_7 
REMARK    2  A    between atoms: C_2  and  O_10 
REMARK    3  A    between atoms: C_3  and  O_11 
REMARK    4  A    between atoms: C_4  and  O_12 
REMARK    5  A    between atoms: C_6  and  C_8 
REMARK    6  A    between atoms: C_8  and  O_9 
REMARK    7  A    between atoms: O_12  and  C_13 
REMARK    8  A    between atoms: C_13  and  C_14 
ROOT
HETATM    1  C   LIG     1      43.368  25.595  20.920  1.00  0.00     0.180 C 
HETATM    2  C   LIG     1      42.601  26.911  20.812  1.00  0.00     0.183 C 
HETATM    3  C   LIG     1      42.503  27.403  19.360  1.00  0.00     0.204 C 
HETATM    4  C   LIG     1      43.888  27.360  18.665  1.00  0.00     0.291 C 
HETATM    5  O   LIG     1      44.523  26.083  18.873  1.00  0.00    -0.348 OA
HETATM    6  C   LIG     1      44.737  25.776  20.254  1.00  0.00     0.179 C 
ENDROOT
BRANCH   4   7
HETATM    7  O   LIG     1      43.791  27.499  17.245  1.00  0.00    -0.355 OA
BRANCH   7   8
HETATM    8  C   LIG     1      44.259  26.400  16.474  1.00  0.00     0.197 C 
BRANCH   8   9
HETATM    9  C   LIG     1      45.568  26.715  15.817  1.00  0.00    -0.011 C 
HETATM   10  C   LIG     1      46.642  25.914  15.860  1.00  0.00     0.009 C 
ENDBRANCH   8   9
ENDBRANCH   7   8
ENDBRANCH   4   7
BRANCH   3  11
HETATM   11  O   LIG     1      41.945  28.728  19.401  1.00  0.00    -0.388 OA
HETATM   12  H   LIG     1      42.608  29.298  18.962  1.00  0.00     0.210 HD
ENDBRANCH   3  11
BRANCH   2  13
HETATM   13  O   LIG     1      41.266  26.758  21.326  1.00  0.00    -0.390 OA
HETATM   14  H   LIG     1      41.129  25.790  21.411  1.00  0.00     0.210 HD
ENDBRANCH   2  13
BRANCH   6  15
HETATM   15  C   LIG     1      45.595  24.512  20.349  1.00  0.00     0.198 C 
BRANCH  15  16
HETATM   16  O   LIG     1      45.224  23.582  19.339  1.00  0.00    -0.398 OA
HETATM   17  H   LIG     1      44.306  23.312  19.511  1.00  0.00     0.209 HD
ENDBRANCH  15  16
ENDBRANCH   6  15
BRANCH   1  18
HETATM   18  O   LIG     1      42.582  24.585  20.259  1.00  0.00    -0.390 OA
HETATM   19  H   LIG     1      41.761  25.015  19.944  1.00  0.00     0.210 HD
ENDBRANCH   1  18
TORSDOF 8
ENDMDL
MODEL 8
REMARK VINA RESULT:      -4.9      2.934      6.009
REMARK  8 active torsions:
REMARK  status: ('A' for Active; 'I' for Inactive)
REMARK    1  A    between atoms: C_1  and  O_7 
REMARK    2  A    between atoms: C_2  and  O_10 
REMARK    3  A    between atoms: C_3  and  O_11 
REMARK    4  A    between atoms: C_4  and  O_12 
REMARK    5  A    between atoms: C_6  and  C_8 
REMARK    6  A    between atoms: C_8  and  O_9 
REMARK    7  A    between atoms: O_12  and  C_13 
REMARK    8  A    between atoms: C_13  and  C_14 
ROOT
HETATM    1  C   LIG     1      45.144  10.971   4.263  1.00  0.00     0.180 C 
HETATM    2  C   LIG     1      45.096  12.285   5.040  1.00  0.00     0.183 C 
HETATM    3  C   LIG     1      46.496  12.760   5.456  1.00  0.00     0.204 C 
HETATM    4  C   LIG     1      47.302  11.609   6.110  1.00  0.00     0.291 C 
HETATM    5  O   LIG     1      47.237  10.418   5.301  1.00  0.00    -0.348 OA
HETATM    6  C   LIG     1      45.904   9.938   5.105  1.00  0.00     0.179 C 
ENDROOT
BRANCH   4   7
HETATM    7  O   LIG     1      48.695  11.909   6.218  1.00  0.00    -0.355 OA
BRANCH   7   8
HETATM    8  C   LIG     1      49.310  11.597   7.462  1.00  0.00     0.197 C 
BRANCH   8   9
HETATM    9  C   LIG     1      49.387  12.802   8.346  1.00  0.00    -0.011 C 
HETATM   10  C   LIG     1      48.601  13.002   9.414  1.00  0.00     0.009 C 
ENDBRANCH   8   9
ENDBRANCH   7   8
ENDBRANCH   4   7
BRANCH   3  11
HETATM   11  O   LIG     1      46.316  13.881   6.338  1.00  0.00    -0.388 OA
HETATM   12  H   LIG     1      45.650  14.448   5.898  1.00  0.00     0.210 HD
ENDBRANCH   3  11
BRANCH   2  13
HETATM   13  O   LIG     1      44.489  13.317   4.244  1.00  0.00    -0.390 OA
HETATM   14  H   LIG     1      43.831  13.747   4.831  1.00  0.00     0.210 HD
ENDBRANCH   2  13
BRANCH   6  15
HETATM   15  C   LIG     1      45.969   8.571   4.419  1.00  0.00     0.198 C 
BRANCH  15  16
HETATM   16  O   LIG     1      44.867   8.405   3.535  1.00  0.00    -0.398 OA
HETATM   17  H   LIG     1      44.419   7.576   3.777  1.00  0.00     0.209 HD
ENDBRANCH  15  16
ENDBRANCH   6  15
BRANCH   1  18
HETATM   18  O   LIG     1      45.810  11.235   3.014  1.00  0.00    -0.390 OA
HETATM   19  H   LIG     1      46.624  11.739   3.219  1.00  0.00     0.210 HD
ENDBRANCH   1  18
TORSDOF 8
ENDMDL
MODEL 9
REMARK VINA RESULT:      -4.8     12.538     14.797
REMARK  8 active torsions:
REMARK  status: ('A' for Active; 'I' for Inactive)
REMARK    1  A    between atoms: C_1  and  O_7 
REMARK    2  A    between atoms: C_2  and  O_10 
REMARK    3  A    between atoms: C_3  and  O_11 
REMARK    4  A    between atoms: C_4  and  O_12 
REMARK    5  A    between atoms: C_6  and  C_8 
REMARK    6  A    between atoms: C_8  and  O_9 
REMARK    7  A    between atoms: O_12  and  C_13 
REMARK    8  A    between atoms: C_13  and  C_14 
ROOT
HETATM    1  C   LIG     1      38.921   2.328   1.006  1.00  0.00     0.180 C 
HETATM    2  C   LIG     1      39.929   1.182   0.965  1.00  0.00     0.183 C 
HETATM    3  C   LIG     1      41.364   1.666   1.221  1.00  0.00     0.204 C 
HETATM    4  C   LIG     1      41.697   2.901   0.345  1.00  0.00     0.291 C 
HETATM    5  O   LIG     1      40.654   3.891   0.441  1.00  0.00    -0.348 OA
HETATM    6  C   LIG     1      39.375   3.408   0.017  1.00  0.00     0.179 C 
ENDROOT
BRANCH   4   7
HETATM    7  O   LIG     1      42.885   3.572   0.774  1.00  0.00    -0.355 OA
BRANCH   7   8
HETATM    8  C   LIG     1      42.696   4.770   1.515  1.00  0.00     0.197 C 
BRANCH   8   9
HETATM    9  C   LIG     1      43.946   5.593   1.546  1.00  0.00    -0.011 C 
HETATM   10  C   LIG     1      45.001   5.386   0.744  1.00  0.00     0.009 C 
ENDBRANCH   8   9
ENDBRANCH   7   8
ENDBRANCH   4   7
BRANCH   3  11
HETATM   11  O   LIG     1      42.236   0.553   0.965  1.00  0.00    -0.388 OA
HETATM   12  H   LIG     1      41.662  -0.137   0.575  1.00  0.00     0.210 HD
ENDBRANCH   3  11
BRANCH   2  13
HETATM   13  O   LIG     1      39.604   0.193   1.958  1.00  0.00    -0.390 OA
HETATM   14  H   LIG     1      39.235  -0.566   1.459  1.00  0.00     0.210 HD
ENDBRANCH   2  13
BRANCH   6  15
HETATM   15  C   LIG     1      38.399   4.586  -0.039  1.00  0.00     0.198 C 
BRANCH  15  16
HETATM   16  O   LIG     1      38.530   5.396   1.123  1.00  0.00    -0.398 OA
HETATM   17  H   LIG     1      38.661   6.314   0.828  1.00  0.00     0.209 HD
ENDBRANCH  15  16
ENDBRANCH   6  15
BRANCH   1  18
HETATM   18  O   LIG     1      38.889   2.823   2.358  1.00  0.00    -0.390 OA
HETATM   19  H   LIG     1      38.201   2.317   2.837  1.00  0.00     0.210 HD
ENDBRANCH   1  18
TORSDOF 8
ENDMDL
