MODEL 1
REMARK VINA RESULT:      -5.6      0.000      0.000
REMARK  13 active torsions:
REMARK  status: ('A' for Active; 'I' for Inactive)
REMARK    1  A    between atoms: C_1  and  O_21 
REMARK    2  A    between atoms: C_2  and  O_9 
REMARK    3  A    between atoms: C_3  and  O_10 
REMARK    4  A    between atoms: C_4  and  O_11 
REMARK    5  A    between atoms: C_6  and  C_7 
REMARK    6  A    between atoms: C_7  and  O_8 
REMARK    7  A    between atoms: O_11  and  C_12 
REMARK    8  A    between atoms: C_12  and  C_13 
REMARK    9  A    between atoms: C_14  and  C_15 
REMARK   10  A    between atoms: C_15  and  C_16 
REMARK   11  A    between atoms: C_16  and  C_17 
REMARK   12  A    between atoms: C_17  and  C_18 
REMARK   13  A    between atoms: C_18  and  C_19 
ROOT
HETATM    1  C   LIG     1      41.411   6.158   1.036  1.00  0.00     0.180 C 
HETATM    2  C   LIG     1      42.350   4.966   0.794  1.00  0.00     0.183 C 
HETATM    3  C   LIG     1      43.601   5.008   1.683  1.00  0.00     0.204 C 
HETATM    4  C   LIG     1      44.257   6.386   1.484  1.00  0.00     0.291 C 
HETATM    5  O   LIG     1      43.347   7.412   1.873  1.00  0.00    -0.348 OA
HETATM    6  C   LIG     1      42.188   7.485   1.043  1.00  0.00     0.179 C 
ENDROOT
BRANCH   4   7
HETATM    7  O   LIG     1      45.427   6.515   2.288  1.00  0.00    -0.355 OA
BRANCH   7   8
HETATM    8  C   LIG     1      46.244   7.588   1.834  1.00  0.00     0.198 C 
BRANCH   8   9
HETATM    9  C   LIG     1      46.409   8.591   2.930  1.00  0.00    -0.005 C 
HETATM   10  C   LIG     1      45.911   8.379   4.156  1.00  0.00    -0.029 C 
BRANCH  10  11
HETATM   11  C   LIG     1      46.059   9.327   5.312  1.00  0.00     0.027 C 
BRANCH  11  12
HETATM   12  C   LIG     1      47.192  10.323   5.046  1.00  0.00     0.004 C 
BRANCH  12  13
HETATM   13  C   LIG     1      47.082  11.564   5.927  1.00  0.00     0.000 C 
BRANCH  13  14
HETATM   14  C   LIG     1      45.734  12.257   5.718  1.00  0.00    -0.000 C 
BRANCH  14  15
HETATM   15  C   LIG     1      45.581  12.768   4.288  1.00  0.00    -0.005 C 
HETATM   16  C   LIG     1      44.294  12.264   3.655  1.00  0.00     0.005 C 
ENDBRANCH  14  15
ENDBRANCH  13  14
ENDBRANCH  12  13
ENDBRANCH  11  12
ENDBRANCH  10  11
ENDBRANCH   8   9
ENDBRANCH   7   8
ENDBRANCH   4   7
BRANCH   3  17
HETATM   17  O   LIG     1      44.491   3.936   1.340  1.00  0.00    -0.388 OA
HETATM   18  H   LIG     1      44.584   3.339   2.103  1.00  0.00     0.210 HD
ENDBRANCH   3  17
BRANCH   2  19
HETATM   19  O   LIG     1      41.611   3.745   0.949  1.00  0.00    -0.390 OA
HETATM   20  H   LIG     1      40.834   3.927   1.510  1.00  0.00     0.210 HD
ENDBRANCH   2  19
BRANCH   6  21
HETATM   21  C   LIG     1      41.337   8.659   1.561  1.00  0.00     0.198 C 
BRANCH  21  22
HETATM   22  O   LIG     1      42.084   9.787   1.993  1.00  0.00    -0.398 OA
HETATM   23  H   LIG     1      42.506   9.574   2.844  1.00  0.00     0.209 HD
ENDBRANCH  21  22
ENDBRANCH   6  21
BRANCH   1  24
HETATM   24  O   LIG     1      40.438   6.169  -0.017  1.00  0.00    -0.390 OA
HETATM   25  H   LIG     1      40.824   5.640  -0.746  1.00  0.00     0.210 HD
ENDBRANCH   1  24
TORSDOF 13
ENDMDL
MODEL 2
REMARK VINA RESULT:      -5.5      4.754      6.615
REMARK  13 active torsions:
REMARK  status: ('A' for Active; 'I' for Inactive)
REMARK    1  A    between atoms: C_1  and  O_21 
REMARK    2  A    between atoms: C_2  and  O_9 
REMARK    3  A    between atoms: C_3  and  O_10 
REMARK    4  A    between atoms: C_4  and  O_11 
REMARK    5  A    between atoms: C_6  and  C_7 
REMARK    6  A    between atoms: C_7  and  O_8 
REMARK    7  A    between atoms: O_11  and  C_12 
REMARK    8  A    between atoms: C_12  and  C_13 
REMARK    9  A    between atoms: C_14  and  C_15 
REMARK   10  A    between atoms: C_15  and  C_16 
REMARK   11  A    between atoms: C_16  and  C_17 
REMARK   12  A    between atoms: C_17  and  C_18 
REMARK   13  A    between atoms: C_18  and  C_19 
ROOT
HETATM    1  C   LIG     1      40.225   3.612   1.398  1.00  0.00     0.180 C 
HETATM    2  C   LIG     1      40.689   4.962   1.966  1.00  0.00     0.183 C 
HETATM    3  C   LIG     1      42.072   5.379   1.447  1.00  0.00     0.204 C 
HETATM    4  C   LIG     1      43.035   4.209   1.721  1.00  0.00     0.291 C 
HETATM    5  O   LIG     1      42.585   3.046   1.031  1.00  0.00    -0.348 OA
HETATM    6  C   LIG     1      41.334   2.551   1.509  1.00  0.00     0.179 C 
ENDROOT
BRANCH   4   7
HETATM    7  O   LIG     1      44.349   4.509   1.256  1.00  0.00    -0.355 OA
BRANCH   7   8
HETATM    8  C   LIG     1      44.309   5.133  -0.022  1.00  0.00     0.198 C 
BRANCH   8   9
HETATM    9  C   LIG     1      45.621   5.793  -0.299  1.00  0.00    -0.005 C 
HETATM   10  C   LIG     1      46.133   5.846  -1.536  1.00  0.00    -0.029 C 
BRANCH  10  11
HETATM   11  C   LIG     1      47.430   6.514  -1.893  1.00  0.00     0.027 C 
BRANCH  11  12
HETATM   12  C   LIG     1      48.190   5.686  -2.935  1.00  0.00     0.004 C 
BRANCH  12  13
HETATM   13  C   LIG     1      49.604   6.214  -3.164  1.00  0.00     0.000 C 
BRANCH  13  14
HETATM   14  C   LIG     1      49.742   7.640  -2.630  1.00  0.00    -0.000 C 
BRANCH  14  15
HETATM   15  C   LIG     1      51.084   7.851  -1.933  1.00  0.00    -0.005 C 
HETATM   16  C   LIG     1      52.094   6.794  -2.347  1.00  0.00     0.005 C 
ENDBRANCH  14  15
ENDBRANCH  13  14
ENDBRANCH  12  13
ENDBRANCH  11  12
ENDBRANCH  10  11
ENDBRANCH   8   9
ENDBRANCH   7   8
ENDBRANCH   4   7
BRANCH   3  17
HETATM   17  O   LIG     1      42.502   6.587   2.092  1.00  0.00    -0.388 OA
HETATM   18  H   LIG     1      42.413   6.487   3.055  1.00  0.00     0.210 HD
ENDBRANCH   3  17
BRANCH   2  19
HETATM   19  O   LIG     1      39.686   5.953   1.703  1.00  0.00    -0.390 OA
HETATM   20  H   LIG     1      39.338   6.271   2.557  1.00  0.00     0.210 HD
ENDBRANCH   2  19
BRANCH   6  21
HETATM   21  C   LIG     1      41.012   1.281   0.701  1.00  0.00     0.198 C 
BRANCH  21  22
HETATM   22  O   LIG     1      42.073   0.339   0.632  1.00  0.00    -0.398 OA
HETATM   23  H   LIG     1      42.771   0.696   0.054  1.00  0.00     0.209 HD
ENDBRANCH  21  22
ENDBRANCH   6  21
BRANCH   1  24
HETATM   24  O   LIG     1      39.075   3.194   2.146  1.00  0.00    -0.390 OA
HETATM   25  H   LIG     1      38.510   2.701   1.516  1.00  0.00     0.210 HD
ENDBRANCH   1  24
TORSDOF 13
ENDMDL
MODEL 3
REMARK VINA RESULT:      -5.5      1.831      3.665
REMARK  13 active torsions:
REMARK  status: ('A' for Active; 'I' for Inactive)
REMARK    1  A    between atoms: C_1  and  O_21 
REMARK    2  A    between atoms: C_2  and  O_9 
REMARK    3  A    between atoms: C_3  and  O_10 
REMARK    4  A    between atoms: C_4  and  O_11 
REMARK    5  A    between atoms: C_6  and  C_7 
REMARK    6  A    between atoms: C_7  and  O_8 
REMARK    7  A    between atoms: O_11  and  C_12 
REMARK    8  A    between atoms: C_12  and  C_13 
REMARK    9  A    between atoms: C_14  and  C_15 
REMARK   10  A    between atoms: C_15  and  C_16 
REMARK   11  A    between atoms: C_16  and  C_17 
REMARK   12  A    between atoms: C_17  and  C_18 
REMARK   13  A    between atoms: C_18  and  C_19 
ROOT
HETATM    1  C   LIG     1      39.982   3.506   1.398  1.00  0.00     0.180 C 
HETATM    2  C   LIG     1      40.191   4.952   1.871  1.00  0.00     0.183 C 
HETATM    3  C   LIG     1      41.353   5.649   1.151  1.00  0.00     0.204 C 
HETATM    4  C   LIG     1      42.591   4.745   1.300  1.00  0.00     0.291 C 
HETATM    5  O   LIG     1      42.334   3.478   0.701  1.00  0.00    -0.348 OA
HETATM    6  C   LIG     1      41.312   2.735   1.364  1.00  0.00     0.179 C 
ENDROOT
BRANCH   4   7
HETATM    7  O   LIG     1      43.721   5.316   0.645  1.00  0.00    -0.355 OA
BRANCH   7   8
HETATM    8  C   LIG     1      44.815   5.459   1.544  1.00  0.00     0.198 C 
BRANCH   8   9
HETATM    9  C   LIG     1      45.013   6.906   1.865  1.00  0.00    -0.005 C 
HETATM   10  C   LIG     1      45.783   7.298   2.889  1.00  0.00    -0.029 C 
BRANCH  10  11
HETATM   11  C   LIG     1      46.049   8.730   3.256  1.00  0.00     0.027 C 
BRANCH  11  12
HETATM   12  C   LIG     1      46.096   8.893   4.779  1.00  0.00     0.004 C 
BRANCH  12  13
HETATM   13  C   LIG     1      46.426  10.325   5.191  1.00  0.00     0.000 C 
BRANCH  13  14
HETATM   14  C   LIG     1      45.163  11.064   5.636  1.00  0.00    -0.000 C 
BRANCH  14  15
HETATM   15  C   LIG     1      45.107  12.478   5.063  1.00  0.00    -0.005 C 
HETATM   16  C   LIG     1      44.354  12.511   3.744  1.00  0.00     0.005 C 
ENDBRANCH  14  15
ENDBRANCH  13  14
ENDBRANCH  12  13
ENDBRANCH  11  12
ENDBRANCH  10  11
ENDBRANCH   8   9
ENDBRANCH   7   8
ENDBRANCH   4   7
BRANCH   3  17
HETATM   17  O   LIG     1      41.573   6.954   1.707  1.00  0.00    -0.388 OA
HETATM   18  H   LIG     1      41.270   7.628   1.075  1.00  0.00     0.210 HD
ENDBRANCH   3  17
BRANCH   2  19
HETATM   19  O   LIG     1      38.957   5.674   1.741  1.00  0.00    -0.390 OA
HETATM   20  H   LIG     1      39.167   6.606   1.542  1.00  0.00     0.210 HD
ENDBRANCH   2  19
BRANCH   6  21
HETATM   21  C   LIG     1      41.188   1.387   0.630  1.00  0.00     0.198 C 
BRANCH  21  22
HETATM   22  O   LIG     1      41.615   1.408  -0.724  1.00  0.00    -0.398 OA
HETATM   23  H   LIG     1      41.059   0.794  -1.237  1.00  0.00     0.209 HD
ENDBRANCH  21  22
ENDBRANCH   6  21
BRANCH   1  24
HETATM   24  O   LIG     1      39.075   2.873   2.311  1.00  0.00    -0.390 OA
HETATM   25  H   LIG     1      39.597   2.676   3.116  1.00  0.00     0.210 HD
ENDBRANCH   1  24
TORSDOF 13
ENDMDL
MODEL 4
REMARK VINA RESULT:      -5.5      2.459      3.857
REMARK  13 active torsions:
REMARK  status: ('A' for Active; 'I' for Inactive)
REMARK    1  A    between atoms: C_1  and  O_21 
REMARK    2  A    between atoms: C_2  and  O_9 
REMARK    3  A    between atoms: C_3  and  O_10 
REMARK    4  A    between atoms: C_4  and  O_11 
REMARK    5  A    between atoms: C_6  and  C_7 
REMARK    6  A    between atoms: C_7  and  O_8 
REMARK    7  A    between atoms: O_11  and  C_12 
REMARK    8  A    between atoms: C_12  and  C_13 
REMARK    9  A    between atoms: C_14  and  C_15 
REMARK   10  A    between atoms: C_15  and  C_16 
REMARK   11  A    between atoms: C_16  and  C_17 
REMARK   12  A    between atoms: C_17  and  C_18 
REMARK   13  A    between atoms: C_18  and  C_19 
ROOT
HETATM    1  C   LIG     1      43.782   6.506   0.752  1.00  0.00     0.180 C 
HETATM    2  C   LIG     1      45.303   6.629   0.930  1.00  0.00     0.183 C 
HETATM    3  C   LIG     1      45.702   7.028   2.357  1.00  0.00     0.204 C 
HETATM    4  C   LIG     1      44.915   8.302   2.713  1.00  0.00     0.291 C 
HETATM    5  O   LIG     1      43.517   8.034   2.654  1.00  0.00    -0.348 OA
HETATM    6  C   LIG     1      43.053   7.727   1.339  1.00  0.00     0.179 C 
ENDROOT
BRANCH   4   7
HETATM    7  O   LIG     1      45.219   8.737   4.036  1.00  0.00    -0.355 OA
BRANCH   7   8
HETATM    8  C   LIG     1      45.570  10.116   4.053  1.00  0.00     0.198 C 
BRANCH   8   9
HETATM    9  C   LIG     1      46.650  10.346   5.061  1.00  0.00    -0.005 C 
HETATM   10  C   LIG     1      47.022  11.582   5.420  1.00  0.00    -0.029 C 
BRANCH  10  11
HETATM   11  C   LIG     1      48.079  11.890   6.442  1.00  0.00     0.027 C 
BRANCH  11  12
HETATM   12  C   LIG     1      49.053  10.716   6.577  1.00  0.00     0.004 C 
BRANCH  12  13
HETATM   13  C   LIG     1      49.848  10.779   7.879  1.00  0.00     0.000 C 
BRANCH  13  14
HETATM   14  C   LIG     1      49.345  11.919   8.765  1.00  0.00    -0.000 C 
BRANCH  14  15
HETATM   15  C   LIG     1      50.434  12.959   9.014  1.00  0.00    -0.005 C 
HETATM   16  C   LIG     1      50.405  13.458  10.450  1.00  0.00     0.005 C 
ENDBRANCH  14  15
ENDBRANCH  13  14
ENDBRANCH  12  13
ENDBRANCH  11  12
ENDBRANCH  10  11
ENDBRANCH   8   9
ENDBRANCH   7   8
ENDBRANCH   4   7
BRANCH   3  17
HETATM   17  O   LIG     1      47.121   7.234   2.438  1.00  0.00    -0.388 OA
HETATM   18  H   LIG     1      47.514   6.544   2.999  1.00  0.00     0.210 HD
ENDBRANCH   3  17
BRANCH   2  19
HETATM   19  O   LIG     1      45.926   5.406   0.510  1.00  0.00    -0.390 OA
HETATM   20  H   LIG     1      45.293   4.915  -0.046  1.00  0.00     0.210 HD
ENDBRANCH   2  19
BRANCH   6  21
HETATM   21  C   LIG     1      41.532   7.510   1.436  1.00  0.00     0.198 C 
BRANCH  21  22
HETATM   22  O   LIG     1      40.789   8.672   1.773  1.00  0.00    -0.398 OA
HETATM   23  H   LIG     1      41.411   9.379   2.024  1.00  0.00     0.209 HD
ENDBRANCH  21  22
ENDBRANCH   6  21
BRANCH   1  24
HETATM   24  O   LIG     1      43.512   6.406  -0.653  1.00  0.00    -0.390 OA
HETATM   25  H   LIG     1      42.835   5.704  -0.747  1.00  0.00     0.210 HD
ENDBRANCH   1  24
TORSDOF 13
ENDMDL
MODEL 5
REMARK VINA RESULT:      -5.4      2.629      4.871
REMARK  13 active torsions:
REMARK  status: ('A' for Active; 'I' for Inactive)
REMARK    1  A    between atoms: C_1  and  O_21 
REMARK    2  A    between atoms: C_2  and  O_9 
REMARK    3  A    between atoms: C_3  and  O_10 
REMARK    4  A    between atoms: C_4  and  O_11 
REMARK    5  A    between atoms: C_6  and  C_7 
REMARK    6  A    between atoms: C_7  and  O_8 
REMARK    7  A    between atoms: O_11  and  C_12 
REMARK    8  A    between atoms: C_12  and  C_13 
REMARK    9  A    between atoms: C_14  and  C_15 
REMARK   10  A    between atoms: C_15  and  C_16 
REMARK   11  A    between atoms: C_16  and  C_17 
REMARK   12  A    between atoms: C_17  and  C_18 
REMARK   13  A    between atoms: C_18  and  C_19 
ROOT
HETATM    1  C   LIG     1      40.263   3.656   1.459  1.00  0.00     0.180 C 
HETATM    2  C   LIG     1      40.747   5.007   2.007  1.00  0.00     0.183 C 
HETATM    3  C   LIG     1      42.114   5.419   1.444  1.00  0.00     0.204 C 
HETATM    4  C   LIG     1      43.082   4.247   1.693  1.00  0.00     0.291 C 
HETATM    5  O   LIG     1      42.609   3.083   1.022  1.00  0.00    -0.348 OA
HETATM    6  C   LIG     1      41.372   2.593   1.540  1.00  0.00     0.179 C 
ENDROOT
BRANCH   4   7
HETATM    7  O   LIG     1      44.382   4.543   1.187  1.00  0.00    -0.355 OA
BRANCH   7   8
HETATM    8  C   LIG     1      44.311   5.054  -0.139  1.00  0.00     0.198 C 
BRANCH   8   9
HETATM    9  C   LIG     1      45.461   5.975  -0.384  1.00  0.00    -0.005 C 
HETATM   10  C   LIG     1      45.293   7.167  -0.974  1.00  0.00    -0.029 C 
BRANCH  10  11
HETATM   11  C   LIG     1      46.395   8.155  -1.228  1.00  0.00     0.027 C 
BRANCH  11  12
HETATM   12  C   LIG     1      47.532   7.962  -0.220  1.00  0.00     0.004 C 
BRANCH  12  13
HETATM   13  C   LIG     1      47.299   8.755   1.064  1.00  0.00     0.000 C 
BRANCH  13  14
HETATM   14  C   LIG     1      47.404   7.845   2.288  1.00  0.00    -0.000 C 
BRANCH  14  15
HETATM   15  C   LIG     1      46.049   7.656   2.965  1.00  0.00    -0.005 C 
HETATM   16  C   LIG     1      45.124   8.829   2.689  1.00  0.00     0.005 C 
ENDBRANCH  14  15
ENDBRANCH  13  14
ENDBRANCH  12  13
ENDBRANCH  11  12
ENDBRANCH  10  11
ENDBRANCH   8   9
ENDBRANCH   7   8
ENDBRANCH   4   7
BRANCH   3  17
HETATM   17  O   LIG     1      42.566   6.629   2.070  1.00  0.00    -0.388 OA
HETATM   18  H   LIG     1      42.689   7.315   1.392  1.00  0.00     0.210 HD
ENDBRANCH   3  17
BRANCH   2  19
HETATM   19  O   LIG     1      39.738   6.000   1.770  1.00  0.00    -0.390 OA
HETATM   20  H   LIG     1      38.985   5.571   1.322  1.00  0.00     0.210 HD
ENDBRANCH   2  19
BRANCH   6  21
HETATM   21  C   LIG     1      41.023   1.321   0.747  1.00  0.00     0.198 C 
BRANCH  21  22
HETATM   22  O   LIG     1      42.070   0.365   0.671  1.00  0.00    -0.398 OA
HETATM   23  H   LIG     1      42.224   0.143  -0.265  1.00  0.00     0.209 HD
ENDBRANCH  21  22
ENDBRANCH   6  21
BRANCH   1  24
HETATM   24  O   LIG     1      39.135   3.244   2.243  1.00  0.00    -0.390 OA
HETATM   25  H   LIG     1      39.489   2.638   2.926  1.00  0.00     0.210 HD
ENDBRANCH   1  24
TORSDOF 13
ENDMDL
MODEL 6
REMARK VINA RESULT:      -5.4      3.300      5.347
REMARK  13 active torsions:
REMARK  status: ('A' for Active; 'I' for Inactive)
REMARK    1  A    between atoms: C_1  and  O_21 
REMARK    2  A    between atoms: C_2  and  O_9 
REMARK    3  A    between atoms: C_3  and  O_10 
REMARK    4  A    between atoms: C_4  and  O_11 
REMARK    5  A    between atoms: C_6  and  C_7 
REMARK    6  A    between atoms: C_7  and  O_8 
REMARK    7  A    between atoms: O_11  and  C_12 
REMARK    8  A    between atoms: C_12  and  C_13 
REMARK    9  A    between atoms: C_14  and  C_15 
REMARK   10  A    between atoms: C_15  and  C_16 
REMARK   11  A    between atoms: C_16  and  C_17 
REMARK   12  A    between atoms: C_17  and  C_18 
REMARK   13  A    between atoms: C_18  and  C_19 
ROOT
HETATM    1  C   LIG     1      40.306   3.445   1.408  1.00  0.00     0.180 C 
HETATM    2  C   LIG     1      40.724   4.827   1.935  1.00  0.00     0.183 C 
HETATM    3  C   LIG     1      42.144   5.220   1.506  1.00  0.00     0.204 C 
HETATM    4  C   LIG     1      43.082   4.071   1.919  1.00  0.00     0.291 C 
HETATM    5  O   LIG     1      42.688   2.870   1.261  1.00  0.00    -0.348 OA
HETATM    6  C   LIG     1      41.403   2.398   1.666  1.00  0.00     0.179 C 
ENDROOT
BRANCH   4   7
HETATM    7  O   LIG     1      44.428   4.352   1.544  1.00  0.00    -0.355 OA
BRANCH   7   8
HETATM    8  C   LIG     1      44.486   4.944   0.252  1.00  0.00     0.198 C 
BRANCH   8   9
HETATM    9  C   LIG     1      45.616   5.921   0.199  1.00  0.00    -0.005 C 
HETATM   10  C   LIG     1      46.017   6.590   1.288  1.00  0.00    -0.029 C 
BRANCH  10  11
HETATM   11  C   LIG     1      47.159   7.565   1.317  1.00  0.00     0.027 C 
BRANCH  11  12
HETATM   12  C   LIG     1      46.713   8.928   0.779  1.00  0.00     0.004 C 
BRANCH  12  13
HETATM   13  C   LIG     1      47.457   9.312  -0.497  1.00  0.00     0.000 C 
BRANCH  13  14
HETATM   14  C   LIG     1      48.842   8.662  -0.531  1.00  0.00    -0.000 C 
BRANCH  14  15
HETATM   15  C   LIG     1      49.156   8.081  -1.907  1.00  0.00    -0.005 C 
HETATM   16  C   LIG     1      48.076   7.112  -2.358  1.00  0.00     0.005 C 
ENDBRANCH  14  15
ENDBRANCH  13  14
ENDBRANCH  12  13
ENDBRANCH  11  12
ENDBRANCH  10  11
ENDBRANCH   8   9
ENDBRANCH   7   8
ENDBRANCH   4   7
BRANCH   3  17
HETATM   17  O   LIG     1      42.521   6.465   2.114  1.00  0.00    -0.388 OA
HETATM   18  H   LIG     1      42.500   6.369   3.082  1.00  0.00     0.210 HD
ENDBRANCH   3  17
BRANCH   2  19
HETATM   19  O   LIG     1      39.744   5.798   1.538  1.00  0.00    -0.390 OA
HETATM   20  H   LIG     1      38.863   5.382   1.588  1.00  0.00     0.210 HD
ENDBRANCH   2  19
BRANCH   6  21
HETATM   21  C   LIG     1      41.146   1.083   0.906  1.00  0.00     0.198 C 
BRANCH  21  22
HETATM   22  O   LIG     1      42.249   0.189   0.882  1.00  0.00    -0.398 OA
HETATM   23  H   LIG     1      41.913  -0.723   0.949  1.00  0.00     0.209 HD
ENDBRANCH  21  22
ENDBRANCH   6  21
BRANCH   1  24
HETATM   24  O   LIG     1      39.100   3.065   2.084  1.00  0.00    -0.390 OA
HETATM   25  H   LIG     1      38.463   2.822   1.381  1.00  0.00     0.210 HD
ENDBRANCH   1  24
TORSDOF 13
ENDMDL
MODEL 7
REMARK VINA RESULT:      -5.3      4.461      9.448
REMARK  13 active torsions:
REMARK  status: ('A' for Active; 'I' for Inactive)
REMARK    1  A    between atoms: C_1  and  O_21 
REMARK    2  A    between atoms: C_2  and  O_9 
REMARK    3  A    between atoms: C_3  and  O_10 
REMARK    4  A    between atoms: C_4  and  O_11 
REMARK    5  A    between atoms: C_6  and  C_7 
REMARK    6  A    between atoms: C_7  and  O_8 
REMARK    7  A    between atoms: O_11  and  C_12 
REMARK    8  A    between atoms: C_12  and  C_13 
REMARK    9  A    between atoms: C_14  and  C_15 
REMARK   10  A    between atoms: C_15  and  C_16 
REMARK   11  A    between atoms: C_16  and  C_17 
REMARK   12  A    between atoms: C_17  and  C_18 
REMARK   13  A    between atoms: C_18  and  C_19 
ROOT
HETATM    1  C   LIG     1      43.466   6.625   0.992  1.00  0.00     0.180 C 
HETATM    2  C   LIG     1      43.789   5.188   1.429  1.00  0.00     0.183 C 
HETATM    3  C   LIG     1      42.570   4.258   1.351  1.00  0.00     0.204 C 
HETATM    4  C   LIG     1      41.434   4.925   2.147  1.00  0.00     0.291 C 
HETATM    5  O   LIG     1      41.121   6.189   1.568  1.00  0.00    -0.348 OA
HETATM    6  C   LIG     1      42.183   7.137   1.669  1.00  0.00     0.179 C 
ENDROOT
BRANCH   4   7
HETATM    7  O   LIG     1      40.252   4.128   2.116  1.00  0.00    -0.355 OA
BRANCH   7   8
HETATM    8  C   LIG     1      39.545   4.309   0.896  1.00  0.00     0.198 C 
BRANCH   8   9
HETATM    9  C   LIG     1      39.412   2.997   0.193  1.00  0.00    -0.005 C 
HETATM   10  C   LIG     1      39.815   1.853   0.761  1.00  0.00    -0.029 C 
BRANCH  10  11
HETATM   11  C   LIG     1      39.691   0.496   0.129  1.00  0.00     0.027 C 
BRANCH  11  12
HETATM   12  C   LIG     1      39.924  -0.604   1.169  1.00  0.00     0.004 C 
BRANCH  12  13
HETATM   13  C   LIG     1      39.338  -1.943   0.728  1.00  0.00     0.000 C 
BRANCH  13  14
HETATM   14  C   LIG     1      38.982  -1.913  -0.759  1.00  0.00    -0.000 C 
BRANCH  14  15
HETATM   15  C   LIG     1      38.661  -3.309  -1.287  1.00  0.00    -0.005 C 
HETATM   16  C   LIG     1      39.841  -4.252  -1.112  1.00  0.00     0.005 C 
ENDBRANCH  14  15
ENDBRANCH  13  14
ENDBRANCH  12  13
ENDBRANCH  11  12
ENDBRANCH  10  11
ENDBRANCH   8   9
ENDBRANCH   7   8
ENDBRANCH   4   7
BRANCH   3  17
HETATM   17  O   LIG     1      42.900   2.961   1.873  1.00  0.00    -0.388 OA
HETATM   18  H   LIG     1      43.861   2.904   2.007  1.00  0.00     0.210 HD
ENDBRANCH   3  17
BRANCH   2  19
HETATM   19  O   LIG     1      44.898   4.700   0.661  1.00  0.00    -0.390 OA
HETATM   20  H   LIG     1      44.894   3.726   0.702  1.00  0.00     0.210 HD
ENDBRANCH   2  19
BRANCH   6  21
HETATM   21  C   LIG     1      41.676   8.450   1.045  1.00  0.00     0.198 C 
BRANCH  21  22
HETATM   22  O   LIG     1      41.560   9.533   1.957  1.00  0.00    -0.398 OA
HETATM   23  H   LIG     1      41.938   9.262   2.813  1.00  0.00     0.209 HD
ENDBRANCH  21  22
ENDBRANCH   6  21
BRANCH   1  24
HETATM   24  O   LIG     1      44.576   7.455   1.362  1.00  0.00    -0.390 OA
HETATM   25  H   LIG     1      44.189   8.292   1.690  1.00  0.00     0.210 HD
ENDBRANCH   1  24
TORSDOF 13
ENDMDL
MODEL 8
REMARK VINA RESULT:      -5.2      4.821      9.702
REMARK  13 active torsions:
REMARK  status: ('A' for Active; 'I' for Inactive)
REMARK    1  A    between atoms: C_1  and  O_21 
REMARK    2  A    between atoms: C_2  and  O_9 
REMARK    3  A    between atoms: C_3  and  O_10 
REMARK    4  A    between atoms: C_4  and  O_11 
REMARK    5  A    between atoms: C_6  and  C_7 
REMARK    6  A    between atoms: C_7  and  O_8 
REMARK    7  A    between atoms: O_11  and  C_12 
REMARK    8  A    between atoms: C_12  and  C_13 
REMARK    9  A    between atoms: C_14  and  C_15 
REMARK   10  A    between atoms: C_15  and  C_16 
REMARK   11  A    between atoms: C_16  and  C_17 
REMARK   12  A    between atoms: C_17  and  C_18 
REMARK   13  A    between atoms: C_18  and  C_19 
ROOT
HETATM    1  C   LIG     1      43.171   6.007   1.301  1.00  0.00     0.180 C 
HETATM    2  C   LIG     1      43.273   4.524   1.686  1.00  0.00     0.183 C 
HETATM    3  C   LIG     1      42.097   3.692   1.157  1.00  0.00     0.204 C 
HETATM    4  C   LIG     1      40.802   4.383   1.623  1.00  0.00     0.291 C 
HETATM    5  O   LIG     1      40.745   5.704   1.091  1.00  0.00    -0.348 OA
HETATM    6  C   LIG     1      41.767   6.563   1.596  1.00  0.00     0.179 C 
ENDROOT
BRANCH   4   7
HETATM    7  O   LIG     1      39.653   3.677   1.162  1.00  0.00    -0.355 OA
BRANCH   7   8
HETATM    8  C   LIG     1      38.727   4.560   0.539  1.00  0.00     0.198 C 
BRANCH   8   9
HETATM    9  C   LIG     1      38.271   3.973  -0.758  1.00  0.00    -0.005 C 
HETATM   10  C   LIG     1      38.878   2.908  -1.299  1.00  0.00    -0.029 C 
BRANCH  10  11
HETATM   11  C   LIG     1      38.460   2.249  -2.583  1.00  0.00     0.027 C 
BRANCH  11  12
HETATM   12  C   LIG     1      37.319   3.032  -3.240  1.00  0.00     0.004 C 
BRANCH  12  13
HETATM   13  C   LIG     1      36.197   2.114  -3.718  1.00  0.00     0.000 C 
BRANCH  13  14
HETATM   14  C   LIG     1      34.863   2.517  -3.087  1.00  0.00    -0.000 C 
BRANCH  14  15
HETATM   15  C   LIG     1      33.898   1.336  -3.011  1.00  0.00    -0.005 C 
HETATM   16  C   LIG     1      32.741   1.627  -2.069  1.00  0.00     0.005 C 
ENDBRANCH  14  15
ENDBRANCH  13  14
ENDBRANCH  12  13
ENDBRANCH  11  12
ENDBRANCH  10  11
ENDBRANCH   8   9
ENDBRANCH   7   8
ENDBRANCH   4   7
BRANCH   3  17
HETATM   17  O   LIG     1      42.186   2.342   1.637  1.00  0.00    -0.388 OA
HETATM   18  H   LIG     1      42.447   1.757   0.904  1.00  0.00     0.210 HD
ENDBRANCH   3  17
BRANCH   2  19
HETATM   19  O   LIG     1      44.542   4.012   1.253  1.00  0.00    -0.390 OA
HETATM   20  H   LIG     1      44.554   4.007   0.278  1.00  0.00     0.210 HD
ENDBRANCH   2  19
BRANCH   6  21
HETATM   21  C   LIG     1      41.542   7.949   0.966  1.00  0.00     0.198 C 
BRANCH  21  22
HETATM   22  O   LIG     1      40.754   8.834   1.748  1.00  0.00    -0.398 OA
HETATM   23  H   LIG     1      40.588   8.421   2.615  1.00  0.00     0.209 HD
ENDBRANCH  21  22
ENDBRANCH   6  21
BRANCH   1  24
HETATM   24  O   LIG     1      44.150   6.726   2.064  1.00  0.00    -0.390 OA
HETATM   25  H   LIG     1      43.994   6.483   3.000  1.00  0.00     0.210 HD
ENDBRANCH   1  24
TORSDOF 13
ENDMDL
MODEL 9
REMARK VINA RESULT:      -5.2      3.295      5.598
REMARK  13 active torsions:
REMARK  status: ('A' for Active; 'I' for Inactive)
REMARK    1  A    between atoms: C_1  and  O_21 
REMARK    2  A    between atoms: C_2  and  O_9 
REMARK    3  A    between atoms: C_3  and  O_10 
REMARK    4  A    between atoms: C_4  and  O_11 
REMARK    5  A    between atoms: C_6  and  C_7 
REMARK    6  A    between atoms: C_7  and  O_8 
REMARK    7  A    between atoms: O_11  and  C_12 
REMARK    8  A    between atoms: C_12  and  C_13 
REMARK    9  A    between atoms: C_14  and  C_15 
REMARK   10  A    between atoms: C_15  and  C_16 
REMARK   11  A    between atoms: C_16  and  C_17 
REMARK   12  A    between atoms: C_17  and  C_18 
REMARK   13  A    between atoms: C_18  and  C_19 
ROOT
HETATM    1  C   LIG     1      41.436   6.179   1.058  1.00  0.00     0.180 C 
HETATM    2  C   LIG     1      42.373   4.994   0.778  1.00  0.00     0.183 C 
HETATM    3  C   LIG     1      43.634   5.016   1.651  1.00  0.00     0.204 C 
HETATM    4  C   LIG     1      44.288   6.399   1.475  1.00  0.00     0.291 C 
HETATM    5  O   LIG     1      43.383   7.415   1.898  1.00  0.00    -0.348 OA
HETATM    6  C   LIG     1      42.213   7.507   1.085  1.00  0.00     0.179 C 
ENDROOT
BRANCH   4   7
HETATM    7  O   LIG     1      45.468   6.511   2.267  1.00  0.00    -0.355 OA
BRANCH   7   8
HETATM    8  C   LIG     1      46.490   7.211   1.567  1.00  0.00     0.198 C 
BRANCH   8   9
HETATM    9  C   LIG     1      46.322   7.003   0.097  1.00  0.00    -0.005 C 
HETATM   10  C   LIG     1      46.999   6.051  -0.559  1.00  0.00    -0.029 C 
BRANCH  10  11
HETATM   11  C   LIG     1      46.863   5.767  -2.028  1.00  0.00     0.027 C 
BRANCH  11  12
HETATM   12  C   LIG     1      47.699   6.757  -2.845  1.00  0.00     0.004 C 
BRANCH  12  13
HETATM   13  C   LIG     1      49.107   6.232  -3.114  1.00  0.00     0.000 C 
BRANCH  13  14
HETATM   14  C   LIG     1      50.158   7.260  -2.691  1.00  0.00    -0.000 C 
BRANCH  14  15
HETATM   15  C   LIG     1      51.575   6.727  -2.885  1.00  0.00    -0.005 C 
HETATM   16  C   LIG     1      52.414   6.918  -1.632  1.00  0.00     0.005 C 
ENDBRANCH  14  15
ENDBRANCH  13  14
ENDBRANCH  12  13
ENDBRANCH  11  12
ENDBRANCH  10  11
ENDBRANCH   8   9
ENDBRANCH   7   8
ENDBRANCH   4   7
BRANCH   3  17
HETATM   17  O   LIG     1      44.521   3.953   1.273  1.00  0.00    -0.388 OA
HETATM   18  H   LIG     1      44.069   3.100   1.393  1.00  0.00     0.210 HD
ENDBRANCH   3  17
BRANCH   2  19
HETATM   19  O   LIG     1      41.636   3.770   0.914  1.00  0.00    -0.390 OA
HETATM   20  H   LIG     1      41.507   3.594   1.865  1.00  0.00     0.210 HD
ENDBRANCH   2  19
BRANCH   6  21
HETATM   21  C   LIG     1      41.368   8.668   1.640  1.00  0.00     0.198 C 
BRANCH  21  22
HETATM   22  O   LIG     1      42.110   9.830   1.981  1.00  0.00    -0.398 OA
HETATM   23  H   LIG     1      42.009  10.485   1.268  1.00  0.00     0.209 HD
ENDBRANCH  21  22
ENDBRANCH   6  21
BRANCH   1  24
HETATM   24  O   LIG     1      40.450   6.214   0.017  1.00  0.00    -0.390 OA
HETATM   25  H   LIG     1      39.597   5.995   0.448  1.00  0.00     0.210 HD
ENDBRANCH   1  24
TORSDOF 13
ENDMDL
