MODEL 1
REMARK VINA RESULT:      -5.6      0.000      0.000
REMARK  11 active torsions:
REMARK  status: ('A' for Active; 'I' for Inactive)
REMARK    1  A    between atoms: C_1  and  O_19 
REMARK    2  A    between atoms: C_2  and  O_9 
REMARK    3  A    between atoms: C_3  and  O_10 
REMARK    4  A    between atoms: C_4  and  O_11 
REMARK    5  A    between atoms: C_6  and  C_7 
REMARK    6  A    between atoms: C_7  and  O_8 
REMARK    7  A    between atoms: O_11  and  C_12 
REMARK    8  A    between atoms: C_12  and  C_13 
REMARK    9  A    between atoms: C_14  and  C_15 
REMARK   10  A    between atoms: C_15  and  C_16 
REMARK   11  A    between atoms: C_16  and  C_17 
ROOT
HETATM    1  C   LIG     1      39.730   3.102   1.177  1.00  0.00     0.180 C 
HETATM    2  C   LIG     1      39.818   4.633   1.289  1.00  0.00     0.183 C 
HETATM    3  C   LIG     1      40.790   5.177   0.248  1.00  0.00     0.204 C 
HETATM    4  C   LIG     1      42.163   4.517   0.471  1.00  0.00     0.291 C 
HETATM    5  O   LIG     1      42.028   3.104   0.261  1.00  0.00    -0.348 OA
HETATM    6  C   LIG     1      41.135   2.458   1.184  1.00  0.00     0.179 C 
ENDROOT
BRANCH   4   7
HETATM    7  O   LIG     1      42.698   4.757   1.777  1.00  0.00    -0.355 OA
BRANCH   7   8
HETATM    8  C   LIG     1      44.121   4.833   1.763  1.00  0.00     0.198 C 
BRANCH   8   9
HETATM    9  C   LIG     1      44.533   6.258   1.548  1.00  0.00    -0.005 C 
HETATM   10  C   LIG     1      45.721   6.728   1.953  1.00  0.00    -0.029 C 
BRANCH  10  11
HETATM   11  C   LIG     1      46.175   8.153   1.805  1.00  0.00     0.027 C 
BRANCH  11  12
HETATM   12  C   LIG     1      45.561   9.035   2.897  1.00  0.00     0.003 C 
BRANCH  12  13
HETATM   13  C   LIG     1      45.871   8.511   4.298  1.00  0.00    -0.004 C 
HETATM   14  C   LIG     1      46.665   9.528   5.104  1.00  0.00     0.005 C 
ENDBRANCH  12  13
ENDBRANCH  11  12
ENDBRANCH  10  11
ENDBRANCH   8   9
ENDBRANCH   7   8
ENDBRANCH   4   7
BRANCH   3  15
HETATM   15  O   LIG     1      40.818   6.606   0.311  1.00  0.00    -0.388 OA
HETATM   16  H   LIG     1      40.433   6.830   1.185  1.00  0.00     0.210 HD
ENDBRANCH   3  15
BRANCH   2  17
HETATM   17  O   LIG     1      38.545   5.270   1.079  1.00  0.00    -0.390 OA
HETATM   18  H   LIG     1      38.052   4.744   0.421  1.00  0.00     0.210 HD
ENDBRANCH   2  17
BRANCH   6  19
HETATM   19  C   LIG     1      41.092   0.971   0.779  1.00  0.00     0.198 C 
BRANCH  19  20
HETATM   20  O   LIG     1      42.348   0.314   0.858  1.00  0.00    -0.398 OA
HETATM   21  H   LIG     1      42.187  -0.640   0.949  1.00  0.00     0.209 HD
ENDBRANCH  19  20
ENDBRANCH   6  19
BRANCH   1  22
HETATM   22  O   LIG     1      38.892   2.615   2.229  1.00  0.00    -0.390 OA
HETATM   23  H   LIG     1      39.397   2.621   3.061  1.00  0.00     0.210 HD
ENDBRANCH   1  22
TORSDOF 11
ENDMDL
MODEL 2
REMARK VINA RESULT:      -5.4      3.029      5.004
REMARK  11 active torsions:
REMARK  status: ('A' for Active; 'I' for Inactive)
REMARK    1  A    between atoms: C_1  and  O_19 
REMARK    2  A    between atoms: C_2  and  O_9 
REMARK    3  A    between atoms: C_3  and  O_10 
REMARK    4  A    between atoms: C_4  and  O_11 
REMARK    5  A    between atoms: C_6  and  C_7 
REMARK    6  A    between atoms: C_7  and  O_8 
REMARK    7  A    between atoms: O_11  and  C_12 
REMARK    8  A    between atoms: C_12  and  C_13 
REMARK    9  A    between atoms: C_14  and  C_15 
REMARK   10  A    between atoms: C_15  and  C_16 
REMARK   11  A    between atoms: C_16  and  C_17 
ROOT
HETATM    1  C   LIG     1      42.683   6.773   1.314  1.00  0.00     0.180 C 
HETATM    2  C   LIG     1      42.273   8.171   1.804  1.00  0.00     0.183 C 
HETATM    3  C   LIG     1      43.242   9.218   1.264  1.00  0.00     0.204 C 
HETATM    4  C   LIG     1      44.663   8.853   1.730  1.00  0.00     0.291 C 
HETATM    5  O   LIG     1      45.016   7.583   1.164  1.00  0.00    -0.348 OA
HETATM    6  C   LIG     1      44.177   6.497   1.594  1.00  0.00     0.179 C 
ENDROOT
BRANCH   4   7
HETATM    7  O   LIG     1      44.790   8.792   3.156  1.00  0.00    -0.355 OA
BRANCH   7   8
HETATM    8  C   LIG     1      45.396   9.968   3.686  1.00  0.00     0.198 C 
BRANCH   8   9
HETATM    9  C   LIG     1      46.721   9.608   4.287  1.00  0.00    -0.005 C 
HETATM   10  C   LIG     1      47.187  10.198   5.397  1.00  0.00    -0.029 C 
BRANCH  10  11
HETATM   11  C   LIG     1      48.523   9.912   6.023  1.00  0.00     0.027 C 
BRANCH  11  12
HETATM   12  C   LIG     1      49.294  11.212   6.277  1.00  0.00     0.003 C 
BRANCH  12  13
HETATM   13  C   LIG     1      50.222  11.100   7.484  1.00  0.00    -0.004 C 
HETATM   14  C   LIG     1      49.625  11.785   8.704  1.00  0.00     0.005 C 
ENDBRANCH  12  13
ENDBRANCH  11  12
ENDBRANCH  10  11
ENDBRANCH   8   9
ENDBRANCH   7   8
ENDBRANCH   4   7
BRANCH   3  15
HETATM   15  O   LIG     1      42.817  10.524   1.667  1.00  0.00    -0.388 OA
HETATM   16  H   LIG     1      43.271  10.687   2.521  1.00  0.00     0.210 HD
ENDBRANCH   3  15
BRANCH   2  17
HETATM   17  O   LIG     1      40.948   8.534   1.374  1.00  0.00    -0.390 OA
HETATM   18  H   LIG     1      40.892   9.509   1.370  1.00  0.00     0.210 HD
ENDBRANCH   2  17
BRANCH   6  19
HETATM   19  C   LIG     1      44.682   5.240   0.858  1.00  0.00     0.198 C 
BRANCH  19  20
HETATM   20  O   LIG     1      44.421   4.025   1.542  1.00  0.00    -0.398 OA
HETATM   21  H   LIG     1      45.039   3.351   1.214  1.00  0.00     0.209 HD
ENDBRANCH  19  20
ENDBRANCH   6  19
BRANCH   1  22
HETATM   22  O   LIG     1      41.818   5.806   1.917  1.00  0.00    -0.390 OA
HETATM   23  H   LIG     1      41.493   5.203   1.226  1.00  0.00     0.210 HD
ENDBRANCH   1  22
TORSDOF 11
ENDMDL
MODEL 3
REMARK VINA RESULT:      -5.3     10.256     12.669
REMARK  11 active torsions:
REMARK  status: ('A' for Active; 'I' for Inactive)
REMARK    1  A    between atoms: C_1  and  O_19 
REMARK    2  A    between atoms: C_2  and  O_9 
REMARK    3  A    between atoms: C_3  and  O_10 
REMARK    4  A    between atoms: C_4  and  O_11 
REMARK    5  A    between atoms: C_6  and  C_7 
REMARK    6  A    between atoms: C_7  and  O_8 
REMARK    7  A    between atoms: O_11  and  C_12 
REMARK    8  A    between atoms: C_12  and  C_13 
REMARK    9  A    between atoms: C_14  and  C_15 
REMARK   10  A    between atoms: C_15  and  C_16 
REMARK   11  A    between atoms: C_16  and  C_17 
ROOT
HETATM    1  C   LIG     1      51.721  12.289   7.395  1.00  0.00     0.180 C 
HETATM    2  C   LIG     1      50.710  13.324   7.914  1.00  0.00     0.183 C 
HETATM    3  C   LIG     1      49.489  12.617   8.491  1.00  0.00     0.204 C 
HETATM    4  C   LIG     1      48.873  11.732   7.392  1.00  0.00     0.291 C 
HETATM    5  O   LIG     1      49.834  10.733   7.021  1.00  0.00    -0.348 OA
HETATM    6  C   LIG     1      51.044  11.267   6.455  1.00  0.00     0.179 C 
ENDROOT
BRANCH   4   7
HETATM    7  O   LIG     1      48.479  12.470   6.229  1.00  0.00    -0.355 OA
BRANCH   7   8
HETATM    8  C   LIG     1      47.188  12.081   5.766  1.00  0.00     0.198 C 
BRANCH   8   9
HETATM    9  C   LIG     1      46.162  12.477   6.786  1.00  0.00    -0.005 C 
HETATM   10  C   LIG     1      46.010  13.746   7.191  1.00  0.00    -0.029 C 
BRANCH  10  11
HETATM   11  C   LIG     1      45.032  14.200   8.238  1.00  0.00     0.027 C 
BRANCH  11  12
HETATM   12  C   LIG     1      44.652  13.041   9.167  1.00  0.00     0.003 C 
BRANCH  12  13
HETATM   13  C   LIG     1      43.227  12.552   8.918  1.00  0.00    -0.004 C 
HETATM   14  C   LIG     1      43.212  11.096   8.479  1.00  0.00     0.005 C 
ENDBRANCH  12  13
ENDBRANCH  11  12
ENDBRANCH  10  11
ENDBRANCH   8   9
ENDBRANCH   7   8
ENDBRANCH   4   7
BRANCH   3  15
HETATM   15  O   LIG     1      48.581  13.583   9.032  1.00  0.00    -0.388 OA
HETATM   16  H   LIG     1      48.827  14.431   8.606  1.00  0.00     0.210 HD
ENDBRANCH   3  15
BRANCH   2  17
HETATM   17  O   LIG     1      51.264  14.160   8.947  1.00  0.00    -0.390 OA
HETATM   18  H   LIG     1      50.652  14.141   9.707  1.00  0.00     0.210 HD
ENDBRANCH   2  17
BRANCH   6  19
HETATM   19  C   LIG     1      51.955  10.058   6.161  1.00  0.00     0.198 C 
BRANCH  19  20
HETATM   20  O   LIG     1      53.319  10.269   6.489  1.00  0.00    -0.398 OA
HETATM   21  H   LIG     1      53.570  11.159   6.191  1.00  0.00     0.209 HD
ENDBRANCH  19  20
ENDBRANCH   6  19
BRANCH   1  22
HETATM   22  O   LIG     1      52.806  12.982   6.771  1.00  0.00    -0.390 OA
HETATM   23  H   LIG     1      52.643  13.940   6.834  1.00  0.00     0.210 HD
ENDBRANCH   1  22
TORSDOF 11
ENDMDL
MODEL 4
REMARK VINA RESULT:      -5.3      1.559      2.466
REMARK  11 active torsions:
REMARK  status: ('A' for Active; 'I' for Inactive)
REMARK    1  A    between atoms: C_1  and  O_19 
REMARK    2  A    between atoms: C_2  and  O_9 
REMARK    3  A    between atoms: C_3  and  O_10 
REMARK    4  A    between atoms: C_4  and  O_11 
REMARK    5  A    between atoms: C_6  and  C_7 
REMARK    6  A    between atoms: C_7  and  O_8 
REMARK    7  A    between atoms: O_11  and  C_12 
REMARK    8  A    between atoms: C_12  and  C_13 
REMARK    9  A    between atoms: C_14  and  C_15 
REMARK   10  A    between atoms: C_15  and  C_16 
REMARK   11  A    between atoms: C_16  and  C_17 
ROOT
HETATM    1  C   LIG     1      39.782   3.090   1.160  1.00  0.00     0.180 C 
HETATM    2  C   LIG     1      39.892   4.612   1.346  1.00  0.00     0.183 C 
HETATM    3  C   LIG     1      40.849   5.196   0.312  1.00  0.00     0.204 C 
HETATM    4  C   LIG     1      42.217   4.509   0.472  1.00  0.00     0.291 C 
HETATM    5  O   LIG     1      42.060   3.110   0.196  1.00  0.00    -0.348 OA
HETATM    6  C   LIG     1      41.178   2.430   1.105  1.00  0.00     0.179 C 
ENDROOT
BRANCH   4   7
HETATM    7  O   LIG     1      42.783   4.677   1.777  1.00  0.00    -0.355 OA
BRANCH   7   8
HETATM    8  C   LIG     1      44.204   4.771   1.732  1.00  0.00     0.198 C 
BRANCH   8   9
HETATM    9  C   LIG     1      44.589   6.050   1.050  1.00  0.00    -0.005 C 
HETATM   10  C   LIG     1      44.534   7.236   1.672  1.00  0.00    -0.029 C 
BRANCH  10  11
HETATM   11  C   LIG     1      44.863   8.555   1.032  1.00  0.00     0.027 C 
BRANCH  11  12
HETATM   12  C   LIG     1      43.668   9.087   0.233  1.00  0.00     0.003 C 
BRANCH  12  13
HETATM   13  C   LIG     1      43.919   9.037  -1.273  1.00  0.00    -0.004 C 
HETATM   14  C   LIG     1      43.052   7.981  -1.941  1.00  0.00     0.005 C 
ENDBRANCH  12  13
ENDBRANCH  11  12
ENDBRANCH  10  11
ENDBRANCH   8   9
ENDBRANCH   7   8
ENDBRANCH   4   7
BRANCH   3  15
HETATM   15  O   LIG     1      40.896   6.620   0.446  1.00  0.00    -0.388 OA
HETATM   16  H   LIG     1      40.042   6.865   0.860  1.00  0.00     0.210 HD
ENDBRANCH   3  15
BRANCH   2  17
HETATM   17  O   LIG     1      38.623   5.274   1.195  1.00  0.00    -0.390 OA
HETATM   18  H   LIG     1      38.570   5.976   1.871  1.00  0.00     0.210 HD
ENDBRANCH   2  17
BRANCH   6  19
HETATM   19  C   LIG     1      41.108   0.965   0.628  1.00  0.00     0.198 C 
BRANCH  19  20
HETATM   20  O   LIG     1      42.291   0.220   0.871  1.00  0.00    -0.398 OA
HETATM   21  H   LIG     1      42.036  -0.647   1.227  1.00  0.00     0.209 HD
ENDBRANCH  19  20
ENDBRANCH   6  19
BRANCH   1  22
HETATM   22  O   LIG     1      38.960   2.560   2.204  1.00  0.00    -0.390 OA
HETATM   23  H   LIG     1      38.956   3.188   2.949  1.00  0.00     0.210 HD
ENDBRANCH   1  22
TORSDOF 11
ENDMDL
MODEL 5
REMARK VINA RESULT:      -5.3      3.990      6.012
REMARK  11 active torsions:
REMARK  status: ('A' for Active; 'I' for Inactive)
REMARK    1  A    between atoms: C_1  and  O_19 
REMARK    2  A    between atoms: C_2  and  O_9 
REMARK    3  A    between atoms: C_3  and  O_10 
REMARK    4  A    between atoms: C_4  and  O_11 
REMARK    5  A    between atoms: C_6  and  C_7 
REMARK    6  A    between atoms: C_7  and  O_8 
REMARK    7  A    between atoms: O_11  and  C_12 
REMARK    8  A    between atoms: C_12  and  C_13 
REMARK    9  A    between atoms: C_14  and  C_15 
REMARK   10  A    between atoms: C_15  and  C_16 
REMARK   11  A    between atoms: C_16  and  C_17 
ROOT
HETATM    1  C   LIG     1      42.321   7.086   1.613  1.00  0.00     0.180 C 
HETATM    2  C   LIG     1      42.691   5.616   1.357  1.00  0.00     0.183 C 
HETATM    3  C   LIG     1      44.201   5.432   1.467  1.00  0.00     0.204 C 
HETATM    4  C   LIG     1      44.882   6.368   0.452  1.00  0.00     0.291 C 
HETATM    5  O   LIG     1      44.570   7.724   0.803  1.00  0.00    -0.348 OA
HETATM    6  C   LIG     1      43.168   8.038   0.739  1.00  0.00     0.179 C 
ENDROOT
BRANCH   4   7
HETATM    7  O   LIG     1      44.479   6.121  -0.900  1.00  0.00    -0.355 OA
BRANCH   7   8
HETATM    8  C   LIG     1      45.459   5.375  -1.618  1.00  0.00     0.198 C 
BRANCH   8   9
HETATM    9  C   LIG     1      46.417   6.325  -2.271  1.00  0.00    -0.005 C 
HETATM   10  C   LIG     1      47.722   6.048  -2.402  1.00  0.00    -0.029 C 
BRANCH  10  11
HETATM   11  C   LIG     1      48.738   6.975  -3.007  1.00  0.00     0.027 C 
BRANCH  11  12
HETATM   12  C   LIG     1      50.088   6.268  -3.175  1.00  0.00     0.003 C 
BRANCH  12  13
HETATM   13  C   LIG     1      51.259   7.245  -3.095  1.00  0.00    -0.004 C 
HETATM   14  C   LIG     1      52.243   6.838  -2.008  1.00  0.00     0.005 C 
ENDBRANCH  12  13
ENDBRANCH  11  12
ENDBRANCH  10  11
ENDBRANCH   8   9
ENDBRANCH   7   8
ENDBRANCH   4   7
BRANCH   3  15
HETATM   15  O   LIG     1      44.534   4.051   1.294  1.00  0.00    -0.388 OA
HETATM   16  H   LIG     1      45.200   3.861   1.988  1.00  0.00     0.210 HD
ENDBRANCH   3  15
BRANCH   2  17
HETATM   17  O   LIG     1      42.069   4.724   2.299  1.00  0.00    -0.390 OA
HETATM   18  H   LIG     1      41.323   5.198   2.713  1.00  0.00     0.210 HD
ENDBRANCH   2  17
BRANCH   6  19
HETATM   19  C   LIG     1      43.032   9.508   1.183  1.00  0.00     0.198 C 
BRANCH  19  20
HETATM   20  O   LIG     1      41.881   9.770   1.971  1.00  0.00    -0.398 OA
HETATM   21  H   LIG     1      42.120  10.420   2.652  1.00  0.00     0.209 HD
ENDBRANCH  19  20
ENDBRANCH   6  19
BRANCH   1  22
HETATM   22  O   LIG     1      40.915   7.246   1.404  1.00  0.00    -0.390 OA
HETATM   23  H   LIG     1      40.637   8.099   1.782  1.00  0.00     0.210 HD
ENDBRANCH   1  22
TORSDOF 11
ENDMDL
MODEL 6
REMARK VINA RESULT:      -5.3     16.112     17.996
REMARK  11 active torsions:
REMARK  status: ('A' for Active; 'I' for Inactive)
REMARK    1  A    between atoms: C_1  and  O_19 
REMARK    2  A    between atoms: C_2  and  O_9 
REMARK    3  A    between atoms: C_3  and  O_10 
REMARK    4  A    between atoms: C_4  and  O_11 
REMARK    5  A    between atoms: C_6  and  C_7 
REMARK    6  A    between atoms: C_7  and  O_8 
REMARK    7  A    between atoms: O_11  and  C_12 
REMARK    8  A    between atoms: C_12  and  C_13 
REMARK    9  A    between atoms: C_14  and  C_15 
REMARK   10  A    between atoms: C_15  and  C_16 
REMARK   11  A    between atoms: C_16  and  C_17 
ROOT
HETATM    1  C   LIG     1      27.410  16.236   0.727  1.00  0.00     0.180 C 
HETATM    2  C   LIG     1      28.644  15.439   1.179  1.00  0.00     0.183 C 
HETATM    3  C   LIG     1      29.123  15.944   2.535  1.00  0.00     0.204 C 
HETATM    4  C   LIG     1      29.437  17.446   2.412  1.00  0.00     0.291 C 
HETATM    5  O   LIG     1      28.226  18.140   2.079  1.00  0.00    -0.348 OA
HETATM    6  C   LIG     1      27.663  17.757   0.813  1.00  0.00     0.179 C 
ENDROOT
BRANCH   4   7
HETATM    7  O   LIG     1      30.438  17.733   1.428  1.00  0.00    -0.355 OA
BRANCH   7   8
HETATM    8  C   LIG     1      31.108  18.962   1.695  1.00  0.00     0.198 C 
BRANCH   8   9
HETATM    9  C   LIG     1      31.647  18.932   3.094  1.00  0.00    -0.005 C 
HETATM   10  C   LIG     1      32.868  19.393   3.401  1.00  0.00    -0.029 C 
BRANCH  10  11
HETATM   11  C   LIG     1      33.480  19.352   4.772  1.00  0.00     0.027 C 
BRANCH  11  12
HETATM   12  C   LIG     1      34.541  20.447   4.928  1.00  0.00     0.003 C 
BRANCH  12  13
HETATM   13  C   LIG     1      35.958  19.889   4.815  1.00  0.00    -0.004 C 
HETATM   14  C   LIG     1      36.448  19.916   3.375  1.00  0.00     0.005 C 
ENDBRANCH  12  13
ENDBRANCH  11  12
ENDBRANCH  10  11
ENDBRANCH   8   9
ENDBRANCH   7   8
ENDBRANCH   4   7
BRANCH   3  15
HETATM   15  O   LIG     1      30.230  15.155   2.982  1.00  0.00    -0.388 OA
HETATM   16  H   LIG     1      30.917  15.267   2.293  1.00  0.00     0.210 HD
ENDBRANCH   3  15
BRANCH   2  17
HETATM   17  O   LIG     1      28.369  14.031   1.305  1.00  0.00    -0.390 OA
HETATM   18  H   LIG     1      27.795  13.770   0.561  1.00  0.00     0.210 HD
ENDBRANCH   2  17
BRANCH   6  19
HETATM   19  C   LIG     1      26.363  18.571   0.652  1.00  0.00     0.198 C 
BRANCH  19  20
HETATM   20  O   LIG     1      25.179  17.795   0.748  1.00  0.00    -0.398 OA
HETATM   21  H   LIG     1      25.313  16.972   0.249  1.00  0.00     0.209 HD
ENDBRANCH  19  20
ENDBRANCH   6  19
BRANCH   1  22
HETATM   22  O   LIG     1      27.046  15.808  -0.589  1.00  0.00    -0.390 OA
HETATM   23  H   LIG     1      27.851  15.531  -1.062  1.00  0.00     0.210 HD
ENDBRANCH   1  22
TORSDOF 11
ENDMDL
MODEL 7
REMARK VINA RESULT:      -5.3     24.721     27.482
REMARK  11 active torsions:
REMARK  status: ('A' for Active; 'I' for Inactive)
REMARK    1  A    between atoms: C_1  and  O_19 
REMARK    2  A    between atoms: C_2  and  O_9 
REMARK    3  A    between atoms: C_3  and  O_10 
REMARK    4  A    between atoms: C_4  and  O_11 
REMARK    5  A    between atoms: C_6  and  C_7 
REMARK    6  A    between atoms: C_7  and  O_8 
REMARK    7  A    between atoms: O_11  and  C_12 
REMARK    8  A    between atoms: C_12  and  C_13 
REMARK    9  A    between atoms: C_14  and  C_15 
REMARK   10  A    between atoms: C_15  and  C_16 
REMARK   11  A    between atoms: C_16  and  C_17 
ROOT
HETATM    1  C   LIG     1      42.644  26.878  20.594  1.00  0.00     0.180 C 
HETATM    2  C   LIG     1      43.240  25.470  20.434  1.00  0.00     0.183 C 
HETATM    3  C   LIG     1      44.709  25.567  20.039  1.00  0.00     0.204 C 
HETATM    4  C   LIG     1      44.809  26.372  18.730  1.00  0.00     0.291 C 
HETATM    5  O   LIG     1      44.324  27.700  18.973  1.00  0.00    -0.348 OA
HETATM    6  C   LIG     1      42.939  27.755  19.356  1.00  0.00     0.179 C 
ENDROOT
BRANCH   4   7
HETATM    7  O   LIG     1      44.074  25.785  17.650  1.00  0.00    -0.355 OA
BRANCH   7   8
HETATM    8  C   LIG     1      44.441  26.344  16.392  1.00  0.00     0.198 C 
BRANCH   8   9
HETATM    9  C   LIG     1      45.858  25.966  16.082  1.00  0.00    -0.005 C 
HETATM   10  C   LIG     1      46.735  26.839  15.567  1.00  0.00    -0.029 C 
BRANCH  10  11
HETATM   11  C   LIG     1      48.154  26.511  15.196  1.00  0.00     0.027 C 
BRANCH  11  12
HETATM   12  C   LIG     1      48.269  25.059  14.718  1.00  0.00     0.003 C 
BRANCH  12  13
HETATM   13  C   LIG     1      49.316  24.278  15.509  1.00  0.00    -0.004 C 
HETATM   14  C   LIG     1      50.125  23.364  14.601  1.00  0.00     0.005 C 
ENDBRANCH  12  13
ENDBRANCH  11  12
ENDBRANCH  10  11
ENDBRANCH   8   9
ENDBRANCH   7   8
ENDBRANCH   4   7
BRANCH   3  15
HETATM   15  O   LIG     1      45.276  24.256  19.957  1.00  0.00    -0.388 OA
HETATM   16  H   LIG     1      44.791  23.726  20.624  1.00  0.00     0.210 HD
ENDBRANCH   3  15
BRANCH   2  17
HETATM   17  O   LIG     1      43.161  24.703  21.649  1.00  0.00    -0.390 OA
HETATM   18  H   LIG     1      42.227  24.684  21.931  1.00  0.00     0.210 HD
ENDBRANCH   2  17
BRANCH   6  19
HETATM   19  C   LIG     1      42.617  29.241  19.608  1.00  0.00     0.198 C 
BRANCH  19  20
HETATM   20  O   LIG     1      41.238  29.508  19.810  1.00  0.00    -0.398 OA
HETATM   21  H   LIG     1      41.001  29.227  20.709  1.00  0.00     0.209 HD
ENDBRANCH  19  20
ENDBRANCH   6  19
BRANCH   1  22
HETATM   22  O   LIG     1      41.245  26.755  20.865  1.00  0.00    -0.390 OA
HETATM   23  H   LIG     1      40.891  26.009  20.349  1.00  0.00     0.210 HD
ENDBRANCH   1  22
TORSDOF 11
ENDMDL
MODEL 8
REMARK VINA RESULT:      -5.3      6.492      8.843
REMARK  11 active torsions:
REMARK  status: ('A' for Active; 'I' for Inactive)
REMARK    1  A    between atoms: C_1  and  O_19 
REMARK    2  A    between atoms: C_2  and  O_9 
REMARK    3  A    between atoms: C_3  and  O_10 
REMARK    4  A    between atoms: C_4  and  O_11 
REMARK    5  A    between atoms: C_6  and  C_7 
REMARK    6  A    between atoms: C_7  and  O_8 
REMARK    7  A    between atoms: O_11  and  C_12 
REMARK    8  A    between atoms: C_12  and  C_13 
REMARK    9  A    between atoms: C_14  and  C_15 
REMARK   10  A    between atoms: C_15  and  C_16 
REMARK   11  A    between atoms: C_16  and  C_17 
ROOT
HETATM    1  C   LIG     1      44.273  11.862   4.004  1.00  0.00     0.180 C 
HETATM    2  C   LIG     1      44.700  11.259   2.656  1.00  0.00     0.183 C 
HETATM    3  C   LIG     1      45.097   9.798   2.841  1.00  0.00     0.204 C 
HETATM    4  C   LIG     1      46.237   9.730   3.873  1.00  0.00     0.291 C 
HETATM    5  O   LIG     1      45.745  10.221   5.128  1.00  0.00    -0.348 OA
HETATM    6  C   LIG     1      45.333  11.599   5.096  1.00  0.00     0.179 C 
ENDROOT
BRANCH   4   7
HETATM    7  O   LIG     1      47.393  10.483   3.487  1.00  0.00    -0.355 OA
BRANCH   7   8
HETATM    8  C   LIG     1      48.557  10.071   4.198  1.00  0.00     0.198 C 
BRANCH   8   9
HETATM    9  C   LIG     1      49.080  11.228   4.994  1.00  0.00    -0.005 C 
HETATM   10  C   LIG     1      49.178  11.192   6.330  1.00  0.00    -0.029 C 
BRANCH  10  11
HETATM   11  C   LIG     1      49.652  12.332   7.186  1.00  0.00     0.027 C 
BRANCH  11  12
HETATM   12  C   LIG     1      49.703  11.921   8.662  1.00  0.00     0.003 C 
BRANCH  12  13
HETATM   13  C   LIG     1      48.934  12.892   9.553  1.00  0.00    -0.004 C 
HETATM   14  C   LIG     1      49.851  13.548  10.575  1.00  0.00     0.005 C 
ENDBRANCH  12  13
ENDBRANCH  11  12
ENDBRANCH  10  11
ENDBRANCH   8   9
ENDBRANCH   7   8
ENDBRANCH   4   7
BRANCH   3  15
HETATM   15  O   LIG     1      45.429   9.223   1.573  1.00  0.00    -0.388 OA
HETATM   16  H   LIG     1      45.376   8.254   1.711  1.00  0.00     0.210 HD
ENDBRANCH   3  15
BRANCH   2  17
HETATM   17  O   LIG     1      43.645  11.307   1.677  1.00  0.00    -0.390 OA
HETATM   18  H   LIG     1      43.196  12.169   1.764  1.00  0.00     0.210 HD
ENDBRANCH   2  17
BRANCH   6  19
HETATM   19  C   LIG     1      44.806  11.927   6.507  1.00  0.00     0.198 C 
BRANCH  19  20
HETATM   20  O   LIG     1      43.811  11.030   6.976  1.00  0.00    -0.398 OA
HETATM   21  H   LIG     1      43.900  10.194   6.489  1.00  0.00     0.209 HD
ENDBRANCH  19  20
ENDBRANCH   6  19
BRANCH   1  22
HETATM   22  O   LIG     1      44.003  13.254   3.816  1.00  0.00    -0.390 OA
HETATM   23  H   LIG     1      43.132  13.459   4.199  1.00  0.00     0.210 HD
ENDBRANCH   1  22
TORSDOF 11
ENDMDL
MODEL 9
REMARK VINA RESULT:      -5.3      2.800      7.146
REMARK  11 active torsions:
REMARK  status: ('A' for Active; 'I' for Inactive)
REMARK    1  A    between atoms: C_1  and  O_19 
REMARK    2  A    between atoms: C_2  and  O_9 
REMARK    3  A    between atoms: C_3  and  O_10 
REMARK    4  A    between atoms: C_4  and  O_11 
REMARK    5  A    between atoms: C_6  and  C_7 
REMARK    6  A    between atoms: C_7  and  O_8 
REMARK    7  A    between atoms: O_11  and  C_12 
REMARK    8  A    between atoms: C_12  and  C_13 
REMARK    9  A    between atoms: C_14  and  C_15 
REMARK   10  A    between atoms: C_15  and  C_16 
REMARK   11  A    between atoms: C_16  and  C_17 
ROOT
HETATM    1  C   LIG     1      41.511   5.579   1.538  1.00  0.00     0.180 C 
HETATM    2  C   LIG     1      40.042   5.172   1.347  1.00  0.00     0.183 C 
HETATM    3  C   LIG     1      39.903   3.657   1.450  1.00  0.00     0.204 C 
HETATM    4  C   LIG     1      40.809   3.011   0.386  1.00  0.00     0.291 C 
HETATM    5  O   LIG     1      42.171   3.355   0.678  1.00  0.00    -0.348 OA
HETATM    6  C   LIG     1      42.444   4.766   0.613  1.00  0.00     0.179 C 
ENDROOT
BRANCH   4   7
HETATM    7  O   LIG     1      40.488   3.418  -0.949  1.00  0.00    -0.355 OA
BRANCH   7   8
HETATM    8  C   LIG     1      40.760   2.389  -1.897  1.00  0.00     0.198 C 
BRANCH   8   9
HETATM    9  C   LIG     1      40.628   1.056  -1.225  1.00  0.00    -0.005 C 
HETATM   10  C   LIG     1      39.805   0.102  -1.684  1.00  0.00    -0.029 C 
BRANCH  10  11
HETATM   11  C   LIG     1      39.596  -1.236  -1.033  1.00  0.00     0.027 C 
BRANCH  11  12
HETATM   12  C   LIG     1      40.252  -1.276   0.351  1.00  0.00     0.003 C 
BRANCH  12  13
HETATM   13  C   LIG     1      39.249  -1.619   1.450  1.00  0.00    -0.004 C 
HETATM   14  C   LIG     1      38.858  -3.089   1.400  1.00  0.00     0.005 C 
ENDBRANCH  12  13
ENDBRANCH  11  12
ENDBRANCH  10  11
ENDBRANCH   8   9
ENDBRANCH   7   8
ENDBRANCH   4   7
BRANCH   3  15
HETATM   15  O   LIG     1      38.525   3.288   1.338  1.00  0.00    -0.388 OA
HETATM   16  H   LIG     1      38.238   3.091   2.255  1.00  0.00     0.210 HD
ENDBRANCH   3  15
BRANCH   2  17
HETATM   17  O   LIG     1      39.178   5.762   2.335  1.00  0.00    -0.390 OA
HETATM   18  H   LIG     1      39.017   5.094   3.028  1.00  0.00     0.210 HD
ENDBRANCH   2  17
BRANCH   6  19
HETATM   19  C   LIG     1      43.929   4.938   0.989  1.00  0.00     0.198 C 
BRANCH  19  20
HETATM   20  O   LIG     1      44.485   3.826   1.673  1.00  0.00    -0.398 OA
HETATM   21  H   LIG     1      45.175   3.437   1.110  1.00  0.00     0.209 HD
ENDBRANCH  19  20
ENDBRANCH   6  19
BRANCH   1  22
HETATM   22  O   LIG     1      41.624   6.991   1.336  1.00  0.00    -0.390 OA
HETATM   23  H   LIG     1      40.777   7.327   0.994  1.00  0.00     0.210 HD
ENDBRANCH   1  22
TORSDOF 11
ENDMDL
