REMARK  6 active torsions:
REMARK  status: ('A' for Active; 'I' for Inactive)
REMARK    1  A    between atoms: C_6  and  C_10 
REMARK    2  A    between atoms: C_10  and  C_11 
REMARK    3  A    between atoms: C_14  and  N_33 
REMARK    4  A    between atoms: S_18  and  C_21 
REMARK    5  A    between atoms: S_18  and  N_33 
REMARK    6  A    between atoms: C_21  and  C_22 
ROOT
ATOM      1  C   UNN dAMED       0.405  -0.359  -0.297  0.00  0.00     0.202 C 
ATOM      2  O   UNN dAMED       0.976  -1.074  -1.110  0.00  0.00    -0.286 OA
ENDROOT
BRANCH   1   3
ATOM      3  C   UNN dAMED      -0.393   0.783  -0.662  0.00  0.00     0.061 A 
ATOM      4  C   UNN dAMED       0.100   1.974  -1.173  0.00  0.00     0.104 A 
ATOM      5  N   UNN dAMED      -0.841   2.940  -1.464  0.00  0.00    -0.225 NA
ATOM      6  C   UNN dAMED      -2.009   2.284  -1.103  0.00  0.00     0.163 A 
ATOM      7  N   UNN dAMED      -3.207   2.891  -1.238  0.00  0.00    -0.225 NA
ATOM      8  C   UNN dAMED      -1.811   0.982  -0.610  0.00  0.00     0.041 A 
ATOM      9  C   UNN dAMED      -4.248   2.124  -0.844  0.00  0.00     0.101 A 
ATOM     10  C   UNN dAMED      -4.191   0.830  -0.335  0.00  0.00     0.019 A 
ATOM     11  C   UNN dAMED      -2.932   0.239  -0.216  0.00  0.00     0.005 A 
ATOM     12  C   UNN dAMED      -5.395   0.118   0.061  0.00  0.00     0.002 A 
ATOM     13  C   UNN dAMED      -6.008  -0.785  -0.815  0.00  0.00     0.001 A 
ATOM     14  C   UNN dAMED      -5.954   0.311   1.330  0.00  0.00     0.001 A 
ATOM     15  C   UNN dAMED      -7.151  -1.485  -0.433  0.00  0.00     0.011 A 
ATOM     16  C   UNN dAMED      -7.689  -1.279   0.832  0.00  0.00     0.058 A 
ATOM     17  C   UNN dAMED      -7.099  -0.383   1.717  0.00  0.00     0.011 A 
ATOM     18 CL   UNN dAMED      -9.080  -2.159   1.314  0.00  0.00    -0.082 Cl
ENDBRANCH   1   3
BRANCH   1  19
ATOM     19  C   UNN dAMED       0.524  -0.634   1.138  0.00  0.00     0.095 A 
ATOM     20  C   UNN dAMED       1.424   0.084   1.917  0.00  0.00     0.145 A 
ATOM     21  C   UNN dAMED       1.503  -0.147   3.284  0.00  0.00     0.032 A 
ATOM     22  F   UNN dAMED       2.223   1.005   1.362  0.00  0.00    -0.204 F 
ATOM     23  C   UNN dAMED       0.675  -1.110   3.861  0.00  0.00     0.025 A 
ATOM     24  C   UNN dAMED      -0.219  -1.875   3.094  0.00  0.00     0.121 A 
ATOM     25  C   UNN dAMED      -0.280  -1.613   1.720  0.00  0.00     0.164 A 
ATOM     26  F   UNN dAMED      -1.133  -2.311   0.951  0.00  0.00    -0.202 F 
BRANCH  24  27
ATOM     27  N   UNN dAMED      -1.030  -2.786   3.664  0.00  0.00    -0.160 NA
BRANCH  27  28
ATOM     28  S   UNN dAMED      -0.369  -4.131   4.201  0.00  0.00     0.265 S 
ATOM     29  O   UNN dAMED       0.730  -4.658   3.395  0.00  0.00    -0.203 OA
ATOM     30  O   UNN dAMED      -1.341  -5.135   4.622  0.00  0.00    -0.203 OA
BRANCH  28  31
ATOM     31  C   UNN dAMED       0.414  -3.607   5.725  0.00  0.00     0.146 C 
BRANCH  31  32
ATOM     32  C   UNN dAMED      -0.227  -2.507   6.581  0.00  0.00     0.019 C 
ATOM     33  C   UNN dAMED      -1.225  -2.874   7.684  0.00  0.00     0.001 C 
ENDBRANCH  31  32
ENDBRANCH  28  31
ENDBRANCH  27  28
ENDBRANCH  24  27
ENDBRANCH   1  19
TORSDOF 6
