REMARK  11 active torsions:
REMARK  status: ('A' for Active; 'I' for Inactive)
REMARK    1  A    between atoms: C_8  and  O_61 
REMARK    2  A    between atoms: C_28  and  C_29 
REMARK    3  A    between atoms: C_29  and  C_36 
REMARK    4  A    between atoms: C_37  and  C_36 
REMARK    5  A    between atoms: C_39  and  O_59 
REMARK    6  A    between atoms: C_40  and  O_43 
REMARK    7  A    between atoms: O_43  and  C_49 
REMARK    8  A    between atoms: C_46  and  O_63 
REMARK    9  A    between atoms: C_49  and  C_51 
REMARK   10  A    between atoms: C_51  and  C_52 
REMARK   11  A    between atoms: C_51  and  C_53 
ROOT
ATOM      1  C   UNN dAMED      -5.115  -1.793   5.995  0.00  0.00     0.062 C 
ATOM      2  C   UNN dAMED      -6.224  -2.283   6.915  0.00  0.00     0.008 C 
ATOM      3  C   UNN dAMED      -5.848  -2.253   8.383  0.00  0.00     0.030 C 
ATOM      4  C   UNN dAMED      -4.668  -1.332   8.706  0.00  0.00     0.121 C 
ATOM      5  O   UNN dAMED      -3.593  -1.261   7.801  0.00  0.00    -0.330 OA
ATOM      6  C   UNN dAMED      -4.126  -0.774   6.586  0.00  0.00     0.279 C 
ATOM      7  C   UNN dAMED      -4.485  -0.846  10.148  0.00  0.00     0.060 C 
ATOM      8  C   UNN dAMED      -4.823  -1.791  11.310  0.00  0.00     0.122 C 
ATOM      9  C   UNN dAMED      -4.050  -3.112  11.479  0.00  0.00     0.049 C 
ATOM     10  C   UNN dAMED      -3.459  -3.462  10.340  0.00  0.00    -0.024 C 
ATOM     11  C   UNN dAMED      -3.081  -4.931  10.116  0.00  0.00    -0.004 C 
ATOM     12  C   UNN dAMED      -2.325  -5.255   9.069  0.00  0.00    -0.000 C 
ATOM     13  C   UNN dAMED      -1.920  -6.702   8.784  0.00  0.00    -0.001 C 
ATOM     14  C   UNN dAMED      -2.833  -7.583   8.385  0.00  0.00    -0.008 C 
ATOM     15  C   UNN dAMED      -2.364  -8.765   7.541  0.00  0.00    -0.040 C 
ATOM     16  C   UNN dAMED      -3.077  -0.526   5.513  0.00  0.00     0.276 C 
ATOM     17  C   UNN dAMED      -1.651  -0.185   5.896  0.00  0.00     0.277 C 
ATOM     18  O   UNN dAMED      -1.062  -0.850   6.730  0.00  0.00    -0.270 OA
ATOM     19  O   UNN dAMED      -3.348  -0.535   4.316  0.00  0.00    -0.281 OA
ATOM     20  N   UNN dAMED      -1.202   0.897   5.190  0.00  0.00    -0.209 NA
ATOM     21  C   UNN dAMED       0.202   0.823   4.904  0.00  0.00     0.151 C 
ATOM     22  C   UNN dAMED       0.568  -0.205   3.828  0.00  0.00     0.027 C 
ATOM     23  C   UNN dAMED      -0.222  -0.040   2.531  0.00  0.00     0.003 C 
ATOM     24  C   UNN dAMED      -1.366   0.965   2.658  0.00  0.00     0.018 C 
ATOM     25  C   UNN dAMED      -2.034   1.035   4.037  0.00  0.00     0.080 C 
ATOM     26  C   UNN dAMED       0.875   2.174   4.781  0.00  0.00     0.291 C 
ATOM     27  O   UNN dAMED       2.085   2.392   5.365  0.00  0.00    -0.276 OA
ATOM     28  C   UNN dAMED       2.951   1.357   4.999  0.00  0.00     0.102 C 
ATOM     29  O   UNN dAMED       4.503  -1.577   6.407  0.00  0.00    -0.287 OA
ATOM     30  C   UNN dAMED       3.750  -1.140   5.548  0.00  0.00     0.193 C 
ATOM     31  C   UNN dAMED       2.960   0.091   5.879  0.00  0.00     0.066 C 
ATOM     32  C   UNN dAMED       2.394  -4.159   5.223  0.00  0.00     0.072 C 
ATOM     33  C   UNN dAMED       2.230  -3.022   4.502  0.00  0.00    -0.021 C 
ATOM     34  C   UNN dAMED       3.400  -2.026   4.380  0.00  0.00     0.013 C 
ATOM     35  C   UNN dAMED       0.026  -7.707   6.987  0.00  0.00     0.001 C 
ATOM     36  C   UNN dAMED       0.273  -6.315   6.455  0.00  0.00     0.212 C 
ATOM     37  C   UNN dAMED       0.402  -6.068   4.971  0.00  0.00     0.154 C 
ATOM     38  C   UNN dAMED       1.066  -4.770   4.417  0.00  0.00     0.137 C 
ATOM     39  O   UNN dAMED       0.224  -5.368   7.226  0.00  0.00    -0.285 OA
ATOM     40  C   UNN dAMED      -1.212  -8.510   6.555  0.00  0.00     0.047 C 
ATOM     41  O   UNN dAMED       0.203   3.101   4.339  0.00  0.00    -0.262 OA
ATOM     42  O   UNN dAMED      -4.772   0.344   6.789  0.00  0.00    -0.187 OA
ATOM     43  O   UNN dAMED       0.984  -4.500   3.069  0.00  0.00    -0.192 OA
ATOM     44  C   UNN dAMED      -3.410  -2.224  12.544  0.00  0.00     0.007 C 
ATOM     45  C   UNN dAMED      -5.382  -1.777   4.488  0.00  0.00     0.006 C 
ATOM     46  C   UNN dAMED       0.853  -8.223   8.168  0.00  0.00     0.030 C 
ATOM     47  C   UNN dAMED       1.001  -4.758   4.572  0.00  0.00     0.012 C 
ATOM     48  C   UNN dAMED       4.560  -2.457   3.477  0.00  0.00     0.034 C 
ATOM     49  C   UNN dAMED      -3.388  -9.849   7.189  0.00  0.00     0.027 C 
ENDROOT
BRANCH  28  50
ATOM     50  C   UNN dAMED       4.273   1.863   4.386  0.00  0.00     0.001 C 
ATOM     51  C   UNN dAMED       5.002   1.035   3.318  0.00  0.00     0.033 C 
BRANCH  50  52
ATOM     52  C   UNN dAMED       4.645   3.346   4.629  0.00  0.00    -0.010 C 
BRANCH  52  53
ATOM     53  C   UNN dAMED       5.360   4.233   3.588  0.00  0.00    -0.038 C 
ATOM     54  C   UNN dAMED       5.316   5.761   3.786  0.00  0.00     0.075 C 
ATOM     55  C   UNN dAMED       5.977   6.684   2.749  0.00  0.00     0.094 C 
ATOM     56  C   UNN dAMED       7.088   6.069   1.881  0.00  0.00     0.099 C 
ATOM     57  C   UNN dAMED       7.623   4.740   2.413  0.00  0.00     0.058 C 
ATOM     58  C   UNN dAMED       6.582   3.695   2.830  0.00  0.00     0.029 C 
BRANCH  55  59
ATOM     59  O   UNN dAMED       5.932   8.059   2.948  0.00  0.00    -0.330 OA
ATOM     60  C   UNN dAMED       5.790   9.075   2.012  0.00  0.00     0.181 C 
ENDBRANCH  55  59
BRANCH  56  61
ATOM     61  O   UNN dAMED       7.066   6.236   0.489  0.00  0.00    -0.279 OA
BRANCH  61  62
ATOM     62  C   UNN dAMED       7.091   7.565   0.244  0.00  0.00     0.280 C 
ATOM     63  O   UNN dAMED       6.104   8.251   0.025  0.00  0.00    -0.264 OA
BRANCH  62  64
ATOM     64  C   UNN dAMED       8.493   8.076   0.227  0.00  0.00     0.139 C 
ATOM     65  C   UNN dAMED       8.489   9.609   0.360  0.00  0.00     0.015 C 
BRANCH  64  66
ATOM     66  C   UNN dAMED       9.465   6.931  -0.017  0.00  0.00     0.194 C 
ATOM     67  O   UNN dAMED      10.559   6.779   0.790  0.00  0.00    -0.220 OA
ENDBRANCH  64  66
BRANCH  64  68
ATOM     68  C   UNN dAMED       8.775   8.741  -1.183  0.00  0.00     0.194 C 
ATOM     69  O   UNN dAMED       8.884  10.099  -1.312  0.00  0.00    -0.220 OA
ENDBRANCH  64  68
ENDBRANCH  62  64
ENDBRANCH  61  62
ENDBRANCH  56  61
ENDBRANCH  52  53
ENDBRANCH  50  52
ENDBRANCH  28  50
BRANCH  37  70
ATOM     70  O   UNN dAMED      -0.220  -6.957   4.123  0.00  0.00    -0.323 OA
ATOM     71  C   UNN dAMED      -1.166  -7.486   3.277  0.00  0.00     0.182 C 
ENDBRANCH  37  70
BRANCH   8  72
ATOM     72  O   UNN dAMED      -5.670  -1.366  12.320  0.00  0.00    -0.354 OA
ATOM     73  C   UNN dAMED      -5.787  -1.632  13.675  0.00  0.00     0.174 C 
ENDBRANCH   8  72
TORSDOF 11
