REMARK  12 active torsions:
REMARK  status: ('A' for Active; 'I' for Inactive)
REMARK    1  A    between atoms: C_22  and  O_4 
REMARK    2  A    between atoms: O_4  and  C_23 
REMARK    3  A    between atoms: C_13  and  C_35 
REMARK    4  A    between atoms: C_19  and  O_28 
REMARK    5  A    between atoms: C_25  and  N_51 
REMARK    6  A    between atoms: C_35  and  C_36 
REMARK    7  A    between atoms: C_36  and  O_37 
REMARK    8  A    between atoms: O_37  and  C_38 
REMARK    9  A    between atoms: C_38  and  C_39 
REMARK   10  A    between atoms: C_39  and  C_40 
REMARK   11  A    between atoms: C_40  and  C_41 
REMARK   12  A    between atoms: C_44  and  C_46 
REMARK       I    between atoms: C_44  and  N_51 
ROOT
ATOM      1  O   UNN dAMED      -4.213  -3.275  -1.350  0.00  0.00    -0.286 OA
ATOM      2  O   UNN dAMED      -6.073   1.293   0.610  0.00  0.00    -0.286 OA
ATOM      3  C   UNN dAMED      -5.577   0.216   0.297  0.00  0.00     0.199 C 
ATOM      4  C   UNN dAMED      -4.094   0.012   0.213  0.00  0.00     0.084 A 
ATOM      5  C   UNN dAMED      -7.859  -0.680   0.204  0.00  0.00     0.003 A 
ATOM      6  C   UNN dAMED      -8.781  -1.682  -0.079  0.00  0.00     0.002 A 
ATOM      7  C   UNN dAMED      -6.491  -0.879  -0.022  0.00  0.00     0.044 A 
ATOM      8  C   UNN dAMED      -3.230   1.028   0.712  0.00  0.00     0.199 A 
ATOM      9  C   UNN dAMED      -1.864   0.780   0.526  0.00  0.00     0.042 A 
ATOM     10  C   UNN dAMED      -0.925   1.805   1.122  0.00  0.00     0.015 C 
ATOM     11  C   UNN dAMED       0.442   2.155   0.510  0.00  0.00     0.208 C 
ATOM     12  C   UNN dAMED      -8.330  -2.891  -0.594  0.00  0.00     0.024 A 
ATOM     13  C   UNN dAMED      -6.027  -2.076  -0.543  0.00  0.00     0.064 A 
ATOM     14  C   UNN dAMED      -3.593  -1.180  -0.382  0.00  0.00     0.084 A 
ATOM     15  C   UNN dAMED      -1.346  -0.362  -0.109  0.00  0.00     0.060 A 
ATOM     16  C   UNN dAMED       1.008   0.738   0.348  0.00  0.00     0.093 C 
ATOM     17  C   UNN dAMED      -6.966  -3.081  -0.822  0.00  0.00     0.097 A 
ATOM     18  C   UNN dAMED      -4.581  -2.244  -0.800  0.00  0.00     0.201 C 
ATOM     19  C   UNN dAMED      -2.187  -1.395  -0.586  0.00  0.00     0.201 A 
ATOM     20  C   UNN dAMED       0.174  -0.348  -0.345  0.00  0.00     0.081 C 
ATOM     21  O   UNN dAMED      -1.690  -2.427  -1.148  0.00  0.00    -0.286 OA
ATOM     22  O   UNN dAMED      -3.580   2.106   1.300  0.00  0.00    -0.286 OA
ATOM     23  O   UNN dAMED       1.155   2.863   1.335  0.00  0.00    -0.213 OA
ENDROOT
BRANCH  20  24
ATOM     24  O   UNN dAMED       0.869  -1.436  -0.805  0.00  0.00    -0.309 OA
BRANCH  24  25
ATOM     25  C   UNN dAMED       1.561  -2.522  -1.262  0.00  0.00     0.250 C 
ATOM     26  O   UNN dAMED       1.923  -3.545  -0.386  0.00  0.00    -0.307 OA
ATOM     27  C   UNN dAMED       1.944  -4.856  -0.868  0.00  0.00     0.101 C 
ATOM     28  C   UNN dAMED       1.961  -5.138  -2.385  0.00  0.00     0.163 C 
ATOM     29  C   UNN dAMED       2.075  -6.019   0.121  0.00  0.00     0.060 C 
ATOM     30  C   UNN dAMED       2.117  -3.936  -3.340  0.00  0.00     0.094 C 
ATOM     31  O   UNN dAMED       1.366  -6.289  -2.832  0.00  0.00    -0.187 OA
ATOM     32  C   UNN dAMED       2.102  -2.558  -2.690  0.00  0.00     0.110 C 
BRANCH  30  33
ATOM     33  N   UNN dAMED       2.724  -4.091  -4.655  0.00  0.00    -0.207 NA
ATOM     34  C   UNN dAMED       2.957  -3.016  -5.398  0.00  0.00     0.351 C 
ATOM     35  O   UNN dAMED       3.775  -2.131  -5.168  0.00  0.00    -0.261 OA
BRANCH  34  36
ATOM     36  C   UNN dAMED       2.090  -2.980  -6.622  0.00  0.00     0.474 C 
ATOM     37  F   UNN dAMED       2.713  -3.527  -7.697  0.00  0.00    -0.162 F 
ATOM     38  F   UNN dAMED       1.779  -1.702  -6.964  0.00  0.00    -0.162 F 
ATOM     39  F   UNN dAMED       0.908  -3.633  -6.476  0.00  0.00    -0.162 F 
ENDBRANCH  34  36
ENDBRANCH  30  33
ENDBRANCH  24  25
ENDBRANCH  20  24
BRANCH  11  40
ATOM     40  C   UNN dAMED       0.329   2.873  -0.794  0.00  0.00     0.229 C 
ATOM     41  O   UNN dAMED      -0.729   2.996  -1.399  0.00  0.00    -0.286 OA
BRANCH  40  42
ATOM     42  C   UNN dAMED       1.570   3.490  -1.397  0.00  0.00     0.166 C 
BRANCH  42  43
ATOM     43  O   UNN dAMED       2.712   2.729  -1.688  0.00  0.00    -0.271 OA
BRANCH  43  44
ATOM     44  C   UNN dAMED       2.353   1.908  -2.711  0.00  0.00     0.276 C 
ATOM     45  O   UNN dAMED       2.966   1.844  -3.768  0.00  0.00    -0.264 OA
BRANCH  44  46
ATOM     46  C   UNN dAMED       1.068   1.141  -2.572  0.00  0.00     0.096 C 
BRANCH  46  47
ATOM     47  C   UNN dAMED       0.957  -0.289  -3.108  0.00  0.00     0.010 C 
BRANCH  47  48
ATOM     48  C   UNN dAMED       0.082  -1.315  -2.381  0.00  0.00     0.001 C 
ATOM     49  C   UNN dAMED       0.437  -2.803  -2.450  0.00  0.00     0.000 C 
ENDBRANCH  47  48
ENDBRANCH  46  47
ENDBRANCH  44  46
ENDBRANCH  43  44
ENDBRANCH  42  43
ENDBRANCH  40  42
ENDBRANCH  11  40
BRANCH  17  50
ATOM     50  O   UNN dAMED      -6.600  -4.297  -1.324  0.00  0.00    -0.328 OA
ATOM     51  C   UNN dAMED      -7.748  -5.086  -1.223  0.00  0.00     0.181 C 
ENDBRANCH  17  50
TORSDOF 12
