REMARK  4 active torsions:
REMARK  status: ('A' for Active; 'I' for Inactive)
REMARK    1  A    between atoms: C_28  and  O_9 
REMARK    2  A    between atoms: O_9  and  C_35 
REMARK    3  A    between atoms: C_13  and  O_40 
REMARK    4  A    between atoms: C_14  and  O_45 
ROOT
ATOM      1  O   UNN dAMED      -2.530   5.167  -1.563  0.00  0.00    -0.300 OA
ATOM      2  O   UNN dAMED      -4.629   4.230  -1.332  0.00  0.00    -0.300 OA
ATOM      3  O   UNN dAMED      -3.024  -1.278  -2.477  0.00  0.00    -0.264 OA
ATOM      4  O   UNN dAMED      -0.768  -0.958  -2.666  0.00  0.00    -0.302 OA
ATOM      5  C   UNN dAMED      -4.721  -1.305   3.962  0.00  0.00     0.240 A 
ATOM      6  C   UNN dAMED      -5.395  -1.173   2.727  0.00  0.00     0.135 A 
ATOM      7  C   UNN dAMED      -3.338  -1.031   3.864  0.00  0.00     0.135 A 
ATOM      8  C   UNN dAMED      -2.689  -0.660   2.681  0.00  0.00     0.027 A 
ATOM      9  C   UNN dAMED      -4.777  -0.815   1.525  0.00  0.00     0.027 A 
ATOM     10  C   UNN dAMED      -3.415  -0.552   1.504  0.00  0.00     0.000 A 
ATOM     11  C   UNN dAMED      -2.743  -0.119   0.215  0.00  0.00    -0.019 C 
ATOM     12  C   UNN dAMED      -2.719   1.349  -0.157  0.00  0.00    -0.000 A 
ATOM     13  C   UNN dAMED      -1.703  -1.047  -0.465  0.00  0.00     0.134 C 
ATOM     14  C   UNN dAMED      -1.929  -1.110  -1.958  0.00  0.00     0.269 C 
ATOM     15  C   UNN dAMED      -3.903   2.038  -0.483  0.00  0.00     0.026 A 
ATOM     16  C   UNN dAMED      -3.681   3.329  -0.942  0.00  0.00     0.119 A 
ATOM     17  C   UNN dAMED      -0.294  -0.504  -0.326  0.00  0.00     0.104 C 
ATOM     18  C   UNN dAMED      -1.430   1.922  -0.289  0.00  0.00     0.020 A 
ATOM     19  C   UNN dAMED      -2.411   3.895  -1.080  0.00  0.00     0.119 A 
ATOM     20  C   UNN dAMED       0.233  -0.774  -1.712  0.00  0.00     0.152 C 
ATOM     21  C   UNN dAMED      -0.260   1.006   0.021  0.00  0.00     0.076 C 
ATOM     22  C   UNN dAMED      -1.231   3.231  -0.769  0.00  0.00     0.028 A 
ATOM     23  C   UNN dAMED      -3.879   5.309  -1.693  0.00  0.00     0.304 A 
ATOM     24  O   UNN dAMED      -5.301  -1.638   5.053  0.00  0.00    -0.282 OA
ENDROOT
BRANCH  21  25
ATOM     25  O   UNN dAMED       0.901   1.530   0.531  0.00  0.00    -0.288 OA
BRANCH  25  26
ATOM     26  C   UNN dAMED       2.136   1.897   0.996  0.00  0.00     0.231 C 
ATOM     27  O   UNN dAMED       3.181   2.106   0.095  0.00  0.00    -0.283 OA
ATOM     28  C   UNN dAMED       4.221   2.979   0.413  0.00  0.00     0.134 C 
ATOM     29  C   UNN dAMED       4.902   3.740  -0.712  0.00  0.00     0.198 C 
ATOM     30  C   UNN dAMED       4.080   3.821   1.671  0.00  0.00     0.145 C 
ATOM     31  O   UNN dAMED       4.614   5.103  -0.805  0.00  0.00    -0.331 OA
ATOM     32  C   UNN dAMED       4.807   5.617   0.512  0.00  0.00     0.310 C 
ATOM     33  O   UNN dAMED       3.832   5.183   1.460  0.00  0.00    -0.310 OA
ATOM     34  C   UNN dAMED       6.149   5.186   0.996  0.00  0.00     0.050 A 
ATOM     35  S   UNN dAMED       6.587   3.525   1.100  0.00  0.00    -0.087 SA
ATOM     36  C   UNN dAMED       7.184   5.990   1.426  0.00  0.00     0.007 A 
ATOM     37  C   UNN dAMED       8.123   3.915   1.699  0.00  0.00     0.035 A 
ATOM     38  C   UNN dAMED       8.325   5.260   1.832  0.00  0.00     0.007 A 
ATOM     39  C   UNN dAMED       3.441   3.109   2.869  0.00  0.00     0.184 C 
ATOM     40  C   UNN dAMED       2.408   2.027   2.505  0.00  0.00     0.205 C 
ATOM     41  O   UNN dAMED       3.496   3.670   4.122  0.00  0.00    -0.186 OA
ATOM     42  O   UNN dAMED       2.245   0.923   3.306  0.00  0.00    -0.184 OA
ENDBRANCH  25  26
ENDBRANCH  21  25
BRANCH   7  43
ATOM     43  O   UNN dAMED      -2.540  -1.128   4.980  0.00  0.00    -0.325 OA
ATOM     44  C   UNN dAMED      -1.529  -2.024   4.624  0.00  0.00     0.181 C 
ENDBRANCH   7  43
BRANCH   6  45
ATOM     45  O   UNN dAMED      -6.750  -1.399   2.659  0.00  0.00    -0.325 OA
ATOM     46  C   UNN dAMED      -7.146  -0.859   1.433  0.00  0.00     0.181 C 
ENDBRANCH   6  45
TORSDOF 4
