REMARK  6 active torsions:
REMARK  status: ('A' for Active; 'I' for Inactive)
REMARK    1  A    between atoms: C_1  and  O_11 
REMARK    2  A    between atoms: C_2  and  O_28 
REMARK    3  A    between atoms: C_7  and  N_25 
REMARK    4  A    between atoms: O_11  and  C_12 
REMARK    5  A    between atoms: C_12  and  C_19 
REMARK    6  A    between atoms: C_13  and  N_25 
ROOT
ATOM      1  C   UNN dAMED       2.328  -3.405  -1.262  0.00  0.00     0.118 A 
ATOM      2  C   UNN dAMED       1.263  -2.651  -1.714  0.00  0.00     0.117 A 
ATOM      3  C   UNN dAMED       0.040  -3.260  -1.947  0.00  0.00     0.031 A 
ATOM      4  C   UNN dAMED      -0.128  -4.639  -1.711  0.00  0.00     0.056 A 
ATOM      5  C   UNN dAMED       0.961  -5.407  -1.255  0.00  0.00     0.088 A 
ATOM      6  C   UNN dAMED       2.178  -4.770  -1.044  0.00  0.00     0.045 A 
ATOM      7  C   UNN dAMED      -1.355  -5.306  -1.867  0.00  0.00     0.166 A 
ATOM      8  N   UNN dAMED      -1.487  -6.619  -1.560  0.00  0.00    -0.205 NA
ATOM      9  C   UNN dAMED      -0.372  -7.256  -1.158  0.00  0.00     0.200 A 
ATOM     10  N   UNN dAMED       0.849  -6.714  -0.994  0.00  0.00    -0.224 NA
ENDROOT
BRANCH   1  11
ATOM     11  O   UNN dAMED       3.521  -2.823  -0.959  0.00  0.00    -0.329 OA
BRANCH  11  12
ATOM     12  C   UNN dAMED       3.532  -2.756   0.436  0.00  0.00     0.149 C 
BRANCH  12  13
ATOM     13  C   UNN dAMED       2.328  -3.293   1.217  0.00  0.00     0.034 C 
ATOM     14  C   UNN dAMED       2.137  -2.931   2.686  0.00  0.00     0.038 C 
ATOM     15  C   UNN dAMED       0.841  -3.447   3.322  0.00  0.00     0.250 C 
ATOM     16  N   UNN dAMED       0.418  -4.833   3.053  0.00  0.00     0.139 N 
ATOM     17  C   UNN dAMED       0.456  -5.037   1.605  0.00  0.00     0.250 C 
ATOM     18  C   UNN dAMED       1.665  -5.343   3.633  0.00  0.00     0.285 C 
ATOM     19  C   UNN dAMED       1.718  -4.636   0.834  0.00  0.00     0.038 C 
ENDBRANCH  12  13
ENDBRANCH  11  12
ENDBRANCH   1  11
BRANCH   2  20
ATOM     20  O   UNN dAMED       1.382  -1.309  -1.905  0.00  0.00    -0.326 OA
ATOM     21  C   UNN dAMED       0.698  -0.725  -0.836  0.00  0.00     0.181 C 
ENDBRANCH   2  20
BRANCH   7  22
ATOM     22  N   UNN dAMED      -2.488  -4.654  -2.222  0.00  0.00    -0.224 NA
BRANCH  22  23
ATOM     23  C   UNN dAMED      -3.136  -5.079  -3.335  0.00  0.00     0.110 A 
ATOM     24  C   UNN dAMED      -4.493  -4.752  -3.504  0.00  0.00     0.158 A 
ATOM     25  C   UNN dAMED      -5.227  -5.150  -4.621  0.00  0.00     0.038 A 
ATOM     26  F   UNN dAMED      -5.122  -4.018  -2.570  0.00  0.00    -0.203 F 
ATOM     27  C   UNN dAMED      -4.601  -5.894  -5.610  0.00  0.00     0.037 A 
ATOM     28  C   UNN dAMED      -3.256  -6.221  -5.503  0.00  0.00     0.008 A 
ATOM     29 BR   UNN dAMED      -5.586  -6.459  -7.111  0.00  0.00    -0.049 Br
ATOM     30  C   UNN dAMED      -2.539  -5.803  -4.382  0.00  0.00     0.022 A 
ENDBRANCH  22  23
ENDBRANCH   7  22
TORSDOF 6
