REMARK  3 active torsions:
REMARK  status: ('A' for Active; 'I' for Inactive)
REMARK    1  A    between atoms: C_5  and  C_7 
REMARK    2  A    between atoms: C_7  and  C_8 
REMARK    3  A    between atoms: C_7  and  N_14 
ROOT
ATOM      1  C   UNN dAMED      -0.752  -0.785   1.182  0.00  0.00     0.013 A 
ATOM      2  C   UNN dAMED      -1.860   0.019   0.909  0.00  0.00     0.002 A 
ATOM      3  C   UNN dAMED      -2.845   0.200   1.876  0.00  0.00     0.010 A 
ATOM      4  C   UNN dAMED      -2.725  -0.423   3.116  0.00  0.00     0.068 A 
ATOM      5  C   UNN dAMED      -1.619  -1.224   3.394  0.00  0.00     0.010 A 
ATOM      6  C   UNN dAMED      -0.633  -1.405   2.427  0.00  0.00     0.002 A 
ATOM      7  C   UNN dAMED      -3.734  -0.233   4.106  0.00  0.00     0.101 C 
ATOM      8  N   UNN dAMED      -4.554  -0.077   4.912  0.00  0.00    -0.191 NA
ENDROOT
BRANCH   1   9
ATOM      9  C   UNN dAMED       0.326  -0.976   0.132  0.00  0.00     0.064 C 
BRANCH   9  10
ATOM     10  C   UNN dAMED       1.491   0.014   0.089  0.00  0.00     0.013 A 
ATOM     11  C   UNN dAMED       2.611  -0.187   0.898  0.00  0.00     0.002 A 
ATOM     12  C   UNN dAMED       3.649   0.743   0.899  0.00  0.00     0.010 A 
ATOM     13  C   UNN dAMED       3.567   1.877   0.093  0.00  0.00     0.068 A 
ATOM     14  C   UNN dAMED       2.451   2.080  -0.715  0.00  0.00     0.010 A 
ATOM     15  C   UNN dAMED       4.625   2.834   0.105  0.00  0.00     0.101 C 
ATOM     16  C   UNN dAMED       1.413   1.152  -0.716  0.00  0.00     0.002 A 
ATOM     17  N   UNN dAMED       5.487   3.612   0.118  0.00  0.00    -0.191 NA
ENDBRANCH   9  10
BRANCH   9  18
ATOM     18  N   UNN dAMED       0.227  -2.106  -0.763  0.00  0.00    -0.113 NA
ATOM     19  C   UNN dAMED      -0.032  -1.712  -2.043  0.00  0.00     0.175 C 
ATOM     20  N   UNN dAMED       0.745  -2.401  -2.852  0.00  0.00    -0.207 NA
ATOM     21  C   UNN dAMED       1.550  -3.105  -1.989  0.00  0.00     0.215 C 
ATOM     22  N   UNN dAMED       1.313  -2.885  -0.690  0.00  0.00    -0.163 NA
ENDBRANCH   9  18
ENDBRANCH   1   9
TORSDOF 3
