REMARK  8 active torsions:
REMARK  status: ('A' for Active; 'I' for Inactive)
REMARK    1  A    between atoms: O_1  and  C_6 
REMARK    2  A    between atoms: O_1  and  C_24 
REMARK    3  A    between atoms: C_2  and  C_8 
REMARK    4  A    between atoms: C_2  and  C_17 
REMARK    5  A    between atoms: C_3  and  C_4 
REMARK    6  A    between atoms: C_3  and  C_11 
REMARK    7  A    between atoms: C_24  and  C_25 
REMARK    8  A    between atoms: C_25  and  N_26 
ROOT
ATOM      1  C   UNN dAMED      -1.500   0.529  -0.163  0.00  0.00    -0.004 C 
ATOM      2  C   UNN dAMED      -2.410   0.231  -1.124  0.00  0.00    -0.022 C 
ENDROOT
BRANCH   1   3
ATOM      3  C   UNN dAMED      -0.084   0.040  -0.158  0.00  0.00    -0.000 A 
ATOM      4  C   UNN dAMED       0.549  -0.348  -1.351  0.00  0.00     0.002 A 
ATOM      5  C   UNN dAMED       1.901  -0.633  -1.442  0.00  0.00     0.024 A 
ATOM      6  C   UNN dAMED       2.651  -0.530  -0.290  0.00  0.00     0.094 A 
ATOM      7  C   UNN dAMED       2.067  -0.196   0.934  0.00  0.00     0.024 A 
ATOM      8  C   UNN dAMED       0.698   0.088   1.004  0.00  0.00     0.002 A 
BRANCH   6   9
ATOM      9  O   UNN dAMED       3.999  -0.684  -0.397  0.00  0.00    -0.329 OA
BRANCH   9  10
ATOM     10  C   UNN dAMED       4.504   0.614  -0.254  0.00  0.00     0.184 C 
BRANCH  10  11
ATOM     11  C   UNN dAMED       4.293   1.686  -1.335  0.00  0.00     0.283 C 
BRANCH  11  12
ATOM     12  N   UNN dAMED       3.211   2.976  -1.071  0.00  0.00     0.144 N 
ATOM     13  C   UNN dAMED       4.296   1.684  -1.335  0.00  0.00     0.286 C 
ATOM     14  C   UNN dAMED       4.290   1.681  -1.333  0.00  0.00     0.286 C 
ENDBRANCH  11  12
ENDBRANCH  10  11
ENDBRANCH   9  10
ENDBRANCH   6   9
ENDBRANCH   1   3
BRANCH   1  15
ATOM     15  C   UNN dAMED      -2.025   1.463   0.870  0.00  0.00    -0.000 A 
ATOM     16  C   UNN dAMED      -2.402   0.977   2.125  0.00  0.00    -0.000 A 
ATOM     17  C   UNN dAMED      -2.827   1.847   3.131  0.00  0.00    -0.000 A 
ATOM     18  C   UNN dAMED      -2.891   3.215   2.888  0.00  0.00    -0.000 A 
ATOM     19  C   UNN dAMED      -2.486   3.718   1.656  0.00  0.00    -0.000 A 
ATOM     20  C   UNN dAMED      -2.045   2.845   0.658  0.00  0.00    -0.000 A 
ENDBRANCH   1  15
BRANCH   2  21
ATOM     21  C   UNN dAMED      -3.698   1.006  -1.110  0.00  0.00     0.026 C 
ATOM     22  C   UNN dAMED      -4.140   1.769   0.142  0.00  0.00     0.005 C 
ENDBRANCH   2  21
BRANCH   2  23
ATOM     23  C   UNN dAMED      -2.216  -0.640  -2.290  0.00  0.00    -0.004 A 
ATOM     24  C   UNN dAMED      -1.587  -0.167  -3.447  0.00  0.00    -0.000 A 
ATOM     25  C   UNN dAMED      -1.341  -1.017  -4.524  0.00  0.00    -0.000 A 
ATOM     26  C   UNN dAMED      -1.816  -2.323  -4.487  0.00  0.00    -0.000 A 
ATOM     27  C   UNN dAMED      -2.509  -2.776  -3.365  0.00  0.00    -0.000 A 
ATOM     28  C   UNN dAMED      -2.688  -1.947  -2.259  0.00  0.00    -0.000 A 
ENDBRANCH   2  23
TORSDOF 8
