REMARK  2 active torsions:
REMARK  status: ('A' for Active; 'I' for Inactive)
REMARK    1  A    between atoms: C_12  and  C_16 
REMARK    2  A    between atoms: C_23  and  C_27 
REMARK       I    between atoms: C_27  and  N_29 
ROOT
ATOM      1  C   UNN dAMED       0.474   0.784   1.414  0.00  0.00     0.189 A 
ATOM      2  N   UNN dAMED      -0.743   1.279   0.949  0.00  0.00    -0.254 N 
ATOM      3  C   UNN dAMED      -0.557   2.297   0.035  0.00  0.00     0.261 A 
ATOM      4  C   UNN dAMED       0.925   2.590  -0.069  0.00  0.00     0.142 A 
ATOM      5  N   UNN dAMED       1.466   1.582   0.816  0.00  0.00    -0.301 N 
ATOM      6  S   UNN dAMED       0.726  -0.504   2.456  0.00  0.00    -0.040 SA
ATOM      7  O   UNN dAMED      -1.401   2.896  -0.618  0.00  0.00    -0.270 OA
ATOM      8  C   UNN dAMED      -2.016   0.800   1.298  0.00  0.00     0.069 A 
ATOM      9  C   UNN dAMED      -2.530   1.069   2.562  0.00  0.00     0.018 A 
ATOM     10  C   UNN dAMED      -3.765   0.542   2.922  0.00  0.00     0.012 A 
ATOM     11  C   UNN dAMED      -4.510  -0.220   2.016  0.00  0.00     0.072 A 
ATOM     12  C   UNN dAMED      -4.025  -0.447   0.718  0.00  0.00     0.083 A 
ATOM     13  C   UNN dAMED      -2.763   0.063   0.379  0.00  0.00     0.022 A 
ATOM     14  C   UNN dAMED      -5.750  -0.752   2.490  0.00  0.00     0.101 C 
ATOM     15  N   UNN dAMED      -6.744  -1.196   2.893  0.00  0.00    -0.191 NA
ATOM     16  C   UNN dAMED       2.834   1.300   0.733  0.00  0.00     0.064 A 
ATOM     17  C   UNN dAMED       3.703   1.746   1.732  0.00  0.00     0.018 A 
ATOM     18  C   UNN dAMED       5.080   1.628   1.550  0.00  0.00     0.009 A 
ATOM     19  C   UNN dAMED       5.569   1.101   0.354  0.00  0.00     0.085 A 
ATOM     20  C   UNN dAMED       4.698   0.636  -0.629  0.00  0.00     0.146 A 
ATOM     21  C   UNN dAMED       3.327   0.732  -0.444  0.00  0.00     0.047 A 
ATOM     22  F   UNN dAMED       5.170   0.137  -1.780  0.00  0.00    -0.204 F 
ATOM     23  C   UNN dAMED       1.401   2.310  -1.491  0.00  0.00     0.032 C 
ATOM     24  C   UNN dAMED       1.192   3.974   0.516  0.00  0.00     0.032 C 
ENDROOT
BRANCH  12  25
ATOM     25  C   UNN dAMED      -4.788  -1.158  -0.365  0.00  0.00     0.419 C 
ATOM     26  F   UNN dAMED      -5.376  -0.284  -1.230  0.00  0.00    -0.166 F 
ATOM     27  F   UNN dAMED      -3.992  -1.957  -1.132  0.00  0.00    -0.166 F 
ATOM     28  F   UNN dAMED      -5.788  -1.969   0.076  0.00  0.00    -0.166 F 
ENDBRANCH  12  25
BRANCH  19  29
ATOM     29  C   UNN dAMED       7.016   1.075   0.119  0.00  0.00     0.277 C 
ATOM     30  O   UNN dAMED       7.621   0.024   0.293  0.00  0.00    -0.266 OA
ATOM     31  N   UNN dAMED       7.511   2.234  -0.302  0.00  0.00    -0.232 NA
ATOM     32  C   UNN dAMED       6.606   3.300  -0.702  0.00  0.00     0.155 C 
ENDBRANCH  19  29
TORSDOF 2
