REMARK  1 active torsions:
REMARK  status: ('A' for Active; 'I' for Inactive)
REMARK    1  A    between atoms: C5*_1  and  C4*_6 
ROOT
ATOM      1  O4* UNN dAMED      -1.433  -0.284  -1.384  0.00  0.00    -0.316 OA
ATOM      2  C1* UNN dAMED      -1.154  -0.315   0.016  0.00  0.00     0.198 C 
ATOM      3  C2* UNN dAMED      -1.737  -1.510   0.758  0.00  0.00     0.104 C 
ATOM      4  C3* UNN dAMED      -2.616  -2.157  -0.268  0.00  0.00     0.133 C 
ATOM      5  C4* UNN dAMED      -2.358  -1.354  -1.543  0.00  0.00     0.128 C 
ATOM      6  O3* UNN dAMED      -2.764  -3.517  -0.290  0.00  0.00    -0.193 OA
ATOM      7  N   UNN dAMED      -0.119   0.458   0.629  0.00  0.00    -0.174 NA
ATOM      8  C   UNN dAMED      -0.083   1.745   0.185  0.00  0.00     0.155 C 
ATOM      9  N   UNN dAMED       1.164   2.104  -0.046  0.00  0.00    -0.231 NA
ATOM     10  N   UNN dAMED       1.291  -1.448   0.588  0.00  0.00    -0.211 NA
ATOM     11  C   UNN dAMED       2.301  -2.018   0.103  0.00  0.00     0.200 C 
ATOM     12  C   UNN dAMED       3.969  -0.259   0.715  0.00  0.00     0.103 C 
ATOM     13  C   UNN dAMED       3.389   0.936  -0.103  0.00  0.00     0.269 C 
ATOM     14  C   UNN dAMED       1.905   0.940   0.078  0.00  0.00     0.115 C 
ATOM     15  C   UNN dAMED       1.092  -0.124   0.424  0.00  0.00     0.144 C 
ATOM     16  N   UNN dAMED       3.658  -1.668   0.492  0.00  0.00    -0.225 NA
ATOM     17  O   UNN dAMED       3.660   0.768  -1.381  0.00  0.00    -0.222 OA
ENDROOT
BRANCH   5  18
ATOM     18  C5* UNN dAMED      -3.451  -1.244  -2.616  0.00  0.00     0.235 C 
ATOM     19  O5* UNN dAMED      -3.861  -2.340  -3.324  0.00  0.00    -0.213 OA
ENDBRANCH   5  18
TORSDOF 1
