REMARK  6 active torsions:
REMARK  status: ('A' for Active; 'I' for Inactive)
REMARK    1  A    between atoms: C_1  and  O_22 
REMARK    2  A    between atoms: C_3  and  C_23 
REMARK    3  A    between atoms: C_7  and  N_31 
REMARK    4  A    between atoms: C_10  and  O_22 
REMARK    5  A    between atoms: C_15  and  C_25 
REMARK    6  A    between atoms: C_17  and  N_32 
REMARK       I    between atoms: C_20  and  N_31 
REMARK       I    between atoms: C_20  and  N_32 
REMARK       I    between atoms: C_23  and  N_30 
ROOT
ATOM      1  C   UNN dAMED      -2.962  -3.216   3.672  0.00  0.00     0.086 A 
ATOM      2  C   UNN dAMED      -3.238  -3.606   2.352  0.00  0.00     0.021 A 
ATOM      3  C   UNN dAMED      -3.526  -2.679   1.352  0.00  0.00     0.026 A 
ATOM      4  C   UNN dAMED      -3.515  -1.322   1.657  0.00  0.00     0.100 A 
ATOM      5  C   UNN dAMED      -3.213  -0.891   2.944  0.00  0.00     0.026 A 
ATOM      6  C   UNN dAMED      -2.957  -1.838   3.938  0.00  0.00     0.021 A 
ENDROOT
BRANCH   1   7
ATOM      7  N   UNN dAMED      -2.521  -4.074   4.620  0.00  0.00    -0.191 NA
ATOM      8  C   UNN dAMED      -3.254  -5.194   4.837  0.00  0.00     0.369 C 
ATOM      9  O   UNN dAMED      -4.291  -5.525   4.264  0.00  0.00    -0.242 OA
ATOM     10  N   UNN dAMED      -2.738  -5.883   5.879  0.00  0.00    -0.191 NA
BRANCH  10  11
ATOM     11  C   UNN dAMED      -1.849  -6.861   5.574  0.00  0.00     0.086 A 
ATOM     12  C   UNN dAMED      -1.782  -7.542   4.347  0.00  0.00     0.024 A 
ATOM     13  C   UNN dAMED      -0.866  -8.575   4.093  0.00  0.00     0.084 A 
ATOM     14  C   UNN dAMED       0.007  -8.951   5.119  0.00  0.00     0.062 A 
ATOM     15  C   UNN dAMED      -0.041  -8.309   6.352  0.00  0.00     0.013 A 
ATOM     16 CL   UNN dAMED       1.185 -10.195   4.927  0.00  0.00    -0.082 Cl
ATOM     17  C   UNN dAMED      -0.957  -7.280   6.566  0.00  0.00     0.020 A 
BRANCH  13  18
ATOM     18  C   UNN dAMED      -0.843  -9.203   2.729  0.00  0.00     0.420 C 
ATOM     19  F   UNN dAMED      -0.874 -10.564   2.762  0.00  0.00    -0.166 F 
ATOM     20  F   UNN dAMED       0.272  -8.868   2.022  0.00  0.00    -0.166 F 
ATOM     21  F   UNN dAMED      -1.898  -8.837   1.948  0.00  0.00    -0.166 F 
ENDBRANCH  13  18
ENDBRANCH  10  11
ENDBRANCH   1   7
BRANCH   4  22
ATOM     22  O   UNN dAMED      -3.646  -0.418   0.629  0.00  0.00    -0.307 OA
BRANCH  22  23
ATOM     23  C   UNN dAMED      -4.881   0.179   0.573  0.00  0.00     0.103 A 
ATOM     24  C   UNN dAMED      -4.978   1.538   0.847  0.00  0.00     0.045 A 
ATOM     25  C   UNN dAMED      -6.233   2.113   0.740  0.00  0.00     0.101 A 
ATOM     26  N   UNN dAMED      -7.353   1.439   0.391  0.00  0.00    -0.239 NA
ATOM     27  C   UNN dAMED      -7.208   0.121   0.111  0.00  0.00     0.141 A 
ATOM     28  C   UNN dAMED      -5.993  -0.547   0.165  0.00  0.00     0.049 A 
BRANCH  27  29
ATOM     29  C   UNN dAMED      -8.467  -0.596  -0.205  0.00  0.00     0.293 C 
ATOM     30  O   UNN dAMED      -9.518   0.036  -0.211  0.00  0.00    -0.264 OA
ATOM     31  N   UNN dAMED      -8.344  -1.900  -0.440  0.00  0.00    -0.231 NA
ATOM     32  C   UNN dAMED      -7.060  -2.549  -0.233  0.00  0.00     0.155 C 
ENDBRANCH  27  29
ENDBRANCH  22  23
ENDBRANCH   4  22
TORSDOF 6
