REMARK  6 active torsions:
REMARK  status: ('A' for Active; 'I' for Inactive)
REMARK    1  A    between atoms: C_2  and  O_8 
REMARK    2  A    between atoms: C_4  and  C_10 
REMARK    3  A    between atoms: C_10  and  C_11 
REMARK    4  A    between atoms: C_11  and  C_12 
REMARK    5  A    between atoms: C_23  and  O_63 
REMARK    6  A    between atoms: C_49  and  O_61 
ROOT
ATOM      1  C   UNN dAMED      -2.694   0.271   1.839  0.00  0.00     0.081 C 
ATOM      2  C   UNN dAMED      -1.959   1.487   1.268  0.00  0.00     0.120 C 
ATOM      3  O   UNN dAMED      -2.017  -0.650   2.638  0.00  0.00    -0.277 OA
ATOM      4  C   UNN dAMED      -2.207   2.847   1.859  0.00  0.00     0.175 C 
ATOM      5  C   UNN dAMED      -2.360   4.021   0.932  0.00  0.00     0.013 C 
ATOM      6  O   UNN dAMED      -2.107   3.031   3.063  0.00  0.00    -0.291 OA
ATOM      7  C   UNN dAMED      -1.333   5.156   1.001  0.00  0.00    -0.004 C 
ATOM      8  C   UNN dAMED      -1.399   6.149   0.164  0.00  0.00     0.005 C 
ATOM      9  C   UNN dAMED      -3.734   4.315   0.318  0.00  0.00     0.034 C 
ATOM     10  C   UNN dAMED      -1.333   7.401  -0.745  0.00  0.00     0.152 C 
ATOM     11  C   UNN dAMED      -0.013   7.767  -1.467  0.00  0.00     0.157 C 
ATOM     12  C   UNN dAMED      -1.488   7.321  -0.839  0.00  0.00     0.033 C 
ATOM     13  O   UNN dAMED      -2.373   8.292  -0.704  0.00  0.00    -0.188 OA
ATOM     14  C   UNN dAMED       0.920   6.671  -1.959  0.00  0.00     0.212 C 
ATOM     15  O   UNN dAMED       0.487   5.784  -2.680  0.00  0.00    -0.285 OA
ATOM     16  C   UNN dAMED       1.476   6.337  -0.578  0.00  0.00     0.001 C 
ATOM     17  C   UNN dAMED       1.950   4.904  -0.294  0.00  0.00     0.047 C 
ATOM     18  C   UNN dAMED      -2.354  -1.851   2.095  0.00  0.00     0.312 C 
ATOM     19  O   UNN dAMED      -3.004  -1.938   1.060  0.00  0.00    -0.258 OA
ATOM     20  C   UNN dAMED      -2.167  -3.102   2.923  0.00  0.00     0.103 C 
ATOM     21  C   UNN dAMED      -3.308  -3.415   3.908  0.00  0.00     0.050 C 
ATOM     22  C   UNN dAMED      -3.142  -4.645   4.801  0.00  0.00     0.008 C 
ATOM     23  C   UNN dAMED      -1.714  -4.881   5.287  0.00  0.00     0.025 C 
ATOM     24  C   UNN dAMED      -0.649  -4.633   4.216  0.00  0.00     0.109 C 
ATOM     25  N   UNN dAMED      -0.866  -3.523   3.351  0.00  0.00    -0.292 N 
ATOM     26  C   UNN dAMED       0.050  -3.584   2.327  0.00  0.00     0.305 C 
ATOM     27  O   UNN dAMED      -0.100  -3.215   1.176  0.00  0.00    -0.263 OA
ATOM     28  C   UNN dAMED       1.406  -4.077   2.815  0.00  0.00     0.308 C 
ATOM     29  O   UNN dAMED       1.631  -4.000   4.020  0.00  0.00    -0.276 OA
ATOM     30  C   UNN dAMED       2.463  -4.599   1.844  0.00  0.00     0.276 C 
ATOM     31  C   UNN dAMED       2.961  -5.933   2.428  0.00  0.00     0.018 C 
ATOM     32  C   UNN dAMED       4.305  -6.433   1.917  0.00  0.00     0.030 C 
ATOM     33  C   UNN dAMED       5.237  -5.325   1.459  0.00  0.00     0.035 C 
ATOM     34  C   UNN dAMED       4.537  -4.015   1.109  0.00  0.00     0.131 C 
ATOM     35  O   UNN dAMED       3.489  -3.602   1.945  0.00  0.00    -0.302 OA
ATOM     36  C   UNN dAMED       5.330  -2.957   0.333  0.00  0.00     0.081 C 
ATOM     37  C   UNN dAMED       6.690  -2.449   0.836  0.00  0.00     0.070 C 
ATOM     38  C   UNN dAMED       6.801  -1.102   1.596  0.00  0.00    -0.004 C 
ATOM     39  C   UNN dAMED       5.553  -0.709   1.441  0.00  0.00    -0.003 C 
ATOM     40  C   UNN dAMED       5.164   0.760   1.682  0.00  0.00    -0.000 C 
ATOM     41  C   UNN dAMED       3.880   1.110   1.622  0.00  0.00    -0.000 C 
ATOM     42  C   UNN dAMED       3.457   2.568   1.378  0.00  0.00    -0.001 C 
ATOM     43  C   UNN dAMED       2.157   2.865   1.389  0.00  0.00    -0.008 C 
ATOM     44  C   UNN dAMED       1.622   4.269   1.062  0.00  0.00    -0.040 C 
ATOM     45  O   UNN dAMED       2.137  -4.802   0.605  0.00  0.00    -0.262 OA
ATOM     46  C   UNN dAMED       8.224  -1.503   1.786  0.00  0.00     0.033 C 
ATOM     47  C   UNN dAMED       0.266   4.630   1.680  0.00  0.00     0.027 C 
ATOM     48  C   UNN dAMED       1.998   7.478   0.310  0.00  0.00     0.030 C 
ATOM     49  C   UNN dAMED       1.909  -6.971   2.838  0.00  0.00     0.032 C 
ENDROOT
BRANCH   1  50
ATOM     50  C   UNN dAMED      -4.225   0.248   1.862  0.00  0.00    -0.025 C 
ATOM     51  C   UNN dAMED      -4.948  -0.234   3.126  0.00  0.00     0.028 C 
BRANCH  50  52
ATOM     52  C   UNN dAMED      -5.033   0.590   0.605  0.00  0.00     0.024 C 
BRANCH  52  53
ATOM     53  C   UNN dAMED      -4.532   0.167  -0.780  0.00  0.00     0.011 C 
ATOM     54  C   UNN dAMED      -5.553  -0.049  -1.907  0.00  0.00     0.053 C 
ATOM     55  C   UNN dAMED      -5.073  -0.706  -3.206  0.00  0.00     0.093 C 
ATOM     56  C   UNN dAMED      -3.551  -0.740  -3.432  0.00  0.00     0.127 C 
ATOM     57  C   UNN dAMED      -2.695   0.254  -2.643  0.00  0.00     0.056 C 
ATOM     58  O   UNN dAMED      -2.980  -1.573  -4.357  0.00  0.00    -0.193 OA
ATOM     59  C   UNN dAMED      -3.103   0.526  -1.191  0.00  0.00     0.008 C 
BRANCH  55  60
ATOM     60  O   UNN dAMED      -5.943  -0.753  -4.292  0.00  0.00    -0.331 OA
ATOM     61  C   UNN dAMED      -5.785  -0.072  -5.491  0.00  0.00     0.181 C 
ENDBRANCH  55  60
ENDBRANCH  52  53
ENDBRANCH  50  52
ENDBRANCH   1  50
BRANCH  11  62
ATOM     62  O   UNN dAMED       0.290   9.130  -1.772  0.00  0.00    -0.323 OA
ATOM     63  C   UNN dAMED       0.769   8.122  -2.652  0.00  0.00     0.182 C 
ENDBRANCH  11  62
BRANCH  37  64
ATOM     64  O   UNN dAMED       7.844  -3.202   0.574  0.00  0.00    -0.333 OA
ATOM     65  C   UNN dAMED       8.830  -2.245   0.857  0.00  0.00     0.181 C 
ENDBRANCH  37  64
TORSDOF 6
