REMARK  1 active torsions:
REMARK  status: ('A' for Active; 'I' for Inactive)
REMARK    1  A    between atoms: C_1  and  C_6 
ROOT
ATOM      1  C   UNN dAMED      -2.395  -1.633  -0.280  0.00  0.00     0.140 A 
ATOM      2  C   UNN dAMED      -2.200  -1.263   1.187  0.00  0.00     0.182 A 
ATOM      3  C   UNN dAMED      -1.326  -0.044   1.143  0.00  0.00     0.201 A 
ATOM      4  C   UNN dAMED      -0.985   0.079  -0.343  0.00  0.00     0.179 A 
ATOM      5  O   UNN dAMED      -1.675  -0.823  -1.199  0.00  0.00    -0.292 OA
ATOM      6  F   UNN dAMED      -0.413   0.165   2.101  0.00  0.00    -0.199 F 
ATOM      7  O   UNN dAMED      -3.221  -1.377   2.090  0.00  0.00    -0.186 OA
ATOM      8  N   UNN dAMED       0.097   0.868  -0.834  0.00  0.00    -0.154 NA
ATOM      9  C   UNN dAMED       1.272   0.263  -0.515  0.00  0.00     0.153 A 
ATOM     10  C   UNN dAMED       2.006   1.247   0.128  0.00  0.00     0.143 A 
ATOM     11  N   UNN dAMED       1.265   2.398   0.257  0.00  0.00    -0.226 NA
ATOM     12  C   UNN dAMED       0.083   2.103  -0.251  0.00  0.00     0.160 C 
ATOM     13  N   UNN dAMED       1.647  -0.998  -0.773  0.00  0.00    -0.203 NA
ATOM     14  C   UNN dAMED       2.899  -1.210  -0.318  0.00  0.00     0.226 A 
ATOM     15  N   UNN dAMED       3.742  -0.355   0.307  0.00  0.00    -0.201 NA
ATOM     16  C   UNN dAMED       3.294   0.905   0.538  0.00  0.00     0.173 A 
ATOM     17 CL   UNN dAMED       3.515  -2.789  -0.579  0.00  0.00    -0.041 Cl
ATOM     18  N   UNN dAMED       4.119   1.853   1.204  0.00  0.00    -0.078 NA
ENDROOT
BRANCH   1  19
ATOM     19  C   UNN dAMED      -2.780  -3.067  -0.659  0.00  0.00     0.235 C 
ATOM     20  O   UNN dAMED      -1.894  -4.090  -0.459  0.00  0.00    -0.213 OA
ENDBRANCH   1  19
TORSDOF 1
