REMARK  8 active torsions:
REMARK  status: ('A' for Active; 'I' for Inactive)
REMARK    1  A    between atoms: C_4  and  O_19 
REMARK    2  A    between atoms: C_5  and  O_29 
REMARK    3  A    between atoms: C_10  and  N_31 
REMARK    4  A    between atoms: C_11  and  N_31 
REMARK    5  A    between atoms: O_19  and  C_20 
REMARK    6  A    between atoms: C_20  and  C_21 
REMARK    7  A    between atoms: C_21  and  C_22 
REMARK    8  A    between atoms: C_22  and  N_23 
ROOT
ATOM      1  C   UNN dAMED       1.550   3.456   1.457  0.00  0.00     0.088 A 
ATOM      2  C   UNN dAMED       0.901   4.703   1.532  0.00  0.00     0.056 A 
ATOM      3  C   UNN dAMED      -0.462   4.795   1.199  0.00  0.00     0.031 A 
ATOM      4  C   UNN dAMED      -1.178   3.672   0.826  0.00  0.00     0.116 A 
ATOM      5  C   UNN dAMED      -0.542   2.448   0.758  0.00  0.00     0.118 A 
ATOM      6  C   UNN dAMED       0.810   2.346   1.066  0.00  0.00     0.045 A 
ATOM      7  N   UNN dAMED       2.848   3.317   1.748  0.00  0.00    -0.224 NA
ATOM      8  C   UNN dAMED       3.503   4.431   2.127  0.00  0.00     0.200 A 
ATOM      9  N   UNN dAMED       2.988   5.669   2.243  0.00  0.00    -0.205 NA
ATOM     10  C   UNN dAMED       1.673   5.803   1.952  0.00  0.00     0.166 A 
ENDROOT
BRANCH   4  11
ATOM     11  O   UNN dAMED      -2.499   3.808   0.537  0.00  0.00    -0.329 OA
BRANCH  11  12
ATOM     12  C   UNN dAMED      -3.016   2.512   0.569  0.00  0.00     0.151 C 
BRANCH  12  13
ATOM     13  C   UNN dAMED      -4.492   2.285   0.901  0.00  0.00     0.068 C 
BRANCH  13  14
ATOM     14  C   UNN dAMED      -5.177   1.010   0.407  0.00  0.00     0.253 C 
BRANCH  14  15
ATOM     15  N   UNN dAMED      -4.425  -0.211   0.323  0.00  0.00     0.142 N 
ATOM     16  C   UNN dAMED      -4.427  -0.846   1.643  0.00  0.00     0.282 C 
ATOM     17  C   UNN dAMED      -3.432  -1.969   1.952  0.00  0.00     0.178 C 
ATOM     18  O   UNN dAMED      -3.491  -3.175   1.233  0.00  0.00    -0.350 OA
ATOM     19  C   UNN dAMED      -3.396  -2.550  -0.023  0.00  0.00     0.178 C 
ATOM     20  C   UNN dAMED      -4.395  -1.455  -0.411  0.00  0.00     0.282 C 
ENDBRANCH  14  15
ENDBRANCH  13  14
ENDBRANCH  12  13
ENDBRANCH  11  12
ENDBRANCH   4  11
BRANCH   5  21
ATOM     21  O   UNN dAMED      -1.221   1.327   0.390  0.00  0.00    -0.326 OA
ATOM     22  C   UNN dAMED      -2.569   1.689   0.428  0.00  0.00     0.181 C 
ENDBRANCH   5  21
BRANCH  10  23
ATOM     23  N   UNN dAMED       1.212   7.077   2.003  0.00  0.00    -0.227 NA
BRANCH  23  24
ATOM     24  C   UNN dAMED       0.571   7.379   3.154  0.00  0.00     0.084 A 
ATOM     25  C   UNN dAMED       1.250   7.947   4.239  0.00  0.00     0.033 A 
ATOM     26  C   UNN dAMED       0.561   8.376   5.373  0.00  0.00     0.087 A 
ATOM     27  C   UNN dAMED      -0.822   8.247   5.439  0.00  0.00     0.151 A 
ATOM     28 CL   UNN dAMED       1.441   9.102   6.656  0.00  0.00    -0.080 Cl
ATOM     29  C   UNN dAMED      -1.526   7.690   4.382  0.00  0.00     0.032 A 
ATOM     30  F   UNN dAMED      -1.499   8.682   6.512  0.00  0.00    -0.203 F 
ATOM     31  C   UNN dAMED      -0.827   7.279   3.249  0.00  0.00     0.021 A 
ENDBRANCH  23  24
ENDBRANCH  10  23
TORSDOF 8
