REMARK  9 active torsions:
REMARK  status: ('A' for Active; 'I' for Inactive)
REMARK    1  A    between atoms: C_9  and  C_51 
REMARK    2  A    between atoms: C_15  and  C_19 
REMARK    3  A    between atoms: C_28  and  O_55 
REMARK    4  A    between atoms: C_30  and  C_41 
REMARK    5  A    between atoms: C_31  and  O_45 
REMARK    6  A    between atoms: C_32  and  C_49 
REMARK    7  A    between atoms: C_41  and  O_43 
REMARK    8  A    between atoms: O_45  and  C_46 
REMARK    9  A    between atoms: C_51  and  O_53 
ROOT
ATOM      1  C   UNN dAMED      -1.661   4.633  -0.994  0.00  0.00     0.081 A 
ATOM      2  C   UNN dAMED      -0.463   4.541  -0.148  0.00  0.00     0.017 A 
ATOM      3  C   UNN dAMED      -0.621   3.413   0.542  0.00  0.00     0.027 A 
ATOM      4  C   UNN dAMED      -1.899   2.761   0.114  0.00  0.00     0.069 A 
ATOM      5  C   UNN dAMED       0.587   5.592  -0.157  0.00  0.00     0.001 C 
ATOM      6  C   UNN dAMED       0.450   6.549  -1.079  0.00  0.00     0.000 C 
ATOM      7  C   UNN dAMED      -0.897   6.771  -1.817  0.00  0.00     0.002 C 
ATOM      8  C   UNN dAMED      -1.805   5.796  -1.921  0.00  0.00     0.019 C 
ATOM      9  C   UNN dAMED      -2.201   1.245   0.325  0.00  0.00     0.133 C 
ATOM     10  C   UNN dAMED      -1.936   0.954   1.833  0.00  0.00     0.019 C 
ATOM     11  N   UNN dAMED       1.379   1.811   1.134  0.00  0.00     0.145 N 
ATOM     12  C   UNN dAMED       0.320   2.870   1.578  0.00  0.00     0.278 C 
ATOM     13  C   UNN dAMED      -0.926   1.684   2.693  0.00  0.00     0.076 C 
ATOM     14  C   UNN dAMED       0.053   1.116   3.747  0.00  0.00    -0.037 C 
ATOM     15  C   UNN dAMED       1.319   1.576   3.766  0.00  0.00    -0.016 C 
ATOM     16  C   UNN dAMED       0.719   2.206   2.547  0.00  0.00     0.273 C 
ATOM     17  N   UNN dAMED      -2.469   3.619  -0.876  0.00  0.00    -0.249 NA
ATOM     18  C   UNN dAMED       0.556   2.154   2.506  0.00  0.00     0.249 C 
ATOM     19  N   UNN dAMED       1.114  -2.562  -2.258  0.00  0.00    -0.353 N 
ATOM     20  C   UNN dAMED       0.370  -1.501  -1.736  0.00  0.00     0.054 A 
ATOM     21  C   UNN dAMED       0.030  -1.684  -0.407  0.00  0.00    -0.005 A 
ATOM     22  C   UNN dAMED       0.579  -2.992   0.084  0.00  0.00     0.048 A 
ATOM     23  C   UNN dAMED       1.365  -3.523  -1.149  0.00  0.00     0.153 A 
ATOM     24  C   UNN dAMED      -0.808  -0.793   0.243  0.00  0.00    -0.004 A 
ATOM     25  C   UNN dAMED      -1.284   0.330  -0.445  0.00  0.00     0.013 A 
ATOM     26  C   UNN dAMED      -0.890   0.521  -1.775  0.00  0.00     0.092 A 
ATOM     27  C   UNN dAMED      -0.065  -0.390  -2.435  0.00  0.00     0.040 A 
ATOM     28  C   UNN dAMED       2.915  -3.681  -0.885  0.00  0.00     0.240 C 
ATOM     29  C   UNN dAMED       3.458  -2.542   0.104  0.00  0.00     0.167 C 
ATOM     30  C   UNN dAMED       2.526  -1.927   1.198  0.00  0.00     0.058 C 
ATOM     31  C   UNN dAMED       1.416  -2.919   1.360  0.00  0.00     0.115 C 
ATOM     32  C   UNN dAMED       3.237  -1.764   2.641  0.00  0.00    -0.026 C 
ATOM     33  C   UNN dAMED       2.478  -1.871   3.733  0.00  0.00    -0.007 C 
ATOM     34  C   UNN dAMED       0.951  -1.964   3.571  0.00  0.00     0.123 C 
ATOM     35  N   UNN dAMED       0.446  -2.705   2.446  0.00  0.00    -0.373 N 
ATOM     36  C   UNN dAMED      -0.614  -3.801   0.587  0.00  0.00     0.030 C 
ATOM     37  C   UNN dAMED      -0.787  -3.347   2.043  0.00  0.00     0.097 C 
ATOM     38  C   UNN dAMED       1.976  -2.447  -3.417  0.00  0.00     0.125 C 
ATOM     39  O   UNN dAMED       3.580  -3.651  -2.027  0.00  0.00    -0.212 OA
ENDROOT
BRANCH   9  40
ATOM     40  C   UNN dAMED      -3.654   0.928   0.079  0.00  0.00     0.280 C 
ATOM     41  O   UNN dAMED      -4.417   0.522   0.948  0.00  0.00    -0.264 OA
BRANCH  40  42
ATOM     42  O   UNN dAMED      -4.028   1.149  -1.202  0.00  0.00    -0.298 OA
ATOM     43  C   UNN dAMED      -3.715  -0.033  -1.879  0.00  0.00     0.184 C 
ENDBRANCH  40  42
ENDBRANCH   9  40
BRANCH  26  44
ATOM     44  O   UNN dAMED      -1.331   1.593  -2.492  0.00  0.00    -0.328 OA
ATOM     45  C   UNN dAMED      -1.878   2.463  -1.545  0.00  0.00     0.181 C 
ENDBRANCH  26  44
BRANCH  15  46
ATOM     46  C   UNN dAMED       2.053   1.025   4.918  0.00  0.00     0.024 C 
ATOM     47  C   UNN dAMED       2.336   1.921   6.126  0.00  0.00     0.005 C 
ENDBRANCH  15  46
BRANCH  28  48
ATOM     48  C   UNN dAMED       3.308  -5.052  -0.310  0.00  0.00     0.303 C 
ATOM     49  O   UNN dAMED       4.453  -5.394  -0.034  0.00  0.00    -0.261 OA
BRANCH  48  50
ATOM     50  O   UNN dAMED       2.246  -5.857  -0.060  0.00  0.00    -0.297 OA
ATOM     51  C   UNN dAMED       2.239  -6.017   1.329  0.00  0.00     0.185 C 
ENDBRANCH  48  50
ENDBRANCH  28  48
BRANCH  30  52
ATOM     52  C   UNN dAMED       3.591  -2.091   2.430  0.00  0.00     0.008 C 
ATOM     53  C   UNN dAMED       4.889  -2.874   2.206  0.00  0.00     0.001 C 
ENDBRANCH  30  52
BRANCH  29  54
ATOM     54  O   UNN dAMED       4.811  -2.142   0.095  0.00  0.00    -0.301 OA
BRANCH  54  55
ATOM     55  C   UNN dAMED       5.421  -2.824   1.107  0.00  0.00     0.272 C 
ATOM     56  O   UNN dAMED       5.529  -2.382   2.242  0.00  0.00    -0.264 OA
ATOM     57  C   UNN dAMED       5.891  -4.226   0.836  0.00  0.00     0.106 C 
ENDBRANCH  54  55
ENDBRANCH  29  54
TORSDOF 9
