REMARK  2 active torsions:
REMARK  status: ('A' for Active; 'I' for Inactive)
REMARK    1  A    between atoms: C_1  and  S_24 
REMARK    2  A    between atoms: C_13  and  C_18 
ROOT
ATOM      1  C   UNN dAMED       3.444  -0.463   0.031  0.00  0.00     0.107 A 
ATOM      2  C   UNN dAMED       2.654   0.665  -0.177  0.00  0.00     0.015 A 
ATOM      3  C   UNN dAMED       1.270   0.527  -0.175  0.00  0.00     0.020 A 
ATOM      4  C   UNN dAMED       0.714  -0.740   0.012  0.00  0.00     0.083 A 
ATOM      5  C   UNN dAMED       1.509  -1.875   0.175  0.00  0.00     0.020 A 
ATOM      6  C   UNN dAMED       2.895  -1.730   0.205  0.00  0.00     0.015 A 
ATOM      7  C   UNN dAMED      -1.235  -1.134   2.488  0.00  0.00     0.018 A 
ATOM      8  C   UNN dAMED       0.040  -1.453   2.952  0.00  0.00     0.001 A 
ATOM      9  C   UNN dAMED       0.306  -1.576   4.314  0.00  0.00    -0.004 A 
ATOM     10  C   UNN dAMED      -0.719  -1.400   5.236  0.00  0.00    -0.022 A 
ATOM     11  C   UNN dAMED      -2.004  -1.101   4.797  0.00  0.00    -0.004 A 
ATOM     12  C   UNN dAMED      -2.255  -0.970   3.433  0.00  0.00     0.001 A 
ATOM     13  C   UNN dAMED      -2.617  -0.827  -0.895  0.00  0.00     0.174 A 
ATOM     14  N   UNN dAMED      -1.319  -0.784  -1.203  0.00  0.00    -0.161 NA
ATOM     15  N   UNN dAMED      -0.682  -0.867  -0.009  0.00  0.00    -0.230 N 
ATOM     16  C   UNN dAMED      -1.556  -1.014   1.063  0.00  0.00     0.084 A 
ATOM     17  C   UNN dAMED      -2.814  -0.991   0.487  0.00  0.00     0.044 A 
ATOM     18  C   UNN dAMED      -0.416  -1.409   6.707  0.00  0.00     0.031 C 
ENDROOT
BRANCH  13  19
ATOM     19  C   UNN dAMED      -3.652  -0.737  -1.939  0.00  0.00     0.437 C 
ATOM     20  F   UNN dAMED      -4.071  -1.967  -2.330  0.00  0.00    -0.164 F 
ATOM     21  F   UNN dAMED      -3.219  -0.094  -3.053  0.00  0.00    -0.164 F 
ATOM     22  F   UNN dAMED      -4.752  -0.066  -1.507  0.00  0.00    -0.164 F 
ENDBRANCH  13  19
BRANCH   1  23
ATOM     23  S   UNN dAMED       5.199  -0.316   0.007  0.00  0.00     0.302 S 
ATOM     24  O   UNN dAMED       5.500   0.982   0.583  0.00  0.00    -0.197 OA
ATOM     25  O   UNN dAMED       5.583  -0.608  -1.362  0.00  0.00    -0.197 OA
ATOM     26  N   UNN dAMED       5.867  -1.517   1.021  0.00  0.00    -0.043 N 
ENDBRANCH   1  23
TORSDOF 2
