REMARK  4 active torsions:
REMARK  status: ('A' for Active; 'I' for Inactive)
REMARK    1  A    between atoms: C_7  and  C_15 
REMARK    2  A    between atoms: C_8  and  O_21 
REMARK    3  A    between atoms: C_15  and  O_16 
REMARK    4  A    between atoms: O_16  and  C_17 
ROOT
ATOM      1  C   UNN dAMED       2.896   2.009  -0.558  0.00  0.00     0.034 A 
ATOM      2  C   UNN dAMED       1.811   2.763  -0.783  0.00  0.00     0.108 A 
ATOM      3  C   UNN dAMED       0.438   2.247  -0.558  0.00  0.00     0.206 A 
ATOM      4  C   UNN dAMED       0.344   0.891  -0.023  0.00  0.00     0.037 A 
ATOM      5  C   UNN dAMED       1.425   0.137   0.198  0.00  0.00     0.076 A 
ATOM      6  C   UNN dAMED       2.784   0.613  -0.074  0.00  0.00     0.203 A 
ATOM      7  C   UNN dAMED      -0.874   0.044   0.190  0.00  0.00     0.098 A 
ATOM      8  C   UNN dAMED      -0.342  -1.337   0.645  0.00  0.00     0.176 A 
ATOM      9  N   UNN dAMED       1.146  -1.174   0.571  0.00  0.00    -0.228 NA
ATOM     10  C   UNN dAMED      -0.645  -2.449  -0.311  0.00  0.00     0.351 A 
ATOM     11  C   UNN dAMED       0.611  -3.043  -0.906  0.00  0.00     0.330 A 
ATOM     12  C   UNN dAMED       1.720  -2.255  -0.215  0.00  0.00     0.107 C 
ATOM     13  O   UNN dAMED       3.776  -0.089   0.078  0.00  0.00    -0.286 OA
ATOM     14  O   UNN dAMED      -0.550   2.917  -0.826  0.00  0.00    -0.286 OA
ATOM     15  N   UNN dAMED      -0.216  -3.814  -0.018  0.00  0.00     0.326 N 
ATOM     16  C   UNN dAMED       4.261   2.577  -0.827  0.00  0.00     0.036 C 
ATOM     17  N   UNN dAMED       1.976   4.088  -1.273  0.00  0.00    -0.097 NA
ENDROOT
BRANCH   7  18
ATOM     18  C   UNN dAMED      -2.105   0.620   0.913  0.00  0.00     0.162 C 
BRANCH  18  19
ATOM     19  O   UNN dAMED      -2.867   1.658   0.367  0.00  0.00    -0.287 OA
BRANCH  19  20
ATOM     20  C   UNN dAMED      -3.572   1.096  -0.649  0.00  0.00     0.373 C 
ATOM     21  O   UNN dAMED      -3.173   0.126  -1.278  0.00  0.00    -0.242 OA
ATOM     22  N   UNN dAMED      -4.824   1.673  -1.007  0.00  0.00    -0.032 NA
ENDBRANCH  19  20
ENDBRANCH  18  19
ENDBRANCH   7  18
BRANCH   8  23
ATOM     23  O   UNN dAMED      -0.782  -1.631   1.959  0.00  0.00    -0.340 OA
ATOM     24  C   UNN dAMED      -1.498  -0.500   2.359  0.00  0.00     0.176 C 
ENDBRANCH   8  23
TORSDOF 4
