REMARK  10 active torsions:
REMARK  status: ('A' for Active; 'I' for Inactive)
REMARK    1  A    between atoms: C_9  and  C_13 
REMARK    2  A    between atoms: C_12  and  C_11 
REMARK    3  A    between atoms: C_12  and  C_13 
REMARK    4  A    between atoms: C_12  and  C_15 
REMARK    5  A    between atoms: C_17  and  C_20 
REMARK       I    between atoms: C_20  and  N_25 
REMARK    6  A    between atoms: CG_21  and  CB_22 
REMARK    7  A    between atoms: CG_21  and  CD_31 
REMARK    8  A    between atoms: CB_22  and  CA_23 
REMARK    9  A    between atoms: CA_23  and  N_25 
REMARK   10  A    between atoms: CA_23  and  C_28 
ROOT
ATOM      1  C   UNN dAMED       2.186  -0.098  -2.790  0.00  0.00     0.046 C 
ATOM      2  C   UNN dAMED       1.295  -0.523  -3.861  0.00  0.00    -0.051 C 
ATOM      3  C   UNN dAMED       0.569  -0.880  -4.747  0.00  0.00    -0.009 C 
ENDROOT
BRANCH   1   4
ATOM      4  C   UNN dAMED       2.521  -0.996  -1.584  0.00  0.00    -0.008 C 
BRANCH   4   5
ATOM      5  C   UNN dAMED       3.335  -0.391  -0.430  0.00  0.00     0.074 C 
BRANCH   5   6
ATOM      6  C   UNN dAMED       4.784  -0.048  -0.643  0.00  0.00     0.083 A 
ATOM      7  C   UNN dAMED       5.490  -0.702  -1.618  0.00  0.00     0.116 A 
ATOM      8  N   UNN dAMED       6.799  -0.467  -1.826  0.00  0.00    -0.223 NA
ATOM      9  C   UNN dAMED       7.418   0.436  -1.059  0.00  0.00     0.185 A 
ATOM     10  N   UNN dAMED       8.717   0.693  -1.249  0.00  0.00    -0.194 NA
ATOM     11  C   UNN dAMED       6.691   1.100  -0.074  0.00  0.00     0.148 A 
ATOM     12  C   UNN dAMED       9.307   1.616  -0.462  0.00  0.00     0.240 A 
ATOM     13  N   UNN dAMED       8.689   2.305   0.511  0.00  0.00    -0.199 NA
ATOM     14  N   UNN dAMED      10.687   1.887  -0.690  0.00  0.00    -0.059 NA
ATOM     15  C   UNN dAMED       7.383   2.025   0.679  0.00  0.00     0.174 A 
ATOM     16  N   UNN dAMED       6.669   2.725   1.693  0.00  0.00    -0.078 NA
ATOM     17  N   UNN dAMED       5.384   0.864   0.140  0.00  0.00    -0.242 NA
ENDBRANCH   5   6
ENDBRANCH   4   5
BRANCH   4  18
ATOM     18  C   UNN dAMED       2.391  -2.499  -1.681  0.00  0.00    -0.003 A 
ATOM     19  C   UNN dAMED       3.417  -3.246  -2.261  0.00  0.00    -0.000 A 
ATOM     20  C   UNN dAMED       3.334  -4.634  -2.311  0.00  0.00     0.005 A 
ATOM     21  C   UNN dAMED       2.213  -5.261  -1.773  0.00  0.00     0.058 A 
ATOM     22  C   UNN dAMED       1.169  -4.527  -1.212  0.00  0.00     0.005 A 
ATOM     23  C   UNN dAMED       1.264  -3.138  -1.164  0.00  0.00    -0.000 A 
BRANCH  21  24
ATOM     24  C   UNN dAMED       2.115  -6.722  -1.834  0.00  0.00     0.275 C 
ATOM     25  O   UNN dAMED       1.501  -7.215  -2.775  0.00  0.00    -0.266 OA
ATOM     26  N   UNN dAMED       2.688  -7.334  -0.799  0.00  0.00    -0.235 NA
BRANCH  26  27
ATOM     27  CA  UNN dAMED       3.200  -8.635  -1.191  0.00  0.00     0.224 C 
BRANCH  27  28
ATOM     28  CB  UNN dAMED       3.089  -8.764  -2.714  0.00  0.00     0.037 C 
BRANCH  28  29
ATOM     29  CG  UNN dAMED       4.358  -8.742  -3.569  0.00  0.00     0.100 C 
BRANCH  29  30
ATOM     30  CD  UNN dAMED       4.264  -8.426  -5.036  0.00  0.00     0.185 C 
ATOM     31  OE1 UNN dAMED       4.123  -7.205  -5.342  0.00  0.00    -0.647 OA
ATOM     32  OE2 UNN dAMED       4.293  -9.415  -5.827  0.00  0.00    -0.647 OA
ENDBRANCH  29  30
ENDBRANCH  28  29
ENDBRANCH  27  28
BRANCH  27  33
ATOM     33  C   UNN dAMED       4.674  -8.804  -0.795  0.00  0.00     0.199 C 
ATOM     34  O   UNN dAMED       5.137  -9.954  -1.049  0.00  0.00    -0.646 OA
ATOM     35  OXT UNN dAMED       5.262  -7.802  -0.303  0.00  0.00    -0.646 OA
ENDBRANCH  27  33
ENDBRANCH  26  27
ENDBRANCH  21  24
ENDBRANCH   4  18
ENDBRANCH   1   4
TORSDOF 10
