REMARK  5 active torsions:
REMARK  status: ('A' for Active; 'I' for Inactive)
REMARK    1  A    between atoms: C_3  and  O_31 
REMARK    2  A    between atoms: C_15  and  O_29 
REMARK    3  A    between atoms: C_17  and  C_20 
REMARK    4  A    between atoms: C_20  and  C_21 
REMARK    5  A    between atoms: C_25  and  O_29 
ROOT
ATOM      1  C   UNN dAMED      -7.075  -1.992  -1.639  0.00  0.00     0.002 A 
ATOM      2  C   UNN dAMED      -7.138  -0.714  -1.101  0.00  0.00     0.024 A 
ATOM      3  C   UNN dAMED      -5.963  -0.052  -0.746  0.00  0.00     0.097 A 
ATOM      4  C   UNN dAMED      -4.705  -0.644  -0.928  0.00  0.00     0.064 A 
ATOM      5  C   UNN dAMED      -4.654  -1.913  -1.483  0.00  0.00     0.044 A 
ATOM      6  C   UNN dAMED      -5.832  -2.587  -1.832  0.00  0.00     0.003 A 
ATOM      7  C   UNN dAMED      -3.448   0.014  -0.521  0.00  0.00     0.201 C 
ATOM      8  C   UNN dAMED      -2.113  -0.583  -0.894  0.00  0.00     0.084 A 
ATOM      9  C   UNN dAMED      -2.087  -1.877  -1.489  0.00  0.00     0.084 A 
ATOM     10  C   UNN dAMED      -3.380  -2.597  -1.711  0.00  0.00     0.199 C 
ATOM     11  C   UNN dAMED      -0.911   0.156  -0.627  0.00  0.00     0.201 A 
ATOM     12  C   UNN dAMED       0.286  -0.515  -0.950  0.00  0.00     0.060 A 
ATOM     13  C   UNN dAMED       0.287  -1.759  -1.604  0.00  0.00     0.042 A 
ATOM     14  C   UNN dAMED      -0.870  -2.501  -1.885  0.00  0.00     0.199 A 
ATOM     15  C   UNN dAMED       1.658   0.089  -0.639  0.00  0.00     0.081 C 
ATOM     16  C   UNN dAMED       2.885  -0.764  -0.969  0.00  0.00     0.093 C 
ATOM     17  C   UNN dAMED       2.902  -1.617  -2.234  0.00  0.00     0.204 C 
ATOM     18  C   UNN dAMED       1.601  -2.409  -1.999  0.00  0.00     0.014 C 
ATOM     19  O   UNN dAMED      -3.426  -3.764  -2.083  0.00  0.00    -0.286 OA
ATOM     20  O   UNN dAMED      -3.523   1.034   0.155  0.00  0.00    -0.286 OA
ATOM     21  O   UNN dAMED      -0.874   1.339  -0.146  0.00  0.00    -0.286 OA
ATOM     22  O   UNN dAMED      -0.745  -3.640  -2.453  0.00  0.00    -0.286 OA
ATOM     23  O   UNN dAMED       3.935  -2.407  -2.256  0.00  0.00    -0.213 OA
ENDROOT
BRANCH  15  24
ATOM     24  O   UNN dAMED       1.820   0.974   0.391  0.00  0.00    -0.309 OA
BRANCH  24  25
ATOM     25  C   UNN dAMED       1.982   1.855   1.419  0.00  0.00     0.249 C 
ATOM     26  O   UNN dAMED       3.059   1.679   2.282  0.00  0.00    -0.307 OA
ATOM     27  C   UNN dAMED       3.382   2.572   3.302  0.00  0.00     0.101 C 
ATOM     28  C   UNN dAMED       2.326   3.584   3.775  0.00  0.00     0.158 C 
ATOM     29  C   UNN dAMED       4.512   2.204   4.265  0.00  0.00     0.060 C 
ATOM     30  C   UNN dAMED       1.001   3.660   3.011  0.00  0.00     0.080 C 
ATOM     31  O   UNN dAMED       2.717   4.649   4.538  0.00  0.00    -0.188 OA
ATOM     32  C   UNN dAMED       0.749   2.563   1.977  0.00  0.00     0.105 C 
ATOM     33  N   UNN dAMED      -0.134   4.323   3.633  0.00  0.00    -0.103 NA
ENDBRANCH  24  25
ENDBRANCH  15  24
BRANCH  17  34
ATOM     34  C   UNN dAMED       2.875  -0.759  -3.457  0.00  0.00     0.215 C 
ATOM     35  O   UNN dAMED       3.232   0.414  -3.443  0.00  0.00    -0.290 OA
BRANCH  34  36
ATOM     36  C   UNN dAMED       2.587  -1.407  -4.785  0.00  0.00     0.249 C 
ATOM     37  O   UNN dAMED       1.369  -1.255  -5.393  0.00  0.00    -0.212 OA
ENDBRANCH  34  36
ENDBRANCH  17  34
BRANCH   3  38
ATOM     38  O   UNN dAMED      -6.115   1.198  -0.221  0.00  0.00    -0.328 OA
ATOM     39  C   UNN dAMED      -7.484   1.320   0.034  0.00  0.00     0.181 C 
ENDBRANCH   3  38
TORSDOF 5
