REMARK  1 active torsions:
REMARK  status: ('A' for Active; 'I' for Inactive)
REMARK    1  A    between atoms: C_11  and  O_13 
ROOT
ATOM      1  C   UNN dAMED      -1.757  -1.997  -0.336  0.00  0.00     0.007 A 
ATOM      2  C   UNN dAMED       0.735  -1.836  -0.216  0.00  0.00     0.004 A 
ATOM      3  C   UNN dAMED      -2.929  -1.372  -0.298  0.00  0.00     0.069 A 
ATOM      4  C   UNN dAMED      -0.508  -1.191  -0.179  0.00  0.00     0.025 A 
ATOM      5  C   UNN dAMED       1.899  -1.064  -0.067  0.00  0.00     0.027 A 
ATOM      6  C   UNN dAMED       3.291  -1.327  -0.047  0.00  0.00     0.029 A 
ATOM      7  C   UNN dAMED      -2.997   0.118  -0.104  0.00  0.00     0.300 A 
ATOM      8  C   UNN dAMED      -0.603   0.188   0.001  0.00  0.00     0.127 A 
ATOM      9  C   UNN dAMED       1.772   0.309   0.112  0.00  0.00     0.124 A 
ATOM     10  C   UNN dAMED       3.921  -0.116   0.140  0.00  0.00     0.123 A 
ATOM     11  C   UNN dAMED       0.546   0.967   0.151  0.00  0.00     0.140 A 
ATOM     12  O   UNN dAMED       3.000   0.884   0.237  0.00  0.00    -0.303 OA
ATOM     13  O   UNN dAMED      -1.834   0.865   0.043  0.00  0.00    -0.271 OA
ATOM     14  O   UNN dAMED      -4.104   0.643  -0.078  0.00  0.00    -0.259 OA
ENDROOT
BRANCH  11  15
ATOM     15  O   UNN dAMED       0.468   2.319   0.329  0.00  0.00    -0.324 OA
ATOM     16  C   UNN dAMED      -0.900   2.603   0.368  0.00  0.00     0.182 C 
ENDBRANCH  11  15
TORSDOF 1
