REMARK  5 active torsions:
REMARK  status: ('A' for Active; 'I' for Inactive)
REMARK    1  A    between atoms: N_2  and  C_7 
REMARK    2  A    between atoms: P_3  and  N_14 
REMARK    3  A    between atoms: C_7  and  C_8 
REMARK    4  A    between atoms: C_10  and  C_11 
REMARK    5  A    between atoms: C_10  and  N_14 
ROOT
ATOM      1  C   UNN dAMED      -1.957   1.871   0.723  0.00  0.00     0.085 C 
ATOM      2  N   UNN dAMED      -1.296   2.366  -0.503  0.00  0.00    -0.191 NA
ATOM      3  P   UNN dAMED      -0.150   1.384  -1.187  0.00  0.00     0.390 P 
ATOM      4  O   UNN dAMED      -0.792  -0.109  -1.290  0.00  0.00    -0.287 OA
ATOM      5  C   UNN dAMED      -1.165  -0.465   0.013  0.00  0.00     0.154 C 
ATOM      6  C   UNN dAMED      -2.222   0.374   0.732  0.00  0.00     0.051 C 
ATOM      7  O   UNN dAMED       0.461   1.830  -2.488  0.00  0.00    -0.246 OA
ENDROOT
BRANCH   3   8
ATOM      8  N   UNN dAMED       1.138   1.212  -0.069  0.00  0.00    -0.213 NA
BRANCH   8   9
ATOM      9  C   UNN dAMED       2.303   0.410  -0.413  0.00  0.00     0.148 C 
BRANCH   9  10
ATOM     10  C   UNN dAMED       2.421  -1.035   0.085  0.00  0.00     0.121 C 
ATOM     11 CL   UNN dAMED       3.113  -1.372   1.662  0.00  0.00    -0.112 Cl
ENDBRANCH   9  10
ENDBRANCH   8   9
ENDBRANCH   3   8
BRANCH   2  12
ATOM     12  C   UNN dAMED      -2.730   2.004  -0.639  0.00  0.00     0.100 C 
BRANCH  12  13
ATOM     13  C   UNN dAMED      -3.758   3.065  -1.040  0.00  0.00     0.113 C 
ATOM     14 CL   UNN dAMED      -5.043   3.499   0.072  0.00  0.00    -0.112 Cl
ENDBRANCH  12  13
ENDBRANCH   2  12
TORSDOF 5
