REMARK  1 active torsions:
REMARK  status: ('A' for Active; 'I' for Inactive)
REMARK    1  A    between atoms: C4*_12  and  C5*_14 
ROOT
ATOM      1  O4* UNN dAMED      -1.796  -0.503  -1.573  0.00  0.00    -0.288 OA
ATOM      2  N1  UNN dAMED       0.673  -0.522  -1.608  0.00  0.00    -0.236 N 
ATOM      3  N3  UNN dAMED       2.207  -2.267  -2.212  0.00  0.00    -0.178 NA
ATOM      4  O2  UNN dAMED       0.347  -2.671  -0.977  0.00  0.00    -0.244 OA
ATOM      5  C4  UNN dAMED       2.768  -1.498  -3.083  0.00  0.00     0.157 C 
ATOM      6  C5  UNN dAMED       2.056  -0.273  -3.535  0.00  0.00     0.053 C 
ATOM      7  C6  UNN dAMED       0.977   0.086  -2.853  0.00  0.00     0.089 C 
ATOM      8  C2  UNN dAMED       1.033  -1.864  -1.609  0.00  0.00     0.356 C 
ATOM      9  C1* UNN dAMED      -0.551  -0.403  -0.888  0.00  0.00     0.199 A 
ATOM     10  C2* UNN dAMED      -0.621   0.310   0.468  0.00  0.00     0.198 A 
ATOM     11  C3* UNN dAMED      -2.099   0.557   0.658  0.00  0.00     0.181 A 
ATOM     12  C4* UNN dAMED      -2.711   0.073  -0.651  0.00  0.00     0.140 A 
ATOM     13  O3* UNN dAMED      -2.567   1.698   1.257  0.00  0.00    -0.186 OA
ATOM     14  O2* UNN dAMED       0.169  -0.088   1.520  0.00  0.00    -0.184 OA
ATOM     15  N4  UNN dAMED       3.988  -1.904  -3.693  0.00  0.00    -0.080 NA
ENDROOT
BRANCH  12  16
ATOM     16  C5* UNN dAMED      -4.218  -0.172  -0.778  0.00  0.00     0.235 C 
ATOM     17  O5* UNN dAMED      -4.764  -1.344  -0.333  0.00  0.00    -0.213 OA
ENDBRANCH  12  16
TORSDOF 1
