REMARK  1 active torsions:
REMARK  status: ('A' for Active; 'I' for Inactive)
REMARK    1  A    between atoms: C4*_13  and  C5*_16 
ROOT
ATOM      1  F   UNN dAMED      -2.826   2.804  -0.057  0.00  0.00    -0.198 F 
ATOM      2  O4* UNN dAMED       1.576   0.581  -0.219  0.00  0.00    -0.316 OA
ATOM      3  O   UNN dAMED      -4.303   0.433  -0.141  0.00  0.00    -0.263 OA
ATOM      4  N   UNN dAMED      -0.702  -0.023  -0.884  0.00  0.00    -0.154 NA
ATOM      5  O   UNN dAMED      -0.632  -1.678   0.690  0.00  0.00    -0.251 OA
ATOM      6  C   UNN dAMED      -3.152   0.443   0.103  0.00  0.00     0.311 C 
ATOM      7  C   UNN dAMED      -2.436   1.562  -0.422  0.00  0.00     0.209 C 
ATOM      8  C   UNN dAMED      -1.180   1.323  -0.811  0.00  0.00     0.092 C 
ATOM      9  C   UNN dAMED      -1.246  -0.738   0.187  0.00  0.00     0.333 C 
ATOM     10  C1* UNN dAMED       0.685  -0.311  -0.877  0.00  0.00     0.199 A 
ATOM     11  C2* UNN dAMED       1.144  -1.767  -0.908  0.00  0.00     0.104 A 
ATOM     12  C3* UNN dAMED       2.491  -1.728  -0.254  0.00  0.00     0.133 A 
ATOM     13  C4* UNN dAMED       2.644  -0.265   0.181  0.00  0.00     0.128 A 
ATOM     14  O3* UNN dAMED       2.926  -2.774   0.527  0.00  0.00    -0.193 OA
ATOM     15  N   UNN dAMED      -2.443  -0.269   0.712  0.00  0.00    -0.156 NA
ENDROOT
BRANCH  13  16
ATOM     16  C5* UNN dAMED       4.038   0.314   0.475  0.00  0.00     0.235 C 
ATOM     17  O5* UNN dAMED       5.067   0.159  -0.417  0.00  0.00    -0.213 OA
ENDBRANCH  13  16
TORSDOF 1
