REMARK  5 active torsions:
REMARK  status: ('A' for Active; 'I' for Inactive)
REMARK    1  A    between atoms: C_21  and  O_4 
REMARK    2  A    between atoms: O_4  and  C_25 
REMARK    3  A    between atoms: C_9  and  C_5 
REMARK    4  A    between atoms: C_5  and  C_6 
REMARK    5  A    between atoms: C_24  and  O_30 
ROOT
ATOM      1  O   UNN dAMED      -0.082   4.009  -0.080  0.00  0.00    -0.286 OA
ATOM      2  O   UNN dAMED      -4.741   1.985   1.513  0.00  0.00    -0.286 OA
ATOM      3  C   UNN dAMED      -2.643   0.075   1.204  0.00  0.00     0.199 A 
ATOM      4  C   UNN dAMED      -1.517  -0.713   0.930  0.00  0.00     0.042 A 
ATOM      5  C   UNN dAMED      -0.794  -3.297   0.779  0.00  0.00     0.204 C 
ATOM      6  C   UNN dAMED      -1.605  -2.150   1.399  0.00  0.00     0.014 C 
ATOM      7  C   UNN dAMED      -2.479   1.465   0.944  0.00  0.00     0.084 A 
ATOM      8  C   UNN dAMED      -3.631   2.393   1.190  0.00  0.00     0.199 A 
ATOM      9  C   UNN dAMED      -3.460   3.839   1.043  0.00  0.00     0.044 A 
ATOM     10  C   UNN dAMED      -4.552   4.662   1.345  0.00  0.00     0.003 A 
ATOM     11  C   UNN dAMED      -4.445   6.045   1.253  0.00  0.00     0.002 A 
ATOM     12  C   UNN dAMED       0.596  -2.660   0.719  0.00  0.00     0.093 C 
ATOM     13  C   UNN dAMED      -0.312  -0.214   0.403  0.00  0.00     0.060 A 
ATOM     14  C   UNN dAMED      -1.254   1.999   0.455  0.00  0.00     0.084 A 
ATOM     15  C   UNN dAMED      -2.254   4.388   0.639  0.00  0.00     0.064 A 
ATOM     16  C   UNN dAMED      -3.237   6.609   0.865  0.00  0.00     0.024 A 
ATOM     17  C   UNN dAMED       0.771  -1.263   0.116  0.00  0.00     0.081 C 
ATOM     18  C   UNN dAMED      -0.132   1.160   0.130  0.00  0.00     0.201 A 
ATOM     19  C   UNN dAMED      -1.127   3.495   0.303  0.00  0.00     0.201 A 
ATOM     20  C   UNN dAMED      -2.155   5.785   0.561  0.00  0.00     0.097 A 
ATOM     21  O   UNN dAMED       0.967   1.583  -0.365  0.00  0.00    -0.286 OA
ATOM     22  O   UNN dAMED      -3.688  -0.496   1.667  0.00  0.00    -0.286 OA
ATOM     23  O   UNN dAMED      -0.793  -4.342   1.554  0.00  0.00    -0.213 OA
ENDROOT
BRANCH  17  24
ATOM     24  O   UNN dAMED       2.035  -0.942  -0.320  0.00  0.00    -0.309 OA
BRANCH  24  25
ATOM     25  C   UNN dAMED       3.360  -0.650  -0.512  0.00  0.00     0.249 C 
ATOM     26  O   UNN dAMED       4.154  -0.371   0.600  0.00  0.00    -0.307 OA
ATOM     27  C   UNN dAMED       5.458   0.105   0.469  0.00  0.00     0.101 C 
ATOM     28  C   UNN dAMED       6.288  -0.332  -0.745  0.00  0.00     0.158 C 
ATOM     29  C   UNN dAMED       6.178   0.664   1.700  0.00  0.00     0.060 C 
ATOM     30  C   UNN dAMED       5.501  -0.708  -2.000  0.00  0.00     0.080 C 
ATOM     31  O   UNN dAMED       7.563   0.141  -0.879  0.00  0.00    -0.188 OA
ATOM     32  C   UNN dAMED       4.059  -1.162  -1.775  0.00  0.00     0.105 C 
ATOM     33  N   UNN dAMED       6.216  -1.146  -3.188  0.00  0.00    -0.103 NA
ENDBRANCH  24  25
ENDBRANCH  17  24
BRANCH   5  34
ATOM     34  C   UNN dAMED      -1.305  -3.682  -0.571  0.00  0.00     0.215 C 
ATOM     35  O   UNN dAMED      -1.012  -3.066  -1.589  0.00  0.00    -0.290 OA
BRANCH  34  36
ATOM     36  C   UNN dAMED      -2.129  -4.941  -0.693  0.00  0.00     0.249 C 
ATOM     37  O   UNN dAMED      -3.488  -4.881  -0.868  0.00  0.00    -0.212 OA
ENDBRANCH  34  36
ENDBRANCH   5  34
BRANCH  20  38
ATOM     38  O   UNN dAMED      -0.998   6.416   0.203  0.00  0.00    -0.328 OA
ATOM     39  C   UNN dAMED      -0.994   6.411  -1.194  0.00  0.00     0.181 C 
ENDBRANCH  20  38
TORSDOF 5
