REMARK  8 active torsions:
REMARK  status: ('A' for Active; 'I' for Inactive)
REMARK    1  A    between atoms: C_2  and  O_1 
REMARK    2  A    between atoms: C_3  and  O_1 
REMARK    3  A    between atoms: O_15  and  C_9 
REMARK    4  A    between atoms: C_17  and  C_10 
REMARK    5  A    between atoms: O_18  and  C_10 
REMARK    6  A    between atoms: N_19  and  C_11 
REMARK    7  A    between atoms: O_22  and  C_13 
REMARK    8  A    between atoms: O_27  and  C_20 
ROOT
ATOM      1  C   UNN dAMED       1.115   0.212   1.236  0.00  0.00     0.079 C 
ATOM      2  C   UNN dAMED      -0.169   0.165   2.024  0.00  0.00     0.042 A 
ATOM      3  C   UNN dAMED       1.353   1.518   0.470  0.00  0.00     0.089 C 
ATOM      4  C   UNN dAMED      -0.743   1.383   2.370  0.00  0.00     0.024 A 
ATOM      5  C   UNN dAMED      -0.789  -1.029   2.407  0.00  0.00     0.094 A 
ATOM      6  C   UNN dAMED       1.223   2.849   1.233  0.00  0.00     0.164 C 
ATOM      7  C   UNN dAMED      -1.941   1.406   3.075  0.00  0.00     0.092 A 
ATOM      8  C   UNN dAMED      -0.176   2.693   1.870  0.00  0.00     0.009 C 
ATOM      9  C   UNN dAMED      -1.993  -1.017   3.135  0.00  0.00     0.066 A 
ATOM     10  C   UNN dAMED      -2.576   0.218   3.469  0.00  0.00     0.066 A 
ATOM     11  C   UNN dAMED      -2.661  -2.284   3.549  0.00  0.00     0.198 A 
ATOM     12  C   UNN dAMED      -3.857   0.262   4.215  0.00  0.00     0.198 A 
ATOM     13  O   UNN dAMED      -2.180  -3.382   3.296  0.00  0.00    -0.286 OA
ATOM     14  C   UNN dAMED      -3.932  -2.216   4.290  0.00  0.00     0.042 A 
ATOM     15  O   UNN dAMED      -4.393   1.324   4.510  0.00  0.00    -0.286 OA
ATOM     16  C   UNN dAMED      -4.506  -0.993   4.606  0.00  0.00     0.042 A 
ATOM     17  C   UNN dAMED      -4.561  -3.398   4.685  0.00  0.00     0.003 A 
ATOM     18  C   UNN dAMED      -5.709  -0.940   5.313  0.00  0.00     0.003 A 
ATOM     19  C   UNN dAMED      -5.759  -3.348   5.395  0.00  0.00     0.000 A 
ATOM     20  C   UNN dAMED      -6.334  -2.119   5.709  0.00  0.00     0.000 A 
ENDROOT
BRANCH   1  21
ATOM     21  O   UNN dAMED       2.235  -0.462   1.719  0.00  0.00    -0.309 OA
BRANCH  21  22
ATOM     22  C   UNN dAMED       2.822  -1.480   0.975  0.00  0.00     0.249 C 
ATOM     23  C   UNN dAMED       2.179  -1.938  -0.329  0.00  0.00     0.101 C 
ATOM     24  C   UNN dAMED       2.504  -3.366  -0.741  0.00  0.00     0.036 C 
ATOM     25  C   UNN dAMED       3.749  -3.987  -0.090  0.00  0.00     0.114 C 
ATOM     26  C   UNN dAMED       4.368  -3.215   1.094  0.00  0.00     0.097 C 
ATOM     27  O   UNN dAMED       4.151  -1.836   1.209  0.00  0.00    -0.307 OA
ATOM     28  C   UNN dAMED       5.533  -3.838   1.871  0.00  0.00     0.060 C 
BRANCH  24  29
ATOM     29  N   UNN dAMED       1.940  -3.895  -1.973  0.00  0.00    -0.303 NA
ATOM     30  H   UNN dAMED       2.408  -3.716  -2.861  0.00  0.00     0.124 HD
ATOM     31  H   UNN dAMED       0.947  -3.757  -2.160  0.00  0.00     0.124 HD
ENDBRANCH  24  29
BRANCH  25  32
ATOM     32  O   UNN dAMED       3.942  -5.371  -0.170  0.00  0.00    -0.357 OA
ATOM     33  H   UNN dAMED       4.671  -5.566   0.442  0.00  0.00     0.218 HD
ENDBRANCH  25  32
ENDBRANCH  21  22
ENDBRANCH   1  21
BRANCH   5  34
ATOM     34  O   UNN dAMED      -0.209  -2.204   2.015  0.00  0.00    -0.359 OA
ATOM     35  H   UNN dAMED       0.747  -2.125   2.178  0.00  0.00     0.217 HD
ENDBRANCH   5  34
BRANCH   6  36
ATOM     36  C   UNN dAMED       2.291   2.992   2.280  0.00  0.00     0.179 C 
ATOM     37  C   UNN dAMED       1.899   2.821   3.721  0.00  0.00     0.075 C 
ATOM     38  O   UNN dAMED       3.431   3.363   2.029  0.00  0.00    -0.293 OA
ENDBRANCH   6  36
BRANCH   6  39
ATOM     39  O   UNN dAMED       1.216   3.943   0.345  0.00  0.00    -0.376 OA
ATOM     40  H   UNN dAMED       2.111   4.318   0.306  0.00  0.00     0.211 HD
ENDBRANCH   6  39
BRANCH   7  41
ATOM     41  O   UNN dAMED      -2.421   2.655   3.358  0.00  0.00    -0.359 OA
ATOM     42  H   UNN dAMED      -3.385   2.600   3.469  0.00  0.00     0.217 HD
ENDBRANCH   7  41
TORSDOF 8
