REMARK  4 active torsions:
REMARK  status: ('A' for Active; 'I' for Inactive)
REMARK    1  A    between atoms: C_19  and  O_4 
REMARK    2  A    between atoms: O_4  and  C_23 
REMARK    3  A    between atoms: C_7  and  C_35 
REMARK    4  A    between atoms: C_22  and  O_28 
ROOT
ATOM      1  O   UNN dAMED       2.124   5.740   0.424  0.00  0.00    -0.286 OA
ATOM      2  O   UNN dAMED      -1.755   5.062  -2.984  0.00  0.00    -0.286 OA
ATOM      3  C   UNN dAMED      -0.834   2.593  -1.824  0.00  0.00     0.199 A 
ATOM      4  C   UNN dAMED      -0.123   1.540  -1.245  0.00  0.00     0.042 A 
ATOM      5  C   UNN dAMED      -0.133  -1.124  -0.816  0.00  0.00     0.202 C 
ATOM      6  C   UNN dAMED      -0.442   0.122  -1.684  0.00  0.00     0.014 C 
ATOM      7  C   UNN dAMED      -0.391   3.888  -1.416  0.00  0.00     0.084 A 
ATOM      8  C   UNN dAMED      -1.070   5.101  -1.971  0.00  0.00     0.199 C 
ATOM      9  C   UNN dAMED      -0.930   6.377  -1.268  0.00  0.00     0.044 A 
ATOM     10  C   UNN dAMED      -1.839   7.397  -1.555  0.00  0.00     0.003 A 
ATOM     11  C   UNN dAMED      -1.741   8.620  -0.898  0.00  0.00     0.002 A 
ATOM     12  C   UNN dAMED       0.880  -0.700   0.254  0.00  0.00     0.093 C 
ATOM     13  C   UNN dAMED       0.963   1.744  -0.381  0.00  0.00     0.060 A 
ATOM     14  C   UNN dAMED       0.681   4.084  -0.494  0.00  0.00     0.084 A 
ATOM     15  C   UNN dAMED       0.085   6.569  -0.342  0.00  0.00     0.064 A 
ATOM     16  C   UNN dAMED      -0.732   8.826   0.037  0.00  0.00     0.024 A 
ATOM     17  C   UNN dAMED       1.746   0.522  -0.023  0.00  0.00     0.081 C 
ATOM     18  C   UNN dAMED       1.406   2.996   0.060  0.00  0.00     0.201 A 
ATOM     19  C   UNN dAMED       1.046   5.481  -0.097  0.00  0.00     0.201 C 
ATOM     20  C   UNN dAMED       0.170   7.802   0.310  0.00  0.00     0.097 A 
ATOM     21  O   UNN dAMED       2.371   3.068   0.891  0.00  0.00    -0.286 OA
ATOM     22  O   UNN dAMED      -1.787   2.337  -2.635  0.00  0.00    -0.286 OA
ATOM     23  O   UNN dAMED      -1.212  -1.563  -0.230  0.00  0.00    -0.213 OA
ENDROOT
BRANCH  17  24
ATOM     24  O   UNN dAMED       2.970   0.329  -0.649  0.00  0.00    -0.309 OA
BRANCH  24  25
ATOM     25  C   UNN dAMED       3.453  -0.784  -1.317  0.00  0.00     0.249 C 
ATOM     26  O   UNN dAMED       4.829  -0.942  -1.461  0.00  0.00    -0.307 OA
ATOM     27  C   UNN dAMED       5.352  -1.915  -2.316  0.00  0.00     0.101 C 
ATOM     28  C   UNN dAMED       4.559  -3.204  -2.568  0.00  0.00     0.158 C 
ATOM     29  C   UNN dAMED       6.845  -1.885  -2.658  0.00  0.00     0.060 C 
ATOM     30  C   UNN dAMED       3.052  -3.148  -2.327  0.00  0.00     0.080 C 
ATOM     31  O   UNN dAMED       5.041  -4.098  -3.480  0.00  0.00    -0.188 OA
ATOM     32  C   UNN dAMED       2.566  -2.027  -1.418  0.00  0.00     0.105 C 
ATOM     33  N   UNN dAMED       2.280  -4.376  -2.402  0.00  0.00    -0.103 NA
ENDBRANCH  24  25
ENDBRANCH  17  24
BRANCH   5  34
ATOM     34  C   UNN dAMED       0.484  -2.190  -1.691  0.00  0.00     0.183 C 
ATOM     35  O   UNN dAMED      -0.137  -2.790  -2.566  0.00  0.00    -0.293 OA
ATOM     36  C   UNN dAMED       1.983  -2.163  -1.813  0.00  0.00     0.075 C 
ENDBRANCH   5  34
BRANCH  20  37
ATOM     37  O   UNN dAMED       1.119   8.044   1.260  0.00  0.00    -0.328 OA
ATOM     38  C   UNN dAMED       1.890   6.878   1.305  0.00  0.00     0.181 C 
ENDBRANCH  20  37
TORSDOF 4
