REMARK  11 active torsions:
REMARK  status: ('A' for Active; 'I' for Inactive)
REMARK    1  A    between atoms: C_19  and  O_32 
REMARK    2  A    between atoms: C_20  and  O_21 
REMARK    3  A    between atoms: O_21  and  C_22 
REMARK    4  A    between atoms: C_22  and  C_23 
REMARK    5  A    between atoms: C_23  and  C_25 
REMARK    6  A    between atoms: C_23  and  C_26 
REMARK    7  A    between atoms: C_25  and  C_36 
REMARK    8  A    between atoms: C_26  and  C_27 
REMARK    9  A    between atoms: C_27  and  C_30 
REMARK   10  A    between atoms: C_28  and  C_30 
REMARK   11  A    between atoms: C_36  and  O_38 
ROOT
ATOM      1  C   UNN dAMED       0.953   4.735  -1.806  0.00  0.00     0.119 A 
ATOM      2  C   UNN dAMED       0.740   6.037  -1.372  0.00  0.00     0.119 A 
ATOM      3  C   UNN dAMED      -0.231   6.381  -0.440  0.00  0.00     0.022 A 
ATOM      4  C   UNN dAMED      -0.949   5.271   0.068  0.00  0.00    -0.022 A 
ATOM      5  C   UNN dAMED      -0.740   3.929  -0.366  0.00  0.00    -0.022 A 
ATOM      6  C   UNN dAMED       0.219   3.653  -1.356  0.00  0.00     0.022 A 
ATOM      7  O   UNN dAMED       2.000   4.706  -2.681  0.00  0.00    -0.300 OA
ATOM      8  C   UNN dAMED       2.359   6.018  -2.751  0.00  0.00     0.304 A 
ATOM      9  O   UNN dAMED       1.625   6.875  -1.984  0.00  0.00    -0.300 OA
ATOM     10  C   UNN dAMED      -2.182   5.549   0.870  0.00  0.00     0.061 C 
ATOM     11  C   UNN dAMED      -3.541   5.231   0.245  0.00  0.00     0.255 C 
ATOM     12  N   UNN dAMED      -3.827   3.855  -0.166  0.00  0.00     0.137 N 
ATOM     13  C   UNN dAMED      -2.959   2.759   0.257  0.00  0.00     0.216 C 
ATOM     14  C   UNN dAMED      -1.434   2.770   0.329  0.00  0.00     0.125 C 
ATOM     15  C   UNN dAMED      -5.058   3.946   0.659  0.00  0.00     0.251 C 
ATOM     16  C   UNN dAMED      -5.076   2.758   1.604  0.00  0.00     0.038 C 
ATOM     17  C   UNN dAMED      -3.699   2.096   1.468  0.00  0.00     0.038 C 
ATOM     18  C   UNN dAMED      -3.358   1.413  -0.405  0.00  0.00     0.030 C 
ATOM     19  C   UNN dAMED      -2.352   0.641  -0.833  0.00  0.00     0.110 C 
ATOM     20  C   UNN dAMED      -1.118   1.366  -0.300  0.00  0.00     0.102 C 
ENDROOT
BRANCH  20  21
ATOM     21  O   UNN dAMED       0.128   0.971  -0.833  0.00  0.00    -0.277 OA
BRANCH  21  22
ATOM     22  C   UNN dAMED       1.047   0.937   0.163  0.00  0.00     0.308 C 
ATOM     23  O   UNN dAMED       1.460   1.923   0.759  0.00  0.00    -0.261 OA
BRANCH  22  24
ATOM     24  C   UNN dAMED       1.528  -0.462   0.422  0.00  0.00     0.227 C 
ATOM     25  O   UNN dAMED       2.705  -0.565  -0.147  0.00  0.00    -0.211 OA
BRANCH  24  26
ATOM     26  C   UNN dAMED       0.573  -1.469  -0.233  0.00  0.00     0.081 C 
BRANCH  26  27
ATOM     27  C   UNN dAMED      -0.306  -2.413   0.556  0.00  0.00     0.295 C 
ATOM     28  O   UNN dAMED      -1.101  -3.105  -0.065  0.00  0.00    -0.259 OA
BRANCH  27  29
ATOM     29  O   UNN dAMED      -0.325  -2.335   1.913  0.00  0.00    -0.296 OA
ATOM     30  C   UNN dAMED      -1.469  -3.046   2.287  0.00  0.00     0.185 C 
ENDBRANCH  27  29
ENDBRANCH  26  27
ENDBRANCH  24  26
BRANCH  24  31
ATOM     31  C   UNN dAMED       1.694  -0.599   1.936  0.00  0.00     0.045 C 
BRANCH  31  32
ATOM     32  C   UNN dAMED       1.195   0.538   2.835  0.00  0.00     0.006 C 
BRANCH  32  33
ATOM     33  C   UNN dAMED      -0.105   0.390   3.635  0.00  0.00     0.031 C 
BRANCH  33  34
ATOM     34  C   UNN dAMED      -0.043   0.077   5.456  0.00  0.00     0.127 C 
ATOM     35  C   UNN dAMED      -0.104   0.391   3.641  0.00  0.00     0.033 C 
ATOM     36  C   UNN dAMED      -0.104   0.386   3.639  0.00  0.00     0.033 C 
ATOM     37  O   UNN dAMED       0.323   1.188   6.047  0.00  0.00    -0.226 OA
ENDBRANCH  33  34
ENDBRANCH  32  33
ENDBRANCH  31  32
ENDBRANCH  24  31
ENDBRANCH  22  24
ENDBRANCH  21  22
ENDBRANCH  20  21
BRANCH  19  38
ATOM     38  O   UNN dAMED      -2.467  -0.723  -0.823  0.00  0.00    -0.327 OA
ATOM     39  C   UNN dAMED      -1.161  -1.216  -0.816  0.00  0.00     0.181 C 
ENDBRANCH  19  38
TORSDOF 11
