REMARK  8 active torsions:
REMARK  status: ('A' for Active; 'I' for Inactive)
REMARK    1  A    between atoms: C_9  and  C_28 
REMARK    2  A    between atoms: C_18  and  N_52 
REMARK    3  A    between atoms: C_19  and  C_26 
REMARK    4  A    between atoms: C_20  and  C_27 
REMARK       I    between atoms: C_28  and  N_52 
REMARK    5  A    between atoms: C_57  and  C_70 
REMARK    6  A    between atoms: C_60  and  N_90 
REMARK    7  A    between atoms: C_61  and  C_68 
REMARK    8  A    between atoms: C_62  and  C_69 
REMARK       I    between atoms: C_70  and  N_90 
ROOT
ATOM      1  C   UNN dAMED      -1.333   0.163   4.701  0.00  0.00    -0.002 A 
ATOM      2  C   UNN dAMED      -1.599   0.540   3.388  0.00  0.00     0.006 A 
ATOM      3  C   UNN dAMED      -2.320   0.293   5.670  0.00  0.00     0.002 A 
ATOM      4  C   UNN dAMED      -6.793   1.040   6.844  0.00  0.00     0.042 A 
ATOM      5  C   UNN dAMED      -2.848   1.070   3.033  0.00  0.00     0.077 A 
ATOM      6  C   UNN dAMED      -8.438   1.883   5.137  0.00  0.00     0.115 A 
ATOM      7  C   UNN dAMED      -3.856   1.199   4.010  0.00  0.00     0.108 A 
ATOM      8  C   UNN dAMED      -8.184   1.348   6.485  0.00  0.00     0.207 A 
ATOM      9  C   UNN dAMED      -3.574   0.788   5.319  0.00  0.00     0.114 A 
ATOM     10  C   UNN dAMED      -6.071   1.634   4.563  0.00  0.00     0.110 A 
ATOM     11  C   UNN dAMED      -5.809   1.159   5.950  0.00  0.00     0.117 A 
ATOM     12  N   UNN dAMED      -5.133   1.684   3.671  0.00  0.00    -0.241 NA
ATOM     13  O   UNN dAMED      -9.097   1.187   7.288  0.00  0.00    -0.286 OA
ATOM     14  O   UNN dAMED      -4.516   0.827   6.317  0.00  0.00    -0.305 OA
ATOM     15  C   UNN dAMED      -6.474   0.572   8.238  0.00  0.00     0.037 C 
ATOM     16  C   UNN dAMED      -2.038  -0.122   7.086  0.00  0.00     0.033 C 
ATOM     17  N   UNN dAMED      -9.774   2.232   4.791  0.00  0.00    -0.097 NA
ATOM     18  C   UNN dAMED      -7.471   2.048   4.227  0.00  0.00     0.094 A 
ENDROOT
BRANCH   5  19
ATOM     19  C   UNN dAMED      -2.988   1.513   1.616  0.00  0.00     0.281 C 
ATOM     20  O   UNN dAMED      -2.001   1.971   1.047  0.00  0.00    -0.265 OA
ATOM     21  N   UNN dAMED      -4.199   1.406   1.084  0.00  0.00    -0.201 NA
BRANCH  21  22
ATOM     22  C   UNN dAMED      -4.595   0.301   0.220  0.00  0.00     0.161 C 
ATOM     23  C   UNN dAMED      -5.232   0.659  -1.138  0.00  0.00     0.104 C 
ATOM     24  O   UNN dAMED      -6.492   0.158  -1.493  0.00  0.00    -0.275 OA
ATOM     25  C   UNN dAMED      -4.532   1.658  -2.063  0.00  0.00     0.060 C 
ATOM     26  C   UNN dAMED      -7.326   1.234  -1.513  0.00  0.00     0.315 C 
ATOM     27  C   UNN dAMED      -8.770   1.019  -1.893  0.00  0.00     0.118 C 
ATOM     28  O   UNN dAMED      -6.943   2.374  -1.287  0.00  0.00    -0.257 OA
ATOM     29  N   UNN dAMED      -9.489  -0.032  -1.289  0.00  0.00    -0.292 N 
ATOM     30  C   UNN dAMED     -10.581  -0.321  -2.077  0.00  0.00     0.260 C 
ATOM     31  C   UNN dAMED      -9.471  -0.978  -0.244  0.00  0.00     0.134 C 
ATOM     32  C   UNN dAMED     -11.449  -1.504  -1.688  0.00  0.00     0.193 C 
ATOM     33  O   UNN dAMED     -10.948   0.365  -3.023  0.00  0.00    -0.270 OA
ATOM     34  N   UNN dAMED     -10.880  -2.661  -1.097  0.00  0.00    -0.306 N 
ATOM     35  C   UNN dAMED     -11.031  -2.539   0.266  0.00  0.00     0.264 C 
ATOM     36  C   UNN dAMED      -9.922  -3.672  -1.321  0.00  0.00     0.129 C 
ATOM     37  C   UNN dAMED     -10.130  -3.363   1.156  0.00  0.00     0.076 C 
ATOM     38  O   UNN dAMED     -11.779  -1.728   0.802  0.00  0.00    -0.267 OA
ATOM     39  C   UNN dAMED     -10.540  -4.730   1.697  0.00  0.00     0.044 C 
ATOM     40  N   UNN dAMED      -9.081  -2.731   1.929  0.00  0.00    -0.197 NA
ATOM     41  C   UNN dAMED      -9.599  -4.966   2.856  0.00  0.00     0.024 C 
ATOM     42  C   UNN dAMED      -8.853  -3.644   3.028  0.00  0.00     0.085 C 
ATOM     43  C   UNN dAMED      -7.937  -2.701   1.165  0.00  0.00     0.257 C 
ATOM     44  C   UNN dAMED      -6.641  -2.388   1.864  0.00  0.00     0.127 C 
ATOM     45  O   UNN dAMED      -7.899  -2.912  -0.041  0.00  0.00    -0.272 OA
ATOM     46  N   UNN dAMED      -5.983  -1.116   1.608  0.00  0.00    -0.203 NA
ATOM     47  C   UNN dAMED      -4.913  -1.053   0.826  0.00  0.00     0.299 C 
ATOM     48  O   UNN dAMED      -4.273  -2.007   0.402  0.00  0.00    -0.263 OA
BRANCH  27  49
ATOM     49  C   UNN dAMED      -9.328   1.687  -3.154  0.00  0.00    -0.022 C 
ATOM     50  C   UNN dAMED      -8.705   1.351  -4.511  0.00  0.00     0.028 C 
ATOM     51  C   UNN dAMED     -10.737   2.287  -3.115  0.00  0.00     0.028 C 
ENDBRANCH  27  49
BRANCH  44  52
ATOM     52  C   UNN dAMED      -5.940  -3.468   2.691  0.00  0.00    -0.022 C 
ATOM     53  C   UNN dAMED      -6.736  -4.231   3.751  0.00  0.00     0.028 C 
ATOM     54  C   UNN dAMED      -4.520  -3.914   2.334  0.00  0.00     0.028 C 
ENDBRANCH  44  52
ENDBRANCH  21  22
ENDBRANCH   5  19
BRANCH  18  55
ATOM     55  C   UNN dAMED      -7.829   2.651   2.889  0.00  0.00     0.282 C 
ATOM     56  O   UNN dAMED      -6.941   3.011   2.120  0.00  0.00    -0.265 OA
ATOM     57  N   UNN dAMED      -9.127   2.758   2.629  0.00  0.00    -0.201 NA
BRANCH  57  58
ATOM     58  C   UNN dAMED     -10.158   2.645   3.655  0.00  0.00     0.161 C 
ATOM     59  C   UNN dAMED     -10.879   1.288   3.743  0.00  0.00     0.104 C 
ATOM     60  O   UNN dAMED     -11.882   1.079   4.695  0.00  0.00    -0.275 OA
ATOM     61  C   UNN dAMED     -10.247   0.076   3.055  0.00  0.00     0.060 C 
ATOM     62  C   UNN dAMED     -12.939   0.580   3.998  0.00  0.00     0.315 C 
ATOM     63  C   UNN dAMED     -14.215   0.286   4.744  0.00  0.00     0.118 C 
ATOM     64  O   UNN dAMED     -12.926   0.436   2.782  0.00  0.00    -0.257 OA
ATOM     65  N   UNN dAMED     -14.944   1.350   5.313  0.00  0.00    -0.292 N 
ATOM     66  C   UNN dAMED     -15.605   0.849   6.412  0.00  0.00     0.260 C 
ATOM     67  C   UNN dAMED     -15.191   2.737   5.285  0.00  0.00     0.134 C 
ATOM     68  C   UNN dAMED     -16.357   1.829   7.280  0.00  0.00     0.193 C 
ATOM     69  O   UNN dAMED     -15.532  -0.312   6.797  0.00  0.00    -0.270 OA
ATOM     70  N   UNN dAMED     -15.655   2.784   8.050  0.00  0.00    -0.306 N 
ATOM     71  C   UNN dAMED     -15.663   3.966   7.343  0.00  0.00     0.264 C 
ATOM     72  C   UNN dAMED     -14.721   2.938   9.093  0.00  0.00     0.129 C 
ATOM     73  C   UNN dAMED     -14.688   5.040   7.767  0.00  0.00     0.076 A 
ATOM     74  O   UNN dAMED     -16.328   4.165   6.332  0.00  0.00    -0.267 OA
ATOM     75  C   UNN dAMED     -14.691   5.677   9.152  0.00  0.00     0.044 A 
ATOM     76  N   UNN dAMED     -13.770   5.672   6.838  0.00  0.00    -0.197 NA
ATOM     77  C   UNN dAMED     -13.673   6.788   9.053  0.00  0.00     0.024 A 
ATOM     78  C   UNN dAMED     -13.209   6.768   7.596  0.00  0.00     0.085 A 
ATOM     79  C   UNN dAMED     -12.755   4.790   6.548  0.00  0.00     0.257 C 
ATOM     80  C   UNN dAMED     -11.493   5.353   5.928  0.00  0.00     0.127 C 
ATOM     81  O   UNN dAMED     -12.815   3.581   6.750  0.00  0.00    -0.272 OA
ATOM     82  N   UNN dAMED     -10.564   4.484   5.200  0.00  0.00    -0.203 NA
ATOM     83  C   UNN dAMED     -10.931   3.889   4.067  0.00  0.00     0.299 C 
ATOM     84  O   UNN dAMED     -11.910   4.177   3.387  0.00  0.00    -0.263 OA
BRANCH  63  85
ATOM     85  C   UNN dAMED     -14.897  -1.075   4.569  0.00  0.00    -0.022 C 
ATOM     86  C   UNN dAMED     -14.370  -2.304   5.316  0.00  0.00     0.028 C 
ATOM     87  C   UNN dAMED     -16.127  -1.197   3.665  0.00  0.00     0.028 C 
ENDBRANCH  63  85
BRANCH  80  88
ATOM     88  C   UNN dAMED     -11.081   6.788   6.285  0.00  0.00    -0.022 C 
ATOM     89  C   UNN dAMED     -10.927   7.187   7.759  0.00  0.00     0.028 C 
ATOM     90  C   UNN dAMED     -11.142   7.877   5.207  0.00  0.00     0.028 C 
ENDBRANCH  80  88
ENDBRANCH  57  58
ENDBRANCH  18  55
TORSDOF 8
