REMARK  3 active torsions:
REMARK  status: ('A' for Active; 'I' for Inactive)
REMARK    1  A    between atoms: C_9  and  N_15 
REMARK       I    between atoms: C_14  and  N_15 
REMARK    2  A    between atoms: C_14  and  C_17 
REMARK    3  A    between atoms: C_20  and  S_26 
ROOT
ATOM      1  C   UNN dAMED      -0.934  -3.441   0.642  0.00  0.00     0.280 C 
ATOM      2  N   UNN dAMED      -1.289  -3.180  -0.625  0.00  0.00    -0.208 NA
ATOM      3  O   UNN dAMED      -0.971  -2.725   1.644  0.00  0.00    -0.265 OA
ENDROOT
BRANCH   2   4
ATOM      4  C   UNN dAMED      -1.854  -1.970  -0.808  0.00  0.00     0.085 A 
ATOM      5  C   UNN dAMED      -3.052  -1.597  -0.178  0.00  0.00     0.022 A 
ATOM      6  C   UNN dAMED      -3.654  -0.343  -0.357  0.00  0.00     0.030 A 
ATOM      7  C   UNN dAMED      -4.823  -0.023   0.450  0.00  0.00     0.082 A 
ATOM      8  C   UNN dAMED      -3.059   0.542  -1.265  0.00  0.00     0.059 A 
ATOM      9  C   UNN dAMED      -4.680   0.588   1.692  0.00  0.00     0.019 A 
ATOM     10  N   UNN dAMED      -6.022  -0.406  -0.051  0.00  0.00    -0.244 NA
ATOM     11  C   UNN dAMED      -5.820   0.820   2.451  0.00  0.00     0.003 A 
ATOM     12  C   UNN dAMED      -7.063   0.437   1.964  0.00  0.00     0.021 A 
ATOM     13  C   UNN dAMED      -7.108  -0.165   0.718  0.00  0.00     0.099 A 
ATOM     14  C   UNN dAMED      -1.889   0.189  -1.933  0.00  0.00     0.013 A 
ATOM     15 CL   UNN dAMED      -3.726   2.098  -1.602  0.00  0.00    -0.082 Cl
ATOM     16  C   UNN dAMED      -1.293  -1.050  -1.698  0.00  0.00     0.020 A 
ENDBRANCH   2   4
BRANCH   1  17
ATOM     17  C   UNN dAMED      -0.411  -4.804   0.839  0.00  0.00     0.069 A 
ATOM     18  C   UNN dAMED       0.975  -4.922   0.995  0.00  0.00     0.006 A 
ATOM     19  C   UNN dAMED       1.532  -6.152   1.319  0.00  0.00     0.011 A 
ATOM     20  C   UNN dAMED       0.688  -7.243   1.488  0.00  0.00     0.085 A 
ATOM     21  C   UNN dAMED      -0.689  -7.152   1.325  0.00  0.00     0.023 A 
ATOM     22  C   UNN dAMED      -1.245  -5.920   0.996  0.00  0.00     0.063 A 
ATOM     23 CL   UNN dAMED      -2.956  -5.832   0.825  0.00  0.00    -0.082 Cl
BRANCH  20  24
ATOM     24  S   UNN dAMED       1.353  -8.776   2.029  0.00  0.00     0.191 S 
ATOM     25  C   UNN dAMED       0.025  -9.751   2.731  0.00  0.00     0.145 C 
ATOM     26  O   UNN dAMED       2.285  -8.447   3.093  0.00  0.00    -0.222 OA
ATOM     27  O   UNN dAMED       1.823  -9.435   0.825  0.00  0.00    -0.222 OA
ENDBRANCH  20  24
ENDBRANCH   1  17
TORSDOF 3
