REMARK  6 active torsions:
REMARK  status: ('A' for Active; 'I' for Inactive)
REMARK    1  A    between atoms: C_6  and  N_23 
REMARK    2  A    between atoms: C_15  and  O_16 
REMARK       I    between atoms: C_15  and  N_23 
REMARK    3  A    between atoms: O_16  and  C_18 
REMARK    4  A    between atoms: C_18  and  C_19 
REMARK    5  A    between atoms: C_19  and  C_20 
REMARK    6  A    between atoms: C_20  and  C_21 
ROOT
ATOM      1  N   UNN dAMED       0.383  -0.018   2.553  0.00  0.00    -0.176 NA
ATOM      2  C   UNN dAMED       1.458  -0.634   1.931  0.00  0.00     0.332 C 
ATOM      3  N   UNN dAMED       1.504  -0.525   0.547  0.00  0.00    -0.152 NA
ATOM      4  C   UNN dAMED       1.372   0.858   0.181  0.00  0.00     0.090 C 
ATOM      5  C   UNN dAMED       0.459   1.615   0.781  0.00  0.00     0.188 C 
ATOM      6  C   UNN dAMED      -0.112   1.069   2.036  0.00  0.00     0.200 C 
ATOM      7  O   UNN dAMED       3.311  -2.121  -0.088  0.00  0.00    -0.316 OA
ATOM      8  C   UNN dAMED       4.574  -1.911  -0.706  0.00  0.00     0.098 C 
ATOM      9  C   UNN dAMED       4.840  -0.484  -1.167  0.00  0.00     0.161 C 
ATOM     10  C   UNN dAMED       3.674   0.294  -0.620  0.00  0.00     0.245 C 
ATOM     11  C   UNN dAMED       2.838  -0.789   0.077  0.00  0.00     0.230 C 
ATOM     12  O   UNN dAMED       2.279  -1.306   2.555  0.00  0.00    -0.251 OA
ATOM     13  C   UNN dAMED       5.341  -3.085  -1.321  0.00  0.00     0.060 C 
ATOM     14  F   UNN dAMED       0.492   2.957   0.648  0.00  0.00    -0.200 F 
ATOM     15  O   UNN dAMED       3.083   1.266  -1.392  0.00  0.00    -0.212 OA
ATOM     16  O   UNN dAMED       6.113   0.024  -1.163  0.00  0.00    -0.190 OA
ENDROOT
BRANCH   6  17
ATOM     17  N   UNN dAMED      -1.167   1.614   2.627  0.00  0.00    -0.164 NA
ATOM     18  C   UNN dAMED      -1.651   2.738   2.110  0.00  0.00     0.389 C 
ATOM     19  O   UNN dAMED      -1.604   3.856   2.611  0.00  0.00    -0.236 OA
BRANCH  18  20
ATOM     20  O   UNN dAMED      -2.313   2.504   0.940  0.00  0.00    -0.283 OA
BRANCH  20  21
ATOM     21  C   UNN dAMED      -1.613   1.445   0.349  0.00  0.00     0.154 C 
BRANCH  21  22
ATOM     22  C   UNN dAMED      -0.084   1.332   0.481  0.00  0.00     0.033 C 
BRANCH  22  23
ATOM     23  C   UNN dAMED       0.630   1.727   1.781  0.00  0.00     0.003 C 
BRANCH  23  24
ATOM     24  C   UNN dAMED       1.980   1.094   2.148  0.00  0.00     0.000 C 
ATOM     25  C   UNN dAMED       3.273   1.914   2.056  0.00  0.00     0.000 C 
ENDBRANCH  23  24
ENDBRANCH  22  23
ENDBRANCH  21  22
ENDBRANCH  20  21
ENDBRANCH  18  20
ENDBRANCH   6  17
TORSDOF 6
