REMARK  4 active torsions:
REMARK  status: ('A' for Active; 'I' for Inactive)
REMARK    1  A    between atoms: C_24  and  O_6 
REMARK    2  A    between atoms: O_6  and  C_33 
REMARK    3  A    between atoms: C_10  and  O_41 
REMARK    4  A    between atoms: C_11  and  O_35 
ROOT
ATOM      1  O   UNN dAMED      -0.080  -4.515   1.892  0.00  0.00    -0.300 OA
ATOM      2  O   UNN dAMED       2.200  -4.199   2.080  0.00  0.00    -0.300 OA
ATOM      3  O   UNN dAMED       2.825   2.373  -2.354  0.00  0.00    -0.265 OA
ATOM      4  O   UNN dAMED       0.573   2.720  -2.186  0.00  0.00    -0.303 OA
ATOM      5  C   UNN dAMED       2.242   3.372   3.126  0.00  0.00     0.240 A 
ATOM      6  C   UNN dAMED       1.988   2.006   3.365  0.00  0.00     0.135 A 
ATOM      7  C   UNN dAMED       2.374   3.663   1.753  0.00  0.00     0.135 A 
ATOM      8  C   UNN dAMED       1.882   1.039   2.358  0.00  0.00     0.023 A 
ATOM      9  C   UNN dAMED       2.277   2.710   0.731  0.00  0.00     0.023 A 
ATOM     10  C   UNN dAMED       2.006   1.376   1.010  0.00  0.00    -0.021 A 
ATOM     11  C   UNN dAMED       2.052   0.300  -0.071  0.00  0.00     0.069 C 
ATOM     12  C   UNN dAMED       1.452  -1.029   0.404  0.00  0.00    -0.025 A 
ATOM     13  C   UNN dAMED       1.427   0.597  -1.457  0.00  0.00     0.108 C 
ATOM     14  C   UNN dAMED       1.712   1.972  -2.042  0.00  0.00     0.265 C 
ATOM     15  C   UNN dAMED       2.301  -1.993   0.999  0.00  0.00     0.022 A 
ATOM     16  C   UNN dAMED       1.639  -3.123   1.455  0.00  0.00     0.119 A 
ATOM     17  C   UNN dAMED      -0.094   0.477  -1.538  0.00  0.00     0.076 C 
ATOM     18  C   UNN dAMED       0.034  -1.226   0.288  0.00  0.00    -0.006 A 
ATOM     19  C   UNN dAMED       0.261  -3.311   1.347  0.00  0.00     0.119 A 
ATOM     20  C   UNN dAMED      -0.805  -0.149  -0.354  0.00  0.00     0.173 C 
ATOM     21  C   UNN dAMED      -0.603  -2.392   0.769  0.00  0.00     0.024 A 
ATOM     22  C   UNN dAMED       1.122  -4.997   2.317  0.00  0.00     0.304 A 
ATOM     23  C   UNN dAMED      -0.467   1.930  -1.691  0.00  0.00     0.148 C 
ATOM     24  O   UNN dAMED       2.346   4.247   4.052  0.00  0.00    -0.282 OA
ENDROOT
BRANCH  20  25
ATOM     25  O   UNN dAMED      -1.085   0.873   0.595  0.00  0.00    -0.317 OA
BRANCH  25  26
ATOM     26  C   UNN dAMED      -2.315   1.418   0.199  0.00  0.00     0.227 C 
ATOM     27  O   UNN dAMED      -2.348   2.470  -0.729  0.00  0.00    -0.284 OA
ATOM     28  C   UNN dAMED      -3.376   2.297  -1.664  0.00  0.00     0.134 C 
ATOM     29  C   UNN dAMED      -4.774   1.938  -1.178  0.00  0.00     0.145 C 
ATOM     30  C   UNN dAMED      -3.325   3.030  -2.999  0.00  0.00     0.198 C 
ATOM     31  O   UNN dAMED      -5.843   2.090  -2.080  0.00  0.00    -0.302 OA
ATOM     32  C   UNN dAMED      -4.877   1.055   0.074  0.00  0.00     0.184 C 
ATOM     33  C   UNN dAMED      -5.292   3.110  -2.884  0.00  0.00     0.240 C 
ATOM     34  O   UNN dAMED      -4.373   2.794  -3.912  0.00  0.00    -0.324 OA
ATOM     35  C   UNN dAMED      -5.436   4.570  -2.443  0.00  0.00     0.067 C 
ATOM     36  C   UNN dAMED      -3.611   1.049   0.943  0.00  0.00     0.204 C 
ATOM     37  O   UNN dAMED      -5.738  -0.014   0.106  0.00  0.00    -0.186 OA
ATOM     38  O   UNN dAMED      -3.711   1.308   2.289  0.00  0.00    -0.184 OA
ENDBRANCH  25  26
ENDBRANCH  20  25
BRANCH   6  39
ATOM     39  O   UNN dAMED       1.859   1.549   4.654  0.00  0.00    -0.325 OA
ATOM     40  C   UNN dAMED       3.016   1.981   5.307  0.00  0.00     0.181 C 
ENDBRANCH   6  39
BRANCH   7  41
ATOM     41  O   UNN dAMED       2.640   4.950   1.349  0.00  0.00    -0.325 OA
ATOM     42  C   UNN dAMED       3.212   5.566   2.466  0.00  0.00     0.181 C 
ENDBRANCH   7  41
TORSDOF 4
