REMARK WARNING: 32 MAX_TORS EXCEEDED!!!
REMARK  35 active torsions:
REMARK  status: ('A' for Active; 'I' for Inactive)
REMARK    1  A    between atoms: C_2  and  C_7 
REMARK    2  A    between atoms: C_3  and  C_7 
REMARK    3  A    between atoms: C_3  and  C_12 
REMARK    4  A    between atoms: C_3  and  N_18 
REMARK    5  A    between atoms: C_4  and  C_5 
REMARK    6  A    between atoms: C_4  and  N_18 
REMARK    7  A    between atoms: C_5  and  C_6 
REMARK    8  A    between atoms: C_16  and  C_20 
REMARK       I    between atoms: C_20  and  N_57 
REMARK    9  A    between atoms: C_22  and  C_23 
REMARK   10  A    between atoms: C_22  and  C_24 
REMARK   11  A    between atoms: C_22  and  N_57 
REMARK       I    between atoms: C_23  and  N_58 
REMARK   12  A    between atoms: C_24  and  O_63 
REMARK   13  A    between atoms: C_24  and  C_64 
REMARK   14  A    between atoms: C_26  and  C_27 
REMARK   15  A    between atoms: C_26  and  N_58 
REMARK   16  A    between atoms: C_27  and  C_28 
REMARK   17  A    between atoms: C_28  and  C_29 
REMARK       I    between atoms: C_29  and  N_60 
REMARK   18  A    between atoms: C_31  and  C_32 
REMARK   19  A    between atoms: C_31  and  C_33 
REMARK   20  A    between atoms: C_31  and  N_60 
REMARK       I    between atoms: C_32  and  N_61 
REMARK   21  A    between atoms: C_35  and  C_36 
REMARK   22  A    between atoms: C_35  and  N_61 
REMARK   23  A    between atoms: C_36  and  C_38 
REMARK   24  A    between atoms: C_45  and  C_47 
REMARK       I    between atoms: C_47  and  N_62 
REMARK   25  A    between atoms: C_49  and  C_50 
REMARK   26  A    between atoms: C_49  and  N_62 
REMARK   27  A    between atoms: C_50  and  C_51 
REMARK   28  A    between atoms: C_51  and  S_52 
REMARK   29  A    between atoms: O_63  and  C_70 
REMARK   30  A    between atoms: C_71  and  O_76 
REMARK   31  A    between atoms: C_74  and  C_75 
REMARK   32  A    between atoms: O_76  and  C_77 
REMARK   33  A    between atoms: C_81  and  C_82 
REMARK   34  A    between atoms: C_83  and  O_91 
REMARK   35  A    between atoms: O_91  and  C_92 
ROOT
ATOM      1  C   UNN dAMED       6.447  -2.652  -1.566  0.00  0.00     0.241 C 
ENDROOT
BRANCH   1   2
ATOM      2  C   UNN dAMED       5.168  -2.008  -2.174  0.00  0.00     0.267 C 
ATOM      3  O   UNN dAMED       4.695  -2.399  -3.241  0.00  0.00    -0.269 OA
ATOM      4  N   UNN dAMED       4.616  -1.076  -1.393  0.00  0.00    -0.245 NA
BRANCH   4   5
ATOM      5  C   UNN dAMED       3.390  -1.555  -0.752  0.00  0.00     0.155 C 
ATOM      6  C   UNN dAMED       2.202  -1.022  -1.565  0.00  0.00     0.019 C 
BRANCH   5   7
ATOM      7  C   UNN dAMED       3.234  -1.010   0.690  0.00  0.00     0.200 C 
ATOM      8  O   UNN dAMED       1.987  -0.585   0.741  0.00  0.00    -0.232 OA
BRANCH   7   9
ATOM      9  C   UNN dAMED       3.480  -2.203   1.649  0.00  0.00     0.125 C 
ATOM     10  C   UNN dAMED       3.706  -3.440   0.767  0.00  0.00     0.005 C 
BRANCH   9  11
ATOM     11  C   UNN dAMED       2.426  -2.575   2.680  0.00  0.00     0.247 C 
ATOM     12  O   UNN dAMED       2.061  -1.804   3.562  0.00  0.00    -0.271 OA
ATOM     13  N   UNN dAMED       2.142  -3.870   2.540  0.00  0.00    -0.238 NA
BRANCH  13  14
ATOM     14  C   UNN dAMED       0.720  -4.193   2.723  0.00  0.00     0.238 C 
BRANCH  14  15
ATOM     15  C   UNN dAMED       0.789  -5.452   3.600  0.00  0.00     0.267 C 
ATOM     16  O   UNN dAMED       0.978  -6.573   3.135  0.00  0.00    -0.269 OA
ATOM     17  N   UNN dAMED       0.655  -5.153   4.891  0.00  0.00    -0.236 NA
BRANCH  17  18
ATOM     18  C   UNN dAMED      -0.531  -5.547   5.638  0.00  0.00     0.136 C 
BRANCH  18  19
ATOM     19  C   UNN dAMED      -1.391  -6.740   5.201  0.00  0.00     0.079 C 
BRANCH  19  20
ATOM     20  C   UNN dAMED      -0.942  -8.159   5.426  0.00  0.00     0.090 A 
ATOM     21  S   UNN dAMED       0.528  -8.522   6.203  0.00  0.00    -0.070 SA
ATOM     22  C   UNN dAMED       0.202 -10.175   5.944  0.00  0.00     0.058 A 
ATOM     23  C   UNN dAMED      -1.006 -10.327   5.301  0.00  0.00     0.112 A 
ATOM     24  N   UNN dAMED      -1.667  -9.157   4.987  0.00  0.00    -0.241 NA
ATOM     25  C   UNN dAMED      -1.594 -11.656   5.005  0.00  0.00     0.129 A 
ATOM     26  S   UNN dAMED      -2.661 -12.430   6.106  0.00  0.00    -0.064 SA
ATOM     27  N   UNN dAMED      -1.350 -12.298   3.882  0.00  0.00    -0.232 NA
ATOM     28  C   UNN dAMED      -2.793 -13.727   5.017  0.00  0.00     0.061 A 
ATOM     29  C   UNN dAMED      -2.054 -13.493   3.880  0.00  0.00     0.146 A 
BRANCH  29  30
ATOM     30  C   UNN dAMED      -1.946 -14.415   2.773  0.00  0.00     0.293 C 
ATOM     31  O   UNN dAMED      -1.058 -15.256   2.713  0.00  0.00    -0.264 OA
ATOM     32  N   UNN dAMED      -2.910 -14.202   1.884  0.00  0.00    -0.233 NA
BRANCH  32  33
ATOM     33  C   UNN dAMED      -4.302 -14.262   2.298  0.00  0.00     0.130 C 
BRANCH  33  34
ATOM     34  C   UNN dAMED      -4.709 -15.110   3.507  0.00  0.00     0.037 C 
BRANCH  34  35
ATOM     35  C   UNN dAMED      -6.177 -15.170   3.943  0.00  0.00     0.050 C 
BRANCH  35  36
ATOM     36  S   UNN dAMED      -6.689 -14.370   5.425  0.00  0.00    -0.178 SA
ATOM     37  C   UNN dAMED      -8.421 -14.059   5.391  0.00  0.00     0.059 C 
ATOM     38  C   UNN dAMED      -6.074 -12.733   5.634  0.00  0.00     0.059 C 
ENDBRANCH  35  36
ENDBRANCH  34  35
ENDBRANCH  33  34
ENDBRANCH  32  33
ENDBRANCH  29  30
ENDBRANCH  19  20
ENDBRANCH  18  19
ENDBRANCH  17  18
ENDBRANCH  14  15
BRANCH  14  39
ATOM     39  C   UNN dAMED       0.065  -4.544   1.361  0.00  0.00     0.205 C 
ATOM     40  C   UNN dAMED       1.170  -5.171   0.494  0.00  0.00     0.027 C 
ATOM     41  O   UNN dAMED      -0.326  -3.439   0.759  0.00  0.00    -0.232 OA
ENDBRANCH  14  39
ENDBRANCH  13  14
ENDBRANCH   9  11
ENDBRANCH   7   9
ENDBRANCH   5   7
ENDBRANCH   4   5
ENDBRANCH   1   2
BRANCH   1  42
ATOM     42  C   UNN dAMED       7.197  -1.792  -0.496  0.00  0.00     0.219 C 
BRANCH  42  43
ATOM     43  O   UNN dAMED       8.130  -0.903  -1.118  0.00  0.00    -0.314 OA
BRANCH  43  44
ATOM     44  C   UNN dAMED       9.307  -0.905  -0.357  0.00  0.00     0.225 C 
ATOM     45  O   UNN dAMED      10.370  -1.715  -0.790  0.00  0.00    -0.283 OA
ATOM     46  C   UNN dAMED      11.366  -1.928   0.167  0.00  0.00     0.141 C 
ATOM     47  C   UNN dAMED      11.998  -0.684   0.782  0.00  0.00     0.179 C 
ATOM     48  C   UNN dAMED      10.972   0.344   1.256  0.00  0.00     0.185 C 
ATOM     49  O   UNN dAMED      13.222  -0.266   0.324  0.00  0.00    -0.186 OA
ATOM     50  C   UNN dAMED       9.657   0.363   0.465  0.00  0.00     0.176 C 
ATOM     51  O   UNN dAMED      11.026   0.846   2.531  0.00  0.00    -0.186 OA
BRANCH  46  52
ATOM     52  C   UNN dAMED      11.320  -3.209   1.009  0.00  0.00     0.235 C 
ATOM     53  O   UNN dAMED      12.269  -3.436   1.967  0.00  0.00    -0.213 OA
ENDBRANCH  46  52
BRANCH  50  54
ATOM     54  O   UNN dAMED       9.092   1.592   0.127  0.00  0.00    -0.277 OA
BRANCH  54  55
ATOM     55  C   UNN dAMED       9.575   2.858   0.460  0.00  0.00     0.232 C 
ATOM     56  O   UNN dAMED       9.115   3.477   1.621  0.00  0.00    -0.283 OA
ATOM     57  C   UNN dAMED       9.732   4.546   2.266  0.00  0.00     0.140 C 
ATOM     58  C   UNN dAMED      10.728   5.400   1.479  0.00  0.00     0.177 C 
ATOM     59  O   UNN dAMED      10.519   6.752   1.393  0.00  0.00    -0.186 OA
ATOM     60  C   UNN dAMED      11.489   4.668   0.368  0.00  0.00     0.161 C 
ATOM     61  C   UNN dAMED      10.787   3.463  -0.285  0.00  0.00     0.202 C 
ATOM     62  O   UNN dAMED      10.931   3.253  -1.633  0.00  0.00    -0.184 OA
BRANCH  57  63
ATOM     63  C   UNN dAMED       9.616   4.708   3.789  0.00  0.00     0.235 C 
ATOM     64  O   UNN dAMED       8.440   5.108   4.362  0.00  0.00    -0.213 OA
ENDBRANCH  57  63
BRANCH  60  65
ATOM     65  O   UNN dAMED      12.842   4.944   0.111  0.00  0.00    -0.258 OA
BRANCH  65  66
ATOM     66  C   UNN dAMED      13.426   5.090   1.330  0.00  0.00     0.378 C 
ATOM     67  O   UNN dAMED      14.538   5.580   1.475  0.00  0.00    -0.242 OA
ATOM     68  N   UNN dAMED      12.676   4.750   2.492  0.00  0.00    -0.032 NA
ENDBRANCH  65  66
ENDBRANCH  60  65
ENDBRANCH  54  55
ENDBRANCH  50  54
ENDBRANCH  43  44
ENDBRANCH  42  43
BRANCH  42  69
ATOM     69  C   UNN dAMED       7.843  -2.594   0.586  0.00  0.00     0.100 A 
ATOM     70  C   UNN dAMED       8.298  -3.913   0.583  0.00  0.00     0.117 A 
ATOM     71  N   UNN dAMED       8.730  -4.209   1.829  0.00  0.00    -0.221 NA
ATOM     72  C   UNN dAMED       8.513  -3.031   2.512  0.00  0.00     0.199 A 
ATOM     73  N   UNN dAMED       7.992  -2.029   1.833  0.00  0.00    -0.225 NA
ENDBRANCH  42  69
ENDBRANCH   1  42
BRANCH   1  74
ATOM     74  N   UNN dAMED       7.315  -2.906  -2.740  0.00  0.00    -0.233 NA
ATOM     75  C   UNN dAMED       7.608  -4.192  -2.938  0.00  0.00     0.292 C 
ATOM     76  O   UNN dAMED       8.082  -5.003  -2.147  0.00  0.00    -0.264 OA
BRANCH  75  77
ATOM     77  C   UNN dAMED       7.454  -4.651  -4.322  0.00  0.00     0.139 A 
ATOM     78  C   UNN dAMED       6.261  -5.212  -4.719  0.00  0.00     0.032 A 
ATOM     79  C   UNN dAMED       6.240  -5.737  -5.992  0.00  0.00     0.150 A 
ATOM     80  C   UNN dAMED       5.082  -5.312  -3.797  0.00  0.00     0.035 C 
ATOM     81  N   UNN dAMED       7.318  -5.719  -6.808  0.00  0.00    -0.215 NA
ATOM     82  N   UNN dAMED       5.058  -6.391  -6.442  0.00  0.00    -0.080 NA
ATOM     83  C   UNN dAMED       8.454  -5.175  -6.307  0.00  0.00     0.157 A 
ATOM     84  N   UNN dAMED       8.574  -4.629  -5.075  0.00  0.00    -0.225 NA
BRANCH  83  85
ATOM     85  C   UNN dAMED       9.705  -5.166  -7.149  0.00  0.00     0.213 C 
BRANCH  85  86
ATOM     86  C   UNN dAMED      10.896  -5.523  -6.236  0.00  0.00     0.052 C 
BRANCH  86  87
ATOM     87  C   UNN dAMED      12.312  -5.590  -6.755  0.00  0.00     0.264 C 
ATOM     88  O   UNN dAMED      13.058  -4.630  -6.633  0.00  0.00    -0.271 OA
ATOM     89  N   UNN dAMED      12.532  -6.536  -7.798  0.00  0.00    -0.057 NA
ENDBRANCH  86  87
ENDBRANCH  85  86
BRANCH  85  90
ATOM     90  N   UNN dAMED       9.623  -6.144  -8.221  0.00  0.00    -0.293 NA
BRANCH  90  91
ATOM     91  C   UNN dAMED      10.268  -5.865  -9.498  0.00  0.00     0.158 C 
BRANCH  91  92
ATOM     92  C   UNN dAMED      10.698  -6.993 -10.451  0.00  0.00     0.432 C 
ATOM     93  N   UNN dAMED      11.750  -6.468 -11.306  0.00  0.00     0.617 N 
BRANCH  92  94
ATOM     94  C   UNN dAMED       9.540  -7.421 -11.295  0.00  0.00     0.273 C 
ATOM     95  O   UNN dAMED       8.791  -6.622 -11.844  0.00  0.00    -0.274 OA
ATOM     96  N   UNN dAMED       9.319  -8.814 -11.488  0.00  0.00    -0.060 NA
ENDBRANCH  92  94
ENDBRANCH  91  92
ENDBRANCH  90  91
ENDBRANCH  85  90
ENDBRANCH  83  85
ENDBRANCH  75  77
ENDBRANCH   1  74
TORSDOF 35
