REMARK  2 active torsions:
REMARK  status: ('A' for Active; 'I' for Inactive)
REMARK    1  A    between atoms: C4*_3  and  C5*_5 
REMARK    2  A    between atoms: C_13  and  O_17 
ROOT
ATOM      1  C2* UNN dAMED      -2.439   0.168   1.361  0.00  0.00     0.192 A 
ATOM      2  C3* UNN dAMED      -3.433  -0.759   0.711  0.00  0.00     0.180 A 
ATOM      3  C4* UNN dAMED      -2.647  -1.390  -0.432  0.00  0.00     0.140 A 
ATOM      4  O4* UNN dAMED      -1.285  -0.996  -0.516  0.00  0.00    -0.292 OA
ATOM      5  C1* UNN dAMED      -1.148  -0.082   0.573  0.00  0.00     0.177 A 
ATOM      6  O2* UNN dAMED      -2.414   0.329   2.724  0.00  0.00    -0.185 OA
ATOM      7  N   UNN dAMED      -0.028   0.809   0.687  0.00  0.00    -0.154 NA
ATOM      8  C   UNN dAMED      -0.095   1.790  -0.260  0.00  0.00     0.160 C 
ATOM      9  N   UNN dAMED       1.053   1.904  -0.900  0.00  0.00    -0.225 NA
ATOM     10  C   UNN dAMED       1.826   0.867  -0.432  0.00  0.00     0.152 A 
ATOM     11  C   UNN dAMED       1.150   0.144   0.537  0.00  0.00     0.154 A 
ATOM     12  C   UNN dAMED       3.097   0.416  -0.753  0.00  0.00     0.201 A 
ATOM     13  N   UNN dAMED       3.598  -0.680  -0.138  0.00  0.00    -0.189 NA
ATOM     14  C   UNN dAMED       2.822  -1.305   0.788  0.00  0.00     0.240 A 
ATOM     15  N   UNN dAMED       1.577  -0.947   1.186  0.00  0.00    -0.201 NA
ATOM     16  O3* UNN dAMED      -4.741  -0.393   0.529  0.00  0.00    -0.186 OA
ATOM     17  N   UNN dAMED       3.376  -2.467   1.401  0.00  0.00    -0.059 NA
ENDROOT
BRANCH   3  18
ATOM     18  C5* UNN dAMED      -3.118  -2.705  -1.067  0.00  0.00     0.235 C 
ATOM     19  O5* UNN dAMED      -3.471  -2.751  -2.388  0.00  0.00    -0.213 OA
ENDBRANCH   3  18
BRANCH  12  20
ATOM     20  O   UNN dAMED       3.869   1.038  -1.703  0.00  0.00    -0.311 OA
ATOM     21  C   UNN dAMED       5.175   0.611  -1.449  0.00  0.00     0.183 C 
ENDBRANCH  12  20
TORSDOF 2
