REMARK  0 active torsions:
REMARK  status: ('A' for Active; 'I' for Inactive)
ROOT
ATOM      1  C   UNN dAMED       3.909   1.076   0.509  0.00  0.00     0.014 A 
ATOM      2  C   UNN dAMED       3.795   1.447  -0.843  0.00  0.00     0.001 A 
ATOM      3  C   UNN dAMED       2.724   1.011  -1.627  0.00  0.00     0.004 A 
ATOM      4  C   UNN dAMED       1.802   0.188  -1.014  0.00  0.00     0.056 A 
ATOM      5  C   UNN dAMED       1.905  -0.174   0.323  0.00  0.00     0.068 A 
ATOM      6  C   UNN dAMED       2.949   0.260   1.109  0.00  0.00     0.074 A 
ATOM      7  C   UNN dAMED       0.547  -0.351  -1.532  0.00  0.00     0.247 A 
ATOM      8  N   UNN dAMED       0.011  -1.077  -0.495  0.00  0.00    -0.142 NA
ATOM      9  C   UNN dAMED       0.715  -0.945   0.678  0.00  0.00     0.248 A 
ATOM     10  C   UNN dAMED      -1.345  -0.682  -0.299  0.00  0.00     0.086 C 
ATOM     11  C   UNN dAMED      -2.516  -1.595  -0.612  0.00  0.00     0.289 C 
ATOM     12  C   UNN dAMED      -3.935  -0.153   0.377  0.00  0.00     0.259 C 
ATOM     13  C   UNN dAMED      -3.171   0.971  -0.266  0.00  0.00     0.096 C 
ATOM     14  C   UNN dAMED      -1.675   0.790  -0.270  0.00  0.00     0.053 C 
ATOM     15  O   UNN dAMED      -4.901   0.194   1.048  0.00  0.00    -0.270 OA
ATOM     16  N   UNN dAMED      -3.677  -1.412   0.020  0.00  0.00    -0.172 NA
ATOM     17  O   UNN dAMED      -2.267  -2.562  -1.324  0.00  0.00    -0.264 OA
ATOM     18  O   UNN dAMED       0.400  -1.253   1.811  0.00  0.00    -0.273 OA
ATOM     19  O   UNN dAMED       0.060  -0.062  -2.608  0.00  0.00    -0.273 OA
ATOM     20  N   UNN dAMED       3.053  -0.112   2.478  0.00  0.00    -0.100 NA
ENDROOT
TORSDOF 0
