REMARK  2 active torsions:
REMARK  status: ('A' for Active; 'I' for Inactive)
REMARK    1  A    between atoms: Pt_2  and  N_4 
REMARK    2  A    between atoms: Pt_2  and  N_5 
ROOT
HETATM    1  Cl  UNN     0       1.031  -1.090   0.000  0.00  0.00     0.064 C 
HETATM    2  Pt  UNN     0      -0.543   0.574   0.000  0.00  0.00     0.040 P 
HETATM    3  Cl  UNN     0       0.500   2.613  -0.000  0.00  0.00     0.064 C 
ENDROOT
BRANCH   2   4
HETATM    4  N   UNN     0      -1.671   0.412  -1.614  0.00  0.00    -0.396 N 
HETATM    5  H   UNN     0      -2.428   1.076  -1.776  0.00  0.00     0.155 HD
HETATM    6  H   UNN     0      -1.496  -0.336  -2.286  0.00  0.00     0.155 HD
ENDBRANCH   2   4
BRANCH   2   7
HETATM    7  N   UNN     0      -1.672   0.412   1.613  0.00  0.00    -0.396 N 
HETATM    8  H   UNN     0      -2.429   1.076   1.775  0.00  0.00     0.155 HD
HETATM    9  H   UNN     0      -1.498  -0.336   2.285  0.00  0.00     0.155 HD
ENDBRANCH   2   7
TORSDOF 2
