REMARK  4 active torsions:
REMARK  status: ('A' for Active; 'I' for Inactive)
REMARK    1  A    between atoms: C_2  and  N_10 
REMARK    2  A    between atoms: N_10  and  C_11 
REMARK       I    between atoms: C_15  and  N_31 
REMARK    3  A    between atoms: C_17  and  N_31 
REMARK    4  A    between atoms: C_19  and  S_24 
ROOT
ATOM      1  C   UNN dAMED      -2.643   3.193   0.685  0.00  0.00     0.164 A 
ATOM      2  C   UNN dAMED      -2.945   2.614   1.910  0.00  0.00     0.059 A 
ATOM      3  C   UNN dAMED      -2.948   3.444   3.012  0.00  0.00     0.121 A 
ATOM      4  N   UNN dAMED      -2.671   4.761   2.957  0.00  0.00    -0.058 NA
ATOM      5  C   UNN dAMED      -2.361   5.240   1.734  0.00  0.00     0.751 A 
ATOM      6  N   UNN dAMED      -2.351   4.515   0.590  0.00  0.00    -0.042 NA
ATOM      7  N   UNN dAMED      -2.141   6.566   1.626  0.00  0.00    -0.059 NA
ENDROOT
BRANCH   1   8
ATOM      8  N   UNN dAMED      -2.624   2.406  -0.498  0.00  0.00    -0.310 N 
ATOM      9  C   UNN dAMED      -2.165   3.024  -1.732  0.00  0.00     0.132 C 
BRANCH   8  10
ATOM     10  C   UNN dAMED      -3.080   1.055  -0.548  0.00  0.00     0.063 A 
ATOM     11  C   UNN dAMED      -4.487   0.815  -0.710  0.00  0.00     0.017 A 
ATOM     12  C   UNN dAMED      -5.101  -0.450  -0.789  0.00  0.00     0.004 A 
ATOM     13  C   UNN dAMED      -4.119  -1.429  -0.714  0.00  0.00     0.027 A 
ATOM     14  C   UNN dAMED      -2.692  -1.263  -0.546  0.00  0.00     0.098 A 
ATOM     15  C   UNN dAMED      -4.351  -2.770  -0.743  0.00  0.00     0.037 A 
ATOM     16  C   UNN dAMED      -2.115   0.019  -0.466  0.00  0.00     0.038 A 
ATOM     17  N   UNN dAMED      -2.117  -2.477  -0.428  0.00  0.00    -0.192 NA
ATOM     18  N   UNN dAMED      -3.126  -3.338  -0.637  0.00  0.00    -0.159 NA
ATOM     19  C   UNN dAMED      -3.143  -4.312   0.398  0.00  0.00     0.121 C 
ATOM     20  C   UNN dAMED      -5.628  -3.408  -0.288  0.00  0.00     0.045 C 
ENDBRANCH   8  10
ENDBRANCH   1   8
BRANCH   7  21
ATOM     21  C   UNN dAMED      -0.843   6.900   1.793  0.00  0.00     0.101 A 
ATOM     22  C   UNN dAMED      -0.348   7.285   3.046  0.00  0.00     0.032 A 
ATOM     23  C   UNN dAMED       0.967   7.721   3.184  0.00  0.00     0.104 A 
ATOM     24  C   UNN dAMED       1.829   7.778   2.099  0.00  0.00    -0.009 A 
ATOM     25  C   UNN dAMED       1.356   7.414   0.845  0.00  0.00    -0.002 A 
ATOM     26  C   UNN dAMED       3.247   8.241   2.275  0.00  0.00     0.032 C 
ATOM     27  C   UNN dAMED       0.032   6.993   0.698  0.00  0.00     0.019 A 
BRANCH  23  28
ATOM     28  S   UNN dAMED       1.548   8.156   4.790  0.00  0.00     0.302 S 
ATOM     29  O   UNN dAMED       0.435   8.825   5.439  0.00  0.00    -0.197 OA
ATOM     30  O   UNN dAMED       2.794   8.875   4.591  0.00  0.00    -0.197 OA
ATOM     31  N   UNN dAMED       1.887   6.718   5.645  0.00  0.00    -0.043 N 
ENDBRANCH  23  28
ENDBRANCH   7  21
TORSDOF 4
