REMARK  5 active torsions:
REMARK  status: ('A' for Active; 'I' for Inactive)
REMARK    1  A    between atoms: C_1  and  C_11 
REMARK    2  A    between atoms: C_2  and  C_3 
REMARK    3  A    between atoms: C_4  and  C_5 
REMARK    4  A    between atoms: C_6  and  C_7 
REMARK    5  A    between atoms: C_8  and  C_20 
ROOT
ATOM      1  C   UNN dAMED      -2.506  -0.967   0.538  0.00  0.00    -0.005 C 
ATOM      2  C   UNN dAMED      -1.559  -0.137   0.972  0.00  0.00    -0.005 C 
ENDROOT
BRANCH   2   3
ATOM      3  C   UNN dAMED      -0.159  -0.635   1.127  0.00  0.00    -0.022 C 
ATOM      4  C   UNN dAMED       0.864  -0.233   0.374  0.00  0.00    -0.004 C 
ATOM      5  C   UNN dAMED       0.262  -1.721   2.078  0.00  0.00     0.031 C 
BRANCH   4   6
ATOM      6  C   UNN dAMED       2.247  -0.856   0.570  0.00  0.00    -0.001 C 
ATOM      7  C   UNN dAMED       2.475  -2.108   0.179  0.00  0.00    -0.004 C 
BRANCH   7   8
ATOM      8  C   UNN dAMED       3.828  -2.669   0.315  0.00  0.00    -0.016 C 
ATOM      9  C   UNN dAMED       4.165  -2.935   1.600  0.00  0.00     0.066 C 
ATOM     10  C   UNN dAMED       5.204  -3.241   0.516  0.00  0.00     0.031 C 
BRANCH   9  11
ATOM     11  C   UNN dAMED       5.525  -3.492   1.947  0.00  0.00     0.211 C 
ATOM     12  O   UNN dAMED       6.404  -2.660   2.329  0.00  0.00    -0.644 OA
ATOM     13  O   UNN dAMED       5.649  -4.752   1.891  0.00  0.00    -0.644 OA
ENDBRANCH   9  11
ENDBRANCH   7   8
ENDBRANCH   4   6
ENDBRANCH   2   3
BRANCH   1  14
ATOM     14  C   UNN dAMED      -3.925  -0.490   0.401  0.00  0.00    -0.031 C 
ATOM     15  C   UNN dAMED      -4.914  -1.448  -0.179  0.00  0.00     0.018 C 
ATOM     16  C   UNN dAMED      -6.350  -1.007   0.116  0.00  0.00     0.004 C 
ATOM     17  C   UNN dAMED      -4.781  -1.430  -1.706  0.00  0.00     0.004 C 
ATOM     18  C   UNN dAMED      -4.674  -2.843   0.400  0.00  0.00     0.004 C 
ATOM     19  C   UNN dAMED      -6.619   0.482   0.010  0.00  0.00     0.005 C 
ATOM     20  C   UNN dAMED      -5.596   1.315   0.759  0.00  0.00     0.022 C 
ATOM     21  C   UNN dAMED      -4.206   0.748   0.823  0.00  0.00    -0.048 C 
ATOM     22  C   UNN dAMED      -3.119   1.602   1.414  0.00  0.00     0.026 C 
ENDBRANCH   1  14
TORSDOF 5
