REMARK  3 active torsions:
REMARK  status: ('A' for Active; 'I' for Inactive)
REMARK    1  A    between atoms: C_4  and  C_13 
REMARK    2  A    between atoms: C_4  and  O_14 
REMARK    3  A    between atoms: O_14  and  P_15 
ROOT
ATOM      1  F   UNN dAMED      -3.347   0.728   3.139  0.00  0.00    -0.161 F 
ATOM      2  N   UNN dAMED      -4.445   0.088   1.233  0.00  0.00    -0.185 NA
ATOM      3  N   UNN dAMED      -2.109   0.775   1.217  0.00  0.00    -0.188 NA
ATOM      4  O   UNN dAMED       1.104   0.850  -0.225  0.00  0.00    -0.313 OA
ATOM      5  C   UNN dAMED      -4.442  -0.141  -0.104  0.00  0.00     0.175 A 
ATOM      6  C   UNN dAMED      -3.267   0.079  -0.819  0.00  0.00     0.142 A 
ATOM      7  C   UNN dAMED      -2.176   0.536  -0.099  0.00  0.00     0.151 A 
ATOM      8  C   UNN dAMED      -3.296   0.521   1.811  0.00  0.00     0.312 A 
ATOM      9  C   UNN dAMED      -0.006   0.061  -0.639  0.00  0.00     0.228 C 
ATOM     10  C   UNN dAMED      -0.019  -1.364  -0.059  0.00  0.00     0.245 C 
ATOM     11  C   UNN dAMED       1.183  -1.379   0.851  0.00  0.00     0.163 C 
ATOM     12  C   UNN dAMED       1.743   0.031   0.742  0.00  0.00     0.128 C 
ATOM     13  N   UNN dAMED      -5.618  -0.601  -0.760  0.00  0.00    -0.078 NA
ATOM     14  O   UNN dAMED       1.162  -2.023   2.061  0.00  0.00    -0.190 OA
ATOM     15  O   UNN dAMED      -0.287  -2.454  -0.852  0.00  0.00    -0.212 OA
ATOM     16  N   UNN dAMED      -2.942  -0.086  -2.145  0.00  0.00    -0.226 NA
ATOM     17  C   UNN dAMED      -1.663   0.231  -2.226  0.00  0.00     0.156 C 
ATOM     18  N   UNN dAMED      -1.209   0.724  -1.036  0.00  0.00    -0.171 NA
ENDROOT
BRANCH  12  19
ATOM     19  C   UNN dAMED       3.173   0.332   1.206  0.00  0.00     0.208 C 
BRANCH  19  20
ATOM     20  O   UNN dAMED       3.505   1.595   1.702  0.00  0.00    -0.257 OA
BRANCH  20  21
ATOM     21  P   UNN dAMED       4.245   2.355   0.441  0.00  0.00     0.423 P 
ATOM     22  O   UNN dAMED       5.585   2.805   1.014  0.00  0.00    -0.617 OA
ATOM     23  O   UNN dAMED       4.352   1.273  -0.629  0.00  0.00    -0.617 OA
ATOM     24  O   UNN dAMED       3.296   3.496   0.090  0.00  0.00    -0.617 OA
ENDBRANCH  20  21
ENDBRANCH  19  20
ENDBRANCH  12  19
TORSDOF 3
