REMARK  9 active torsions:
REMARK  status: ('A' for Active; 'I' for Inactive)
REMARK    1  A    between atoms: C_2  and  N_10 
REMARK    2  A    between atoms: C_8  and  C_17 
REMARK    3  A    between atoms: N_10  and  C_11 
REMARK    4  A    between atoms: N_10  and  C_12 
REMARK    5  A    between atoms: C_11  and  C_13 
REMARK    6  A    between atoms: C_12  and  C_15 
REMARK    7  A    between atoms: C_17  and  C_18 
REMARK    8  A    between atoms: C_18  and  C_19 
REMARK    9  A    between atoms: C_19  and  C_21 
ROOT
ATOM      1  C   UNN dAMED      -1.781  -0.634  -1.541  0.00  0.00     0.018 A 
ATOM      2  C   UNN dAMED      -2.353  -0.243  -0.327  0.00  0.00     0.058 A 
ATOM      3  C   UNN dAMED      -1.560  -0.090   0.818  0.00  0.00     0.037 A 
ATOM      4  C   UNN dAMED      -0.186  -0.362   0.719  0.00  0.00     0.094 A 
ATOM      5  C   UNN dAMED       0.339  -0.760  -0.508  0.00  0.00     0.059 A 
ATOM      6  C   UNN dAMED      -0.415  -0.896  -1.672  0.00  0.00     0.015 A 
ATOM      7  N   UNN dAMED       0.807  -0.276   1.675  0.00  0.00    -0.237 NA
ATOM      8  C   UNN dAMED       1.906  -0.645   1.053  0.00  0.00     0.101 A 
ATOM      9  N   UNN dAMED       1.658  -0.970  -0.244  0.00  0.00    -0.218 NA
ATOM     10  C   UNN dAMED       2.443  -0.136  -1.085  0.00  0.00     0.101 C 
ENDROOT
BRANCH   2  11
ATOM     11  N   UNN dAMED      -3.747  -0.052  -0.255  0.00  0.00    -0.345 N 
BRANCH  11  12
ATOM     12  C   UNN dAMED      -4.618  -0.935  -1.012  0.00  0.00     0.119 C 
BRANCH  12  13
ATOM     13  C   UNN dAMED      -5.555  -1.916  -0.294  0.00  0.00     0.119 C 
ATOM     14 CL   UNN dAMED      -4.924  -3.074   0.867  0.00  0.00    -0.112 Cl
ENDBRANCH  12  13
ENDBRANCH  11  12
BRANCH  11  15
ATOM     15  C   UNN dAMED      -4.317   0.743   0.817  0.00  0.00     0.119 C 
BRANCH  15  16
ATOM     16  C   UNN dAMED      -3.416   1.295   1.926  0.00  0.00     0.119 C 
ATOM     17 CL   UNN dAMED      -3.197   3.027   2.104  0.00  0.00    -0.112 Cl
ENDBRANCH  15  16
ENDBRANCH  11  15
ENDBRANCH   2  11
BRANCH   8  18
ATOM     18  C   UNN dAMED       3.256  -0.150   1.480  0.00  0.00     0.059 C 
BRANCH  18  19
ATOM     19  C   UNN dAMED       3.447   0.480   2.861  0.00  0.00     0.019 C 
BRANCH  19  20
ATOM     20  C   UNN dAMED       3.723   1.982   2.969  0.00  0.00     0.098 C 
BRANCH  20  21
ATOM     21  C   UNN dAMED       4.067   2.598   4.297  0.00  0.00     0.185 C 
ATOM     22  O   UNN dAMED       4.398   1.799   5.223  0.00  0.00    -0.647 OA
ATOM     23  O   UNN dAMED       4.009   3.862   4.364  0.00  0.00    -0.647 OA
ENDBRANCH  20  21
ENDBRANCH  19  20
ENDBRANCH  18  19
ENDBRANCH   8  18
TORSDOF 9
