REMARK  0 active torsions:
REMARK  status: ('A' for Active; 'I' for Inactive)
ROOT
ATOM      1  C   UNN dAMED      -4.359  -0.774  -0.803  0.00  0.00     0.001 A 
ATOM      2  C   UNN dAMED      -4.515   0.365   0.007  0.00  0.00     0.014 A 
ATOM      3  C   UNN dAMED      -3.402   1.021   0.533  0.00  0.00     0.068 A 
ATOM      4  C   UNN dAMED      -2.160   0.516   0.229  0.00  0.00     0.018 A 
ATOM      5  C   UNN dAMED      -2.014  -0.603  -0.565  0.00  0.00     0.055 A 
ATOM      6  C   UNN dAMED      -3.091  -1.278  -1.101  0.00  0.00     0.004 A 
ATOM      7  C   UNN dAMED      -0.806   0.965   0.613  0.00  0.00     0.137 A 
ATOM      8  N   UNN dAMED       0.152   0.090   0.031  0.00  0.00    -0.291 N 
ATOM      9  C   UNN dAMED      -0.577  -0.870  -0.684  0.00  0.00     0.261 A 
ATOM     10  O   UNN dAMED      -0.130  -1.809  -1.323  0.00  0.00    -0.267 OA
ATOM     11  C   UNN dAMED       2.059  -1.529   0.454  0.00  0.00     0.059 C 
ATOM     12  C   UNN dAMED       3.523  -1.633   0.113  0.00  0.00     0.097 C 
ATOM     13  C   UNN dAMED       3.917  -0.939  -1.164  0.00  0.00     0.259 C 
ATOM     14  C   UNN dAMED       2.555   0.752  -0.586  0.00  0.00     0.293 C 
ATOM     15  C   UNN dAMED       1.515  -0.245  -0.118  0.00  0.00     0.099 C 
ATOM     16  O   UNN dAMED       4.722  -1.546  -1.860  0.00  0.00    -0.270 OA
ATOM     17  N   UNN dAMED      -3.552   2.172   1.356  0.00  0.00    -0.101 NA
ATOM     18  O   UNN dAMED       2.323   1.930  -0.333  0.00  0.00    -0.264 OA
ATOM     19  N   UNN dAMED       3.563   0.333  -1.353  0.00  0.00    -0.172 NA
ENDROOT
TORSDOF 0
