REMARK  10 active torsions:
REMARK  status: ('A' for Active; 'I' for Inactive)
REMARK    1  A    between atoms: N_1  and  C_59 
REMARK    2  A    between atoms: C_5  and  C_41 
REMARK    3  A    between atoms: C_9  and  C_54 
REMARK    4  A    between atoms: C_23  and  C_44 
REMARK    5  A    between atoms: C_28  and  O_46 
REMARK    6  A    between atoms: C_34  and  O_38 
REMARK    7  A    between atoms: C_35  and  C_50 
REMARK    8  A    between atoms: O_46  and  C_47 
REMARK    9  A    between atoms: C_50  and  O_52 
REMARK   10  A    between atoms: C_54  and  O_56 
ROOT
ATOM      1  N   UNN dAMED       2.889   0.762  -2.499  0.00  0.00    -0.201 NA
ATOM      2  N   UNN dAMED      -5.089   3.165   3.076  0.00  0.00     0.144 N 
ATOM      3  N   UNN dAMED       2.751  -1.143   1.838  0.00  0.00     0.132 N 
ATOM      4  C   UNN dAMED      -4.400   4.176   2.192  0.00  0.00     0.281 C 
ATOM      5  C   UNN dAMED      -2.968   4.795   2.523  0.00  0.00     0.162 C 
ATOM      6  C   UNN dAMED      -2.322   3.454   2.802  0.00  0.00     0.056 C 
ATOM      7  C   UNN dAMED      -2.875   2.289   2.001  0.00  0.00    -0.012 C 
ATOM      8  C   UNN dAMED      -2.102   1.903   0.734  0.00  0.00    -0.014 C 
ATOM      9  C   UNN dAMED      -2.172   0.522   0.059  0.00  0.00     0.151 C 
ATOM     10  C   UNN dAMED      -3.477   0.430  -0.671  0.00  0.00     0.066 C 
ATOM     11  C   UNN dAMED      -5.332   2.356   1.810  0.00  0.00     0.255 C 
ATOM     12  C   UNN dAMED      -4.481   2.562   0.557  0.00  0.00     0.063 C 
ATOM     13  C   UNN dAMED      -4.500   1.482  -0.471  0.00  0.00    -0.008 C 
ATOM     14  C   UNN dAMED      -5.599   0.929  -0.989  0.00  0.00     0.001 C 
ATOM     15  C   UNN dAMED      -7.010   1.274  -0.646  0.00  0.00    -0.002 C 
ATOM     16  C   UNN dAMED      -7.949   0.399  -1.006  0.00  0.00    -0.001 C 
ATOM     17  C   UNN dAMED      -5.271  -0.344  -1.671  0.00  0.00     0.147 C 
ATOM     18  C   UNN dAMED      -7.582  -1.081  -1.261  0.00  0.00    -0.002 C 
ATOM     19  C   UNN dAMED      -6.340  -1.434  -1.603  0.00  0.00     0.002 C 
ATOM     20  C   UNN dAMED       3.568  -1.850   2.809  0.00  0.00     0.275 C 
ATOM     21  C   UNN dAMED       5.032  -1.467   2.784  0.00  0.00     0.004 C 
ATOM     22  C   UNN dAMED       5.496  -1.238   1.561  0.00  0.00    -0.025 C 
ATOM     23  C   UNN dAMED       4.512  -1.758   0.241  0.00  0.00     0.069 C 
ATOM     24  C   UNN dAMED       3.100  -1.229   0.396  0.00  0.00     0.258 C 
ATOM     25  C   UNN dAMED       2.766   0.233   2.306  0.00  0.00     0.250 C 
ATOM     26  C   UNN dAMED       2.989   1.112   1.095  0.00  0.00     0.042 C 
ATOM     27  C   UNN dAMED       2.889   0.212  -0.142  0.00  0.00     0.054 C 
ATOM     28  C   UNN dAMED       5.478  -0.505  -0.086  0.00  0.00     0.167 C 
ATOM     29  C   UNN dAMED       3.747   0.801  -1.302  0.00  0.00     0.139 C 
ATOM     30  C   UNN dAMED       1.505   0.344  -0.730  0.00  0.00    -0.010 A 
ATOM     31  C   UNN dAMED       0.288   0.276  -0.080  0.00  0.00    -0.004 A 
ATOM     32  C   UNN dAMED      -0.909   0.460  -0.792  0.00  0.00     0.017 A 
ATOM     33  C   UNN dAMED       1.562   0.627  -2.084  0.00  0.00     0.041 A 
ATOM     34  C   UNN dAMED      -0.807   0.768  -2.164  0.00  0.00     0.092 A 
ATOM     35  C   UNN dAMED       5.171   0.211  -1.443  0.00  0.00     0.236 C 
ATOM     36  C   UNN dAMED       0.425   0.853  -2.830  0.00  0.00     0.035 A 
ATOM     37  C   UNN dAMED      -4.403   2.299   1.988  0.00  0.00     0.272 C 
ATOM     38  O   UNN dAMED       6.043   1.173  -1.666  0.00  0.00    -0.212 OA
ATOM     39  O   UNN dAMED      -3.010   5.511   3.616  0.00  0.00    -0.224 OA
ATOM     40  N   UNN dAMED      -3.910  -0.599  -1.355  0.00  0.00    -0.267 NA
ENDROOT
BRANCH   9  41
ATOM     41  C   UNN dAMED      -2.139  -0.519   1.165  0.00  0.00     0.284 C 
ATOM     42  O   UNN dAMED      -2.172  -1.731   1.011  0.00  0.00    -0.263 OA
BRANCH  41  43
ATOM     43  O   UNN dAMED      -2.068   0.101   2.369  0.00  0.00    -0.298 OA
ATOM     44  C   UNN dAMED      -1.462   1.332   2.106  0.00  0.00     0.184 C 
ENDBRANCH  41  43
ENDBRANCH   9  41
BRANCH  34  45
ATOM     45  O   UNN dAMED      -1.915   1.065  -2.906  0.00  0.00    -0.328 OA
ATOM     46  C   UNN dAMED      -1.565   2.195  -3.646  0.00  0.00     0.181 C 
ENDBRANCH  34  45
BRANCH   1  47
ATOM     47  C   UNN dAMED       3.002   2.006  -3.193  0.00  0.00     0.291 C 
ATOM     48  O   UNN dAMED       3.348   2.039  -4.340  0.00  0.00    -0.269 OA
ENDBRANCH   1  47
BRANCH   5  49
ATOM     49  C   UNN dAMED      -3.411   5.644   1.326  0.00  0.00     0.033 C 
ATOM     50  C   UNN dAMED      -3.808   4.958   0.014  0.00  0.00     0.003 C 
ENDBRANCH   5  49
BRANCH  23  51
ATOM     51  C   UNN dAMED       5.494  -1.236   1.560  0.00  0.00     0.008 C 
ATOM     52  C   UNN dAMED       6.962  -0.876   1.349  0.00  0.00     0.001 C 
ENDBRANCH  23  51
BRANCH  35  53
ATOM     53  C   UNN dAMED       5.364  -0.809  -2.564  0.00  0.00     0.303 C 
ATOM     54  O   UNN dAMED       5.780  -1.947  -2.377  0.00  0.00    -0.261 OA
BRANCH  53  55
ATOM     55  O   UNN dAMED       5.091  -0.331  -3.804  0.00  0.00    -0.297 OA
ATOM     56  C   UNN dAMED       4.612   0.964  -3.594  0.00  0.00     0.185 C 
ENDBRANCH  53  55
ENDBRANCH  35  53
BRANCH  28  57
ATOM     57  O   UNN dAMED       6.768  -0.511   0.472  0.00  0.00    -0.301 OA
BRANCH  57  58
ATOM     58  C   UNN dAMED       6.685   0.263   1.590  0.00  0.00     0.272 C 
ATOM     59  O   UNN dAMED       5.880   1.177   1.712  0.00  0.00    -0.264 OA
ATOM     60  C   UNN dAMED       7.637  -0.010   2.722  0.00  0.00     0.106 C 
ENDBRANCH  57  58
ENDBRANCH  28  57
TORSDOF 10
