REMARK  0 active torsions:
REMARK  status: ('A' for Active; 'I' for Inactive)
ROOT
ATOM      1  H   UNN dAMED       2.994  -0.303   0.000  0.00  0.00     0.171 HD
ATOM      2  N   UNN dAMED       1.991  -0.242   0.000  0.00  0.00    -0.304 N 
ATOM      3  N   UNN dAMED       0.062  -1.685  -0.000  0.00  0.00    -0.207 NA
ATOM      4  O   UNN dAMED       1.758   2.014  -0.000  0.00  0.00    -0.267 OA
ATOM      5  N   UNN dAMED      -2.034  -0.458  -0.000  0.00  0.00    -0.260 N 
ATOM      6  H   UNN dAMED      -2.728  -1.197  -0.000  0.00  0.00     0.191 HD
ATOM      7  N   UNN dAMED      -2.445   0.830  -0.000  0.00  0.00    -0.170 NA
ATOM      8  C   UNN dAMED      -0.682  -0.572   0.000  0.00  0.00     0.164 A 
ATOM      9  C   UNN dAMED      -0.173   0.691   0.000  0.00  0.00     0.112 A 
ATOM     10  C   UNN dAMED       1.240   0.904   0.000  0.00  0.00     0.263 A 
ATOM     11  C   UNN dAMED      -1.297   1.528  -0.000  0.00  0.00     0.128 A 
ATOM     12  C   UNN dAMED       1.312  -1.512  -0.000  0.00  0.00     0.179 A 
ENDROOT
TORSDOF 0
