REMARK  2 active torsions:
REMARK  status: ('A' for Active; 'I' for Inactive)
REMARK    1  A    between atoms: N_11  and  C_14 
REMARK    2  A    between atoms: C_14  and  C_15 
ROOT
ATOM      1  C   UNN dAMED       3.439   0.358   0.340  0.00  0.00     0.019 A 
ATOM      2  C   UNN dAMED       3.463   1.695   0.748  0.00  0.00     0.002 A 
ATOM      3  C   UNN dAMED       2.284   2.433   0.808  0.00  0.00     0.000 A 
ATOM      4  C   UNN dAMED       1.081   1.834   0.458  0.00  0.00     0.003 A 
ATOM      5  C   UNN dAMED       1.085   0.491   0.053  0.00  0.00     0.030 A 
ATOM      6  C   UNN dAMED       2.260  -0.279  -0.017  0.00  0.00     0.084 A 
ATOM      7  C   UNN dAMED      -0.091  -0.169  -0.324  0.00  0.00     0.063 A 
ATOM      8  C   UNN dAMED      -0.099  -1.500  -0.722  0.00  0.00     0.124 A 
ATOM      9  C   UNN dAMED       1.110  -2.194  -0.769  0.00  0.00     0.169 A 
ATOM     10  N   UNN dAMED       2.267  -1.567  -0.416  0.00  0.00    -0.230 NA
ATOM     11  N   UNN dAMED      -1.397   0.209  -0.434  0.00  0.00    -0.213 NA
ATOM     12  C   UNN dAMED      -2.148  -0.887  -0.738  0.00  0.00     0.153 C 
ATOM     13  N   UNN dAMED      -1.380  -1.925  -0.997  0.00  0.00    -0.228 NA
ATOM     14  N   UNN dAMED       1.138  -3.554  -1.186  0.00  0.00    -0.078 NA
ENDROOT
BRANCH  11  15
ATOM     15  C   UNN dAMED      -1.828   0.720   0.821  0.00  0.00     0.083 C 
BRANCH  15  16
ATOM     16  C   UNN dAMED      -1.070   1.873   1.481  0.00  0.00     0.017 C 
ATOM     17  C   UNN dAMED      -1.421   2.249   2.923  0.00  0.00     0.002 C 
ATOM     18  C   UNN dAMED      -0.405   2.923   0.587  0.00  0.00     0.002 C 
ENDBRANCH  15  16
ENDBRANCH  11  15
TORSDOF 2
