REMARK  0 active torsions:
REMARK  status: ('A' for Active; 'I' for Inactive)
ROOT
ATOM      1  N   UNN dAMED       1.941   0.280   0.007  0.00  0.00    -0.204 NA
ATOM      2  N   UNN dAMED      -0.063   1.576  -0.217  0.00  0.00    -0.311 N 
ATOM      3  S   UNN dAMED       1.883  -2.419   0.375  0.00  0.00    -0.056 SA
ATOM      4  H   UNN dAMED      -0.483   2.485  -0.351  0.00  0.00     0.170 HD
ATOM      5  H   UNN dAMED      -1.169  -2.619   0.330  0.00  0.00     0.168 HD
ATOM      6  N   UNN dAMED      -1.233  -1.620   0.192  0.00  0.00    -0.332 N 
ATOM      7  N   UNN dAMED      -2.143   0.395  -0.104  0.00  0.00    -0.207 NA
ATOM      8  C   UNN dAMED       1.231  -0.897   0.152  0.00  0.00     0.157 A 
ATOM      9  C   UNN dAMED      -0.189  -0.741   0.097  0.00  0.00     0.121 A 
ATOM     10  C   UNN dAMED      -0.793   0.470  -0.083  0.00  0.00     0.162 A 
ATOM     11  C   UNN dAMED      -2.390  -0.890   0.065  0.00  0.00     0.177 A 
ATOM     12  C   UNN dAMED       1.303   1.404  -0.161  0.00  0.00     0.217 A 
ATOM     13  N   UNN dAMED       2.106   2.576  -0.302  0.00  0.00    -0.061 NA
ENDROOT
TORSDOF 0
