REMARK  7 active torsions:
REMARK  status: ('A' for Active; 'I' for Inactive)
REMARK    1  A    between atoms: C_1  and  C_2 
REMARK    2  A    between atoms: C_2  and  C_3 
REMARK    3  A    between atoms: C_3  and  C_4 
REMARK    4  A    between atoms: C_4  and  C_5 
REMARK    5  A    between atoms: C_5  and  N_13 
REMARK    6  A    between atoms: C_5  and  C_14 
REMARK       I    between atoms: C_6  and  N_7 
REMARK       I    between atoms: C_6  and  N_13 
REMARK    7  A    between atoms: N_7  and  N_17 
ROOT
ATOM      1  C   UNN dAMED       1.957  -2.304   2.896  0.00  0.00     0.155 C 
ENDROOT
BRANCH   1   2
ATOM      2  C   UNN dAMED       0.730  -1.570   3.454  0.00  0.00     0.179 C 
ATOM      3  O   UNN dAMED       0.534  -1.499   4.808  0.00  0.00    -0.186 OA
BRANCH   2   4
ATOM      4  C   UNN dAMED      -0.423  -1.236   2.497  0.00  0.00     0.181 C 
ATOM      5  O   UNN dAMED      -0.170  -0.370   1.461  0.00  0.00    -0.186 OA
BRANCH   4   6
ATOM      6  C   UNN dAMED      -1.718  -2.098   2.544  0.00  0.00     0.169 C 
ATOM      7  O   UNN dAMED      -2.837  -1.756   1.821  0.00  0.00    -0.190 OA
BRANCH   6   8
ATOM      8  C   UNN dAMED      -1.684  -3.461   3.260  0.00  0.00     0.238 C 
ATOM      9  O   UNN dAMED      -2.225  -3.625   4.509  0.00  0.00    -0.213 OA
ENDBRANCH   6   8
ENDBRANCH   4   6
ENDBRANCH   2   4
ENDBRANCH   1   2
BRANCH   1  10
ATOM     10  N   UNN dAMED       3.253  -1.646   2.787  0.00  0.00    -0.191 NA
ATOM     11  C   UNN dAMED       4.323  -2.434   2.672  0.00  0.00     0.341 C 
ATOM     12  N   UNN dAMED       5.392  -1.869   1.987  0.00  0.00    -0.102 NA
ATOM     13  O   UNN dAMED       4.409  -3.557   3.167  0.00  0.00    -0.250 OA
ATOM     14  C   UNN dAMED       6.273  -2.953   1.706  0.00  0.00     0.122 C 
BRANCH  12  15
ATOM     15  N   UNN dAMED       5.199  -1.218   0.783  0.00  0.00     0.040 NA
ATOM     16  O   UNN dAMED       5.559  -0.038   0.861  0.00  0.00    -0.082 OA
ENDBRANCH  12  15
ENDBRANCH   1  10
BRANCH   1  17
ATOM     17  C   UNN dAMED       1.796  -3.722   2.340  0.00  0.00     0.256 C 
ATOM     18  O   UNN dAMED       1.558  -3.889   1.179  0.00  0.00    -0.281 OA
ENDBRANCH   1  17
TORSDOF 7
