REMARK  4 active torsions:
REMARK  status: ('A' for Active; 'I' for Inactive)
REMARK    1  A    between atoms: S_1  and  C_4 
REMARK    2  A    between atoms: S_1  and  N_35 
REMARK    3  A    between atoms: C_12  and  C_24 
REMARK    4  A    between atoms: C_16  and  N_35 
ROOT
ATOM      1  C   UNN dAMED       1.267  -1.120  -1.528  0.00  0.00     0.121 A 
ATOM      2  C   UNN dAMED       1.562  -2.113  -2.475  0.00  0.00     0.022 A 
ATOM      3  C   UNN dAMED       0.629  -2.565  -3.401  0.00  0.00     0.002 A 
ATOM      4  C   UNN dAMED      -0.648  -2.022  -3.402  0.00  0.00     0.004 A 
ATOM      5  C   UNN dAMED      -0.996  -1.039  -2.475  0.00  0.00     0.047 A 
ATOM      6  C   UNN dAMED      -0.036  -0.590  -1.559  0.00  0.00     0.160 A 
ATOM      7  C   UNN dAMED      -2.354  -0.531  -2.480  0.00  0.00     0.091 A 
ATOM      8  N   UNN dAMED      -2.623   0.758  -2.914  0.00  0.00    -0.243 NA
ATOM      9  C   UNN dAMED      -3.920   0.962  -2.902  0.00  0.00     0.087 A 
ATOM     10  S   UNN dAMED      -4.884  -0.334  -2.345  0.00  0.00    -0.069 SA
ATOM     11  C   UNN dAMED      -3.463  -1.276  -2.095  0.00  0.00     0.066 A 
ATOM     12  C   UNN dAMED      -3.591  -2.628  -1.568  0.00  0.00     0.093 A 
ATOM     13  N   UNN dAMED      -4.456  -3.436  -2.222  0.00  0.00    -0.214 NA
ATOM     14  C   UNN dAMED      -4.631  -4.670  -1.704  0.00  0.00     0.237 A 
ATOM     15  N   UNN dAMED      -3.990  -5.154  -0.621  0.00  0.00    -0.213 NA
ATOM     16  C   UNN dAMED      -3.127  -4.310  -0.021  0.00  0.00     0.103 A 
ATOM     17  C   UNN dAMED      -2.894  -3.018  -0.441  0.00  0.00     0.041 A 
ATOM     18  N   UNN dAMED      -5.636  -5.491  -2.294  0.00  0.00    -0.060 NA
ATOM     19  F   UNN dAMED      -0.377   0.360  -0.669  0.00  0.00    -0.203 F 
ENDROOT
BRANCH   1  20
ATOM     20  N   UNN dAMED       2.154  -0.677  -0.610  0.00  0.00    -0.156 NA
BRANCH  20  21
ATOM     21  S   UNN dAMED       3.586  -1.366  -0.443  0.00  0.00     0.290 S 
ATOM     22  O   UNN dAMED       4.395  -1.396  -1.658  0.00  0.00    -0.198 OA
ATOM     23  O   UNN dAMED       3.597  -2.607   0.329  0.00  0.00    -0.198 OA
BRANCH  21  24
ATOM     24  C   UNN dAMED       4.491  -0.254   0.643  0.00  0.00     0.160 A 
ATOM     25  C   UNN dAMED       3.989  -0.011   1.923  0.00  0.00     0.154 A 
ATOM     26  C   UNN dAMED       4.620   0.900   2.764  0.00  0.00     0.030 A 
ATOM     27  F   UNN dAMED       2.882  -0.629   2.361  0.00  0.00    -0.203 F 
ATOM     28  C   UNN dAMED       5.759   1.570   2.323  0.00  0.00     0.005 A 
ATOM     29  C   UNN dAMED       6.265   1.330   1.047  0.00  0.00     0.030 A 
ATOM     30  C   UNN dAMED       5.630   0.420   0.208  0.00  0.00     0.154 A 
ATOM     31  F   UNN dAMED       6.138   0.231  -1.017  0.00  0.00    -0.203 F 
ENDBRANCH  21  24
ENDBRANCH  20  21
ENDBRANCH   1  20
BRANCH   9  32
ATOM     32  C   UNN dAMED      -4.584   2.215  -3.347  0.00  0.00     0.041 C 
ATOM     33  C   UNN dAMED      -4.538   2.241  -5.194  0.00  0.00     0.006 C 
ATOM     34  C   UNN dAMED      -4.538   2.241  -5.194  0.00  0.00     0.006 C 
ATOM     35  C   UNN dAMED      -4.538   2.241  -5.194  0.00  0.00     0.006 C 
ENDBRANCH   9  32
TORSDOF 4
