REMARK  8 active torsions:
REMARK  status: ('A' for Active; 'I' for Inactive)
REMARK    1  A    between atoms: C_4  and  N_30 
REMARK    2  A    between atoms: C_9  and  N_30 
REMARK    3  A    between atoms: C_16  and  O_19 
REMARK    4  A    between atoms: C_17  and  N_31 
REMARK    5  A    between atoms: C_25  and  O_19 
REMARK    6  A    between atoms: C_20  and  C_21 
REMARK       I    between atoms: C_20  and  N_31 
REMARK    7  A    between atoms: C_23  and  C_24 
REMARK    8  A    between atoms: C_24  and  N_32 
ROOT
ATOM      1  C   UNN dAMED      -2.694  -0.206   0.129  0.00  0.00     0.166 A 
ATOM      2  N   UNN dAMED      -3.662  -1.153   0.209  0.00  0.00    -0.205 NA
ATOM      3  C   UNN dAMED      -3.265  -2.420   0.417  0.00  0.00     0.200 A 
ATOM      4  N   UNN dAMED      -1.996  -2.857   0.477  0.00  0.00    -0.224 NA
ATOM      5  C   UNN dAMED      -1.043  -1.932   0.317  0.00  0.00     0.088 A 
ATOM      6  C   UNN dAMED      -1.334  -0.568   0.169  0.00  0.00     0.055 A 
ATOM      7  C   UNN dAMED       0.277  -2.332   0.208  0.00  0.00     0.045 A 
ATOM      8  C   UNN dAMED       1.301  -1.422  -0.073  0.00  0.00     0.113 A 
ATOM      9  C   UNN dAMED       1.070  -0.045  -0.181  0.00  0.00     0.107 A 
ATOM     10  C   UNN dAMED      -0.271   0.340  -0.034  0.00  0.00     0.026 A 
ENDROOT
BRANCH   1  11
ATOM     11  N   UNN dAMED      -3.090   1.052  -0.190  0.00  0.00    -0.227 NA
BRANCH  11  12
ATOM     12  C   UNN dAMED      -4.104   1.635   0.493  0.00  0.00     0.084 A 
ATOM     13  C   UNN dAMED      -4.919   1.012   1.452  0.00  0.00     0.033 A 
ATOM     14  C   UNN dAMED      -6.030   1.641   2.009  0.00  0.00     0.087 A 
ATOM     15  C   UNN dAMED      -6.345   2.937   1.630  0.00  0.00     0.151 A 
ATOM     16 CL   UNN dAMED      -7.008   0.768   3.116  0.00  0.00    -0.080 Cl
ATOM     17  C   UNN dAMED      -5.549   3.607   0.712  0.00  0.00     0.032 A 
ATOM     18  F   UNN dAMED      -7.423   3.553   2.134  0.00  0.00    -0.203 F 
ATOM     19  C   UNN dAMED      -4.449   2.953   0.154  0.00  0.00     0.021 A 
ENDBRANCH  11  12
ENDBRANCH   1  11
BRANCH   9  20
ATOM     20  N   UNN dAMED       1.937   0.916  -0.574  0.00  0.00    -0.206 NA
ATOM     21  C   UNN dAMED       3.217   0.734  -0.261  0.00  0.00     0.279 C 
ATOM     22  O   UNN dAMED       4.138   0.693  -1.070  0.00  0.00    -0.265 OA
BRANCH  21  23
ATOM     23  C   UNN dAMED       3.615   1.037   1.156  0.00  0.00     0.060 C 
ATOM     24  C   UNN dAMED       3.775   2.315   1.493  0.00  0.00     0.003 C 
BRANCH  24  25
ATOM     25  C   UNN dAMED       4.436   2.720   2.811  0.00  0.00     0.124 C 
BRANCH  25  26
ATOM     26  N   UNN dAMED       4.255   4.032   3.299  0.00  0.00    -0.362 N 
ATOM     27  C   UNN dAMED       4.108   5.313   3.952  0.00  0.00     0.121 C 
ATOM     28  C   UNN dAMED       4.772   5.245   2.632  0.00  0.00     0.121 C 
ENDBRANCH  25  26
ENDBRANCH  24  25
ENDBRANCH  21  23
ENDBRANCH   9  20
BRANCH   8  29
ATOM     29  O   UNN dAMED       2.524  -1.968  -0.350  0.00  0.00    -0.329 OA
BRANCH  29  30
ATOM     30  C   UNN dAMED       2.606  -1.952  -1.745  0.00  0.00     0.153 C 
ATOM     31  C   UNN dAMED       1.383  -2.105  -2.601  0.00  0.00     0.065 C 
ATOM     32  C   UNN dAMED       1.700  -1.240  -3.818  0.00  0.00     0.145 C 
ATOM     33  O   UNN dAMED       2.975  -0.612  -3.790  0.00  0.00    -0.352 OA
ATOM     34  C   UNN dAMED       3.435  -0.908  -2.480  0.00  0.00     0.172 C 
ENDBRANCH  29  30
ENDBRANCH   8  29
TORSDOF 8
