REMARK  0 active torsions:
REMARK  status: ('A' for Active; 'I' for Inactive)
ROOT
ATOM      1  N   UNN dAMED      -2.211   1.443  -0.188  0.00  0.00    -0.219 NA
ATOM      2  N   UNN dAMED      -0.026   0.958   0.577  0.00  0.00    -0.187 NA
ATOM      3  N   UNN dAMED      -1.327  -0.738  -0.450  0.00  0.00    -0.187 NA
ATOM      4  N   UNN dAMED       2.165   0.478   1.325  0.00  0.00    -0.219 NA
ATOM      5  N   UNN dAMED       0.869  -1.222   0.306  0.00  0.00    -0.187 NA
ATOM      6  N   UNN dAMED      -0.432  -2.912  -0.723  0.00  0.00    -0.219 NA
ATOM      7  C   UNN dAMED      -1.757  -3.479  -0.881  0.00  0.00     0.097 A 
ATOM      8  C   UNN dAMED      -0.866  -3.165  -2.084  0.00  0.00     0.097 A 
ATOM      9  C   UNN dAMED      -2.193   2.341  -1.327  0.00  0.00     0.097 A 
ATOM     10  C   UNN dAMED      -1.989   2.847   0.101  0.00  0.00     0.097 A 
ATOM     11  C   UNN dAMED      -0.293  -1.583  -0.273  0.00  0.00     0.211 A 
ATOM     12  C   UNN dAMED      -1.156   0.524  -0.013  0.00  0.00     0.211 A 
ATOM     13  C   UNN dAMED       0.965   0.057   0.719  0.00  0.00     0.211 A 
ATOM     14  C   UNN dAMED       2.257   1.820   1.870  0.00  0.00     0.097 A 
ATOM     15  C   UNN dAMED       3.036   1.402   0.622  0.00  0.00     0.097 A 
ENDROOT
TORSDOF 0
