REMARK  9 active torsions:
REMARK  status: ('A' for Active; 'I' for Inactive)
REMARK    1  A    between atoms: C_1  and  C_3 
REMARK       I    between atoms: C_1  and  N_10 
REMARK    2  A    between atoms: C_9  and  N_10 
REMARK    3  A    between atoms: C_9  and  C_11 
REMARK    4  A    between atoms: C_9  and  C_12 
REMARK       I    between atoms: C_11  and  N_21 
REMARK    5  A    between atoms: C_12  and  C_13 
REMARK    6  A    between atoms: C_20  and  N_21 
REMARK    7  A    between atoms: C_20  and  B_22 
REMARK    8  A    between atoms: C_20  and  C_25 
REMARK    9  A    between atoms: C_25  and  C_26 
ROOT
ATOM      1  C   UNN dAMED      -1.317  -0.960   0.470  0.00  0.00     0.124 C 
ENDROOT
BRANCH   1   2
ATOM      2  N   UNN dAMED      -2.774  -0.819   0.405  0.00  0.00    -0.206 NA
ATOM      3  C   UNN dAMED      -3.362  -0.111  -0.555  0.00  0.00     0.298 C 
ATOM      4  O   UNN dAMED      -2.928   0.153  -1.667  0.00  0.00    -0.263 OA
BRANCH   3   5
ATOM      5  C   UNN dAMED      -4.690   0.385  -0.209  0.00  0.00     0.158 A 
ATOM      6  N   UNN dAMED      -5.730  -0.376  -0.601  0.00  0.00    -0.236 NA
ATOM      7  C   UNN dAMED      -6.947   0.168  -0.405  0.00  0.00     0.120 A 
ATOM      8  C   UNN dAMED      -7.103   1.425   0.144  0.00  0.00     0.120 A 
ATOM      9  N   UNN dAMED      -6.048   2.179   0.520  0.00  0.00    -0.239 NA
ATOM     10  C   UNN dAMED      -4.830   1.645   0.328  0.00  0.00     0.123 A 
ENDBRANCH   3   5
ENDBRANCH   1   2
BRANCH   1  11
ATOM     11  C   UNN dAMED      -0.536  -1.360  -0.759  0.00  0.00     0.292 C 
ATOM     12  O   UNN dAMED      -0.852  -2.407  -1.308  0.00  0.00    -0.264 OA
ATOM     13  N   UNN dAMED       0.451  -0.551  -1.131  0.00  0.00    -0.223 NA
BRANCH  13  14
ATOM     14  C   UNN dAMED       1.677  -1.137  -1.654  0.00  0.00     0.059 C 
BRANCH  14  15
ATOM     15  B   UNN dAMED       2.964  -0.703  -2.378  0.00  0.00     0.602 B 
ATOM     16  O   UNN dAMED       4.159  -1.145  -1.952  0.00  0.00    -0.279 OA
ATOM     17  O   UNN dAMED       2.916   0.211  -3.362  0.00  0.00    -0.279 OA
ENDBRANCH  14  15
BRANCH  14  18
ATOM     18  C   UNN dAMED       1.932  -2.635  -1.461  0.00  0.00     0.034 C 
BRANCH  18  19
ATOM     19  C   UNN dAMED       0.784  -3.626  -1.191  0.00  0.00     0.005 C 
ATOM     20  C   UNN dAMED       0.741  -4.949  -1.964  0.00  0.00     0.000 C 
ATOM     21  C   UNN dAMED      -0.433  -3.200  -0.360  0.00  0.00     0.000 C 
ENDBRANCH  18  19
ENDBRANCH  14  18
ENDBRANCH  13  14
ENDBRANCH   1  11
BRANCH   1  22
ATOM     22  C   UNN dAMED      -0.707  -1.305   1.830  0.00  0.00     0.077 C 
BRANCH  22  23
ATOM     23  C   UNN dAMED       0.006  -0.267   2.646  0.00  0.00    -0.016 A 
ATOM     24  C   UNN dAMED      -0.567   0.177   3.836  0.00  0.00    -0.004 A 
ATOM     25  C   UNN dAMED       0.178   0.966   4.709  0.00  0.00    -0.000 A 
ATOM     26  C   UNN dAMED       1.491   1.304   4.391  0.00  0.00    -0.000 A 
ATOM     27  C   UNN dAMED       2.058   0.866   3.196  0.00  0.00    -0.000 A 
ATOM     28  C   UNN dAMED       1.318   0.075   2.324  0.00  0.00    -0.004 A 
ENDBRANCH  22  23
ENDBRANCH   1  22
TORSDOF 9
