REMARK  6 active torsions:
REMARK  status: ('A' for Active; 'I' for Inactive)
REMARK    1  A    between atoms: C_7  and  C_11 
REMARK    2  A    between atoms: C_11  and  C_13 
REMARK    3  A    between atoms: C_16  and  O_19 
REMARK    4  A    between atoms: O_19  and  C_20 
REMARK    5  A    between atoms: C_20  and  C_21 
REMARK    6  A    between atoms: C_21  and  N_22 
ROOT
ATOM      1  C   UNN dAMED      -0.825  -5.944   0.757  0.00  0.00     0.196 A 
ATOM      2  C   UNN dAMED      -1.221  -4.780   0.091  0.00  0.00     0.042 A 
ATOM      3  C   UNN dAMED      -0.386  -3.676  -0.128  0.00  0.00     0.004 A 
ATOM      4  C   UNN dAMED       0.948  -3.699   0.327  0.00  0.00     0.010 A 
ATOM      5  C   UNN dAMED       1.369  -4.840   1.001  0.00  0.00     0.033 A 
ATOM      6  C   UNN dAMED       0.504  -5.931   1.207  0.00  0.00     0.049 A 
ATOM      7  C   UNN dAMED       1.998  -2.710   0.239  0.00  0.00     0.045 A 
ATOM      8  C   UNN dAMED       3.191  -3.151   0.804  0.00  0.00     0.033 A 
ATOM      9  S   UNN dAMED       2.989  -4.701   1.523  0.00  0.00    -0.087 SA
ATOM     10  O   UNN dAMED      -1.605  -6.933   0.943  0.00  0.00    -0.286 OA
ATOM     11  C   UNN dAMED       4.516  -2.514   0.870  0.00  0.00     0.006 A 
ATOM     12  C   UNN dAMED       4.653  -1.131   0.900  0.00  0.00     0.004 A 
ATOM     13  C   UNN dAMED       5.920  -0.538   0.862  0.00  0.00     0.042 A 
ATOM     14  C   UNN dAMED       7.118  -1.269   0.822  0.00  0.00     0.196 A 
ATOM     15  C   UNN dAMED       6.941  -2.660   0.823  0.00  0.00     0.042 A 
ATOM     16  C   UNN dAMED       5.685  -3.274   0.827  0.00  0.00     0.004 A 
ATOM     17  O   UNN dAMED       8.265  -0.718   0.785  0.00  0.00    -0.287 OA
ENDROOT
BRANCH   7  18
ATOM     18  C   UNN dAMED       1.796  -1.376  -0.319  0.00  0.00     0.196 C 
ATOM     19  O   UNN dAMED       1.243  -0.495   0.333  0.00  0.00    -0.286 OA
BRANCH  18  20
ATOM     20  C   UNN dAMED       2.258  -1.078  -1.690  0.00  0.00     0.039 A 
ATOM     21  C   UNN dAMED       3.186  -1.891  -2.341  0.00  0.00     0.005 A 
ATOM     22  C   UNN dAMED       3.709  -1.499  -3.570  0.00  0.00     0.024 A 
ATOM     23  C   UNN dAMED       3.304  -0.291  -4.125  0.00  0.00     0.094 A 
ATOM     24  C   UNN dAMED       2.377   0.528  -3.494  0.00  0.00     0.024 A 
ATOM     25  C   UNN dAMED       1.855   0.130  -2.268  0.00  0.00     0.005 A 
BRANCH  23  26
ATOM     26  O   UNN dAMED       3.843   0.108  -5.311  0.00  0.00    -0.329 OA
BRANCH  26  27
ATOM     27  C   UNN dAMED       5.004  -0.654  -5.452  0.00  0.00     0.184 C 
BRANCH  27  28
ATOM     28  C   UNN dAMED       6.372   0.032  -5.440  0.00  0.00     0.283 C 
BRANCH  28  29
ATOM     29  N   UNN dAMED       7.571  -0.752  -5.235  0.00  0.00     0.140 N 
ATOM     30  C   UNN dAMED       7.882  -1.888  -4.394  0.00  0.00     0.250 C 
ATOM     31  C   UNN dAMED       9.350  -2.299  -4.242  0.00  0.00     0.035 C 
ATOM     32  C   UNN dAMED      10.297  -1.145  -3.936  0.00  0.00     0.004 C 
ATOM     33  C   UNN dAMED       9.926   0.136  -4.673  0.00  0.00     0.035 C 
ATOM     34  C   UNN dAMED       8.419   0.376  -4.824  0.00  0.00     0.250 C 
ENDBRANCH  28  29
ENDBRANCH  27  28
ENDBRANCH  26  27
ENDBRANCH  23  26
ENDBRANCH  18  20
ENDBRANCH   7  18
TORSDOF 6
