REMARK  0 active torsions:
REMARK  status: ('A' for Active; 'I' for Inactive)
REMARK       I    between atoms: C_4  and  N_13 
REMARK       I    between atoms: C_5  and  N_7 
REMARK       I    between atoms: C_6  and  N_10 
ROOT
ATOM      1  N   UNN dAMED      -1.257   0.544  -0.009  0.00  0.00     0.131 NA
ATOM      2  N   UNN dAMED       1.099   0.817  -0.001  0.00  0.00     0.131 NA
ATOM      3  N   UNN dAMED       0.157  -1.360   0.007  0.00  0.00     0.131 NA
ATOM      4  C   UNN dAMED       1.215  -0.526   0.007  0.00  0.00     0.758 A 
ATOM      5  C   UNN dAMED      -0.152   1.315  -0.009  0.00  0.00     0.758 A 
ATOM      6  C   UNN dAMED      -1.063  -0.790  -0.001  0.00  0.00     0.758 A 
ATOM      7  N   UNN dAMED      -0.314   2.715  -0.018  0.00  0.00    -0.178 N 
ATOM      8  C   UNN dAMED       0.848   3.576   0.093  0.00  0.00     0.144 C 
ATOM      9  C   UNN dAMED      -1.642   3.286  -0.137  0.00  0.00     0.144 C 
ATOM     10  N   UNN dAMED      -2.194  -1.630  -0.000  0.00  0.00    -0.178 N 
ATOM     11  C   UNN dAMED      -3.496  -1.086  -0.334  0.00  0.00     0.144 C 
ATOM     12  C   UNN dAMED      -2.049  -3.033   0.335  0.00  0.00     0.144 C 
ATOM     13  N   UNN dAMED       2.508  -1.085   0.015  0.00  0.00    -0.178 N 
ATOM     14  C   UNN dAMED       3.603  -0.360   0.630  0.00  0.00     0.144 C 
ATOM     15  C   UNN dAMED       2.738  -2.380  -0.597  0.00  0.00     0.144 C 
ENDROOT
TORSDOF 0
