REMARK  4 active torsions:
REMARK  status: ('A' for Active; 'I' for Inactive)
REMARK    1  A    between atoms: C_2  and  C_34 
REMARK    2  A    between atoms: C_4  and  N_38 
REMARK    3  A    between atoms: C_12  and  C_14 
REMARK       I    between atoms: C_12  and  N_38 
REMARK    4  A    between atoms: C_16  and  N_39 
REMARK       I    between atoms: C_20  and  N_39 
ROOT
ATOM      1  C   UNN dAMED      -0.560  -1.769   0.417  0.00  0.00     0.059 A 
ATOM      2  C   UNN dAMED       0.695  -1.311   0.017  0.00  0.00     0.024 A 
ATOM      3  C   UNN dAMED       1.692  -2.203  -0.396  0.00  0.00     0.096 A 
ATOM      4  C   UNN dAMED       1.373  -3.570  -0.399  0.00  0.00    -0.004 A 
ATOM      5  C   UNN dAMED       0.117  -4.028   0.015  0.00  0.00    -0.003 A 
ATOM      6  C   UNN dAMED      -0.861  -3.126   0.424  0.00  0.00     0.005 A 
ATOM      7  C   UNN dAMED       2.399  -4.565  -0.864  0.00  0.00     0.033 C 
ENDROOT
BRANCH   1   8
ATOM      8  C   UNN dAMED      -1.583  -0.785   0.792  0.00  0.00     0.279 C 
ATOM      9  O   UNN dAMED      -1.685  -0.504   1.984  0.00  0.00    -0.265 OA
ATOM     10  N   UNN dAMED      -2.208  -0.252  -0.264  0.00  0.00    -0.208 NA
BRANCH  10  11
ATOM     11  C   UNN dAMED      -3.483   0.110  -0.017  0.00  0.00     0.086 A 
ATOM     12  C   UNN dAMED      -3.827   1.469   0.073  0.00  0.00     0.023 A 
ATOM     13  C   UNN dAMED      -5.148   1.896   0.259  0.00  0.00     0.074 A 
ATOM     14  C   UNN dAMED      -6.158   0.943   0.359  0.00  0.00     0.021 A 
ATOM     15  C   UNN dAMED      -5.828  -0.405   0.260  0.00  0.00     0.067 A 
ATOM     16  C   UNN dAMED      -4.517  -0.830   0.062  0.00  0.00     0.037 A 
ATOM     17  N   UNN dAMED      -6.844  -1.351   0.352  0.00  0.00    -0.287 N 
ATOM     18  C   UNN dAMED      -7.516  -1.703   1.494  0.00  0.00     0.096 A 
ATOM     19  C   UNN dAMED      -7.410  -2.033  -0.695  0.00  0.00     0.183 A 
ATOM     20  C   UNN dAMED      -8.462  -2.599   1.055  0.00  0.00     0.079 A 
ATOM     21  N   UNN dAMED      -8.412  -2.788  -0.298  0.00  0.00    -0.228 NA
ATOM     22  C   UNN dAMED      -9.637  -3.014   1.889  0.00  0.00     0.054 C 
BRANCH  13  23
ATOM     23  C   UNN dAMED      -5.459   3.357   0.333  0.00  0.00     0.419 C 
ATOM     24  F   UNN dAMED      -5.052   3.919   1.504  0.00  0.00    -0.166 F 
ATOM     25  F   UNN dAMED      -6.789   3.633   0.229  0.00  0.00    -0.166 F 
ATOM     26  F   UNN dAMED      -4.859   4.073  -0.658  0.00  0.00    -0.166 F 
ENDBRANCH  13  23
ENDBRANCH  10  11
ENDBRANCH   1   8
BRANCH   3  27
ATOM     27  N   UNN dAMED       2.833  -1.722  -0.928  0.00  0.00    -0.060 NA
ATOM     28  C   UNN dAMED       3.941  -1.799  -0.163  0.00  0.00     0.750 A 
ATOM     29  N   UNN dAMED       5.072  -2.093  -0.840  0.00  0.00    -0.058 NA
ATOM     30  N   UNN dAMED       3.896  -1.420   1.139  0.00  0.00    -0.059 NA
ATOM     31  C   UNN dAMED       6.221  -2.000  -0.145  0.00  0.00     0.120 A 
ATOM     32  C   UNN dAMED       6.287  -1.625   1.179  0.00  0.00     0.041 A 
ATOM     33  C   UNN dAMED       5.080  -1.350   1.804  0.00  0.00     0.103 A 
ATOM     34  C   UNN dAMED       5.034  -0.954   3.212  0.00  0.00     0.037 A 
ATOM     35  C   UNN dAMED       3.974  -0.221   3.745  0.00  0.00     0.005 A 
ATOM     36  C   UNN dAMED       6.055  -1.277   4.103  0.00  0.00     0.100 A 
ATOM     37  C   UNN dAMED       3.957   0.144   5.087  0.00  0.00     0.021 A 
ATOM     38  C   UNN dAMED       5.034  -0.233   5.870  0.00  0.00     0.099 A 
ATOM     39  N   UNN dAMED       6.089  -0.936   5.411  0.00  0.00    -0.242 NA
ENDBRANCH   3  27
TORSDOF 4
