REMARK  3 active torsions:
REMARK  status: ('A' for Active; 'I' for Inactive)
REMARK    1  A    between atoms: C_4  and  C_18 
REMARK    2  A    between atoms: C_10  and  C_18 
REMARK    3  A    between atoms: C_15  and  C_18 
ROOT
ATOM      1  C   UNN dAMED       0.383   0.421   0.658  0.00  0.00     0.022 C 
ENDROOT
BRANCH   1   2
ATOM      2  C   UNN dAMED       1.647  -0.392   0.483  0.00  0.00     0.002 A 
ATOM      3  C   UNN dAMED       1.870  -1.516   1.278  0.00  0.00     0.001 A 
ATOM      4  C   UNN dAMED       2.988  -2.316   1.058  0.00  0.00     0.011 A 
ATOM      5  C   UNN dAMED       3.873  -1.991   0.035  0.00  0.00     0.058 A 
ATOM      6 CL   UNN dAMED       5.249  -2.978  -0.239  0.00  0.00    -0.082 Cl
ATOM      7  C   UNN dAMED       3.652  -0.878  -0.770  0.00  0.00     0.011 A 
ATOM      8  C   UNN dAMED       2.534  -0.081  -0.547  0.00  0.00     0.001 A 
ENDBRANCH   1   2
BRANCH   1   9
ATOM      9  C   UNN dAMED       0.267   1.439   1.772  0.00  0.00     0.012 A 
ATOM     10  C   UNN dAMED      -0.163   1.035   3.036  0.00  0.00     0.001 A 
ATOM     11  C   UNN dAMED      -0.296   1.969   4.062  0.00  0.00     0.000 A 
ATOM     12  C   UNN dAMED      -0.004   3.310   3.826  0.00  0.00     0.001 A 
ATOM     13  C   UNN dAMED       0.419   3.720   2.565  0.00  0.00     0.011 A 
ATOM     14  C   UNN dAMED       0.550   2.783   1.544  0.00  0.00     0.058 A 
ATOM     15 CL   UNN dAMED       1.068   3.304  -0.007  0.00  0.00    -0.082 Cl
ENDBRANCH   1   9
BRANCH   1  16
ATOM     16  C   UNN dAMED      -0.872   0.032  -0.141  0.00  0.00     0.115 C 
ATOM     17 CL   UNN dAMED      -1.163   0.734  -1.723  0.00  0.00    -0.070 Cl
ATOM     18 CL   UNN dAMED      -1.941  -1.230   0.452  0.00  0.00    -0.070 Cl
ENDBRANCH   1  16
TORSDOF 3
