REMARK  3 active torsions:
REMARK  status: ('A' for Active; 'I' for Inactive)
REMARK    1  A    between atoms: N_1  and  P_2 
REMARK    2  A    between atoms: P_2  and  N_5 
REMARK    3  A    between atoms: P_2  and  N_4 
ROOT
ATOM      1  P   UNN dAMED       0.031   0.307  -0.279  0.00  0.00     0.151 P 
ATOM      2  S   UNN dAMED       0.955   0.508  -1.995  0.00  0.00    -0.046 SA
ENDROOT
BRANCH   1   3
ATOM      3  N   UNN dAMED      -1.276  -0.729  -0.294  0.00  0.00    -0.228 NA
ATOM      4  C   UNN dAMED      -2.619  -0.181  -0.248  0.00  0.00     0.096 A 
ATOM      5  C   UNN dAMED      -2.024  -0.958   0.928  0.00  0.00     0.096 A 
ENDBRANCH   1   3
BRANCH   1   6
ATOM      6  N   UNN dAMED       0.977  -0.284   0.962  0.00  0.00    -0.228 NA
ATOM      7  C   UNN dAMED       0.406  -1.216   1.916  0.00  0.00     0.096 A 
ATOM      8  C   UNN dAMED       1.464  -1.649   0.899  0.00  0.00     0.096 A 
ENDBRANCH   1   6
BRANCH   1   9
ATOM      9  N   UNN dAMED      -0.605   1.714   0.352  0.00  0.00    -0.228 NA
ATOM     10  C   UNN dAMED      -1.109   2.733  -0.550  0.00  0.00     0.096 A 
ATOM     11  C   UNN dAMED      -2.043   1.912   0.341  0.00  0.00     0.096 A 
ENDBRANCH   1   9
TORSDOF 3
