REMARK  0 active torsions:
REMARK  status: ('A' for Active; 'I' for Inactive)
ROOT
HETATM    1  N   UNN     0       1.656   1.091   0.260  0.00  0.00     0.013 N 
HETATM    2  H   UNN     0       2.114   1.336   1.167  0.00  0.00     0.289 HD
HETATM    3  C   UNN     0      -1.982  -0.816  -0.219  0.00  0.00     0.036 C 
HETATM    4  C   UNN     0      -2.888   0.162   0.517  0.00  0.00     0.002 C 
HETATM    5  C   UNN     0      -2.205   1.578   0.975  0.00  0.00     0.002 C 
HETATM    6  C   UNN     0      -0.693   1.627   1.149  0.00  0.00     0.036 C 
HETATM    7  C   UNN     0      -0.036   0.689   0.145  0.00  0.00     0.227 C 
HETATM    8  O   UNN     0       2.482  -0.274  -2.512  0.00  0.00    -0.221 OA
HETATM    9  O   UNN     0       3.298  -1.653   0.327  0.00  0.00    -0.221 OA
HETATM   10  C   UNN     0       3.656  -0.898  -2.657  0.00  0.00     0.366 A 
HETATM   11  C   UNN     0       4.256  -1.912  -0.570  0.00  0.00     0.366 A 
HETATM   12  O   UNN     0       4.308  -0.943  -3.674  0.00  0.00    -0.253 OA
HETATM   13  O   UNN     0       5.259  -2.552  -0.362  0.00  0.00    -0.253 OA
HETATM   14  C   UNN     0      -0.570  -0.723   0.344  0.00  0.00     0.227 C 
HETATM   15  H   UNN     0       1.944   1.943  -0.273  0.00  0.00     0.289 HD
HETATM   16  H   UNN     0      -0.201  -1.619  -1.556  0.00  0.00     0.289 HD
HETATM   17  H   UNN     0       0.351  -2.522  -0.265  0.00  0.00     0.289 HD
HETATM   18  N   UNN     0       0.243  -1.543  -0.614  0.00  0.00     0.013 N 
HETATM   19  Pt  UNN     0       1.990  -0.621  -0.668  0.00  0.00     0.502 P 
ENDROOT
TORSDOF 0
