REMARK  9 active torsions:
REMARK  status: ('A' for Active; 'I' for Inactive)
REMARK    1  A    between atoms: C_10  and  C_11 
REMARK    2  A    between atoms: C_11  and  C_12 
REMARK    3  A    between atoms: C_12  and  C_13 
REMARK    4  A    between atoms: C_16  and  C_19 
REMARK       I    between atoms: C_19  and  N_24 
REMARK    5  A    between atoms: CA_21  and  CB_22 
REMARK    6  A    between atoms: CA_21  and  N_24 
REMARK    7  A    between atoms: CA_21  and  C_25 
REMARK    8  A    between atoms: CB_22  and  CG_23 
REMARK    9  A    between atoms: CG_23  and  CD_28 
ROOT
ATOM      1  C   UNN dAMED       0.899   0.597   0.183  0.00  0.00    -0.022 A 
ATOM      2  C   UNN dAMED       0.973   1.807  -0.508  0.00  0.00    -0.004 A 
ATOM      3  C   UNN dAMED       0.640   2.998   0.128  0.00  0.00     0.004 A 
ATOM      4  C   UNN dAMED       0.199   2.960   1.449  0.00  0.00     0.058 A 
ATOM      5  C   UNN dAMED       0.118   1.757   2.150  0.00  0.00     0.004 A 
ATOM      6  C   UNN dAMED       0.468   0.570   1.509  0.00  0.00    -0.004 A 
ENDROOT
BRANCH   1   7
ATOM      7  C   UNN dAMED       1.455  -0.651  -0.453  0.00  0.00     0.031 C 
BRANCH   7   8
ATOM      8  C   UNN dAMED       2.972  -0.907  -0.521  0.00  0.00     0.033 C 
BRANCH   8   9
ATOM      9  C   UNN dAMED       3.929   0.189  -0.873  0.00  0.00     0.005 A 
ATOM     10  C   UNN dAMED       4.847   0.581   0.015  0.00  0.00     0.091 A 
ATOM     11  C   UNN dAMED       5.514   1.718  -0.603  0.00  0.00     0.169 A 
ATOM     12  C   UNN dAMED       5.241   0.166   1.356  0.00  0.00     0.284 A 
ATOM     13  N   UNN dAMED       6.461   2.377  -0.037  0.00  0.00    -0.195 NA
ATOM     14  N   UNN dAMED       4.954   1.938  -1.834  0.00  0.00    -0.225 NA
ATOM     15  C   UNN dAMED       6.814   1.921   1.224  0.00  0.00     0.241 A 
ATOM     16  N   UNN dAMED       7.875   2.613   1.878  0.00  0.00    -0.059 NA
ATOM     17  N   UNN dAMED       6.275   0.925   1.873  0.00  0.00    -0.176 NA
ATOM     18  C   UNN dAMED       4.042   1.103  -2.052  0.00  0.00     0.097 A 
ATOM     19  O   UNN dAMED       4.693  -0.766   1.931  0.00  0.00    -0.265 OA
ENDBRANCH   8   9
ENDBRANCH   7   8
ENDBRANCH   1   7
BRANCH   4  20
ATOM     20  C   UNN dAMED       0.022   4.221   2.175  0.00  0.00     0.279 C 
ATOM     21  O   UNN dAMED       0.941   4.591   2.897  0.00  0.00    -0.265 OA
ATOM     22  N   UNN dAMED      -1.149   4.821   1.976  0.00  0.00    -0.206 NA
BRANCH  22  23
ATOM     23  CA  UNN dAMED      -1.264   6.273   1.794  0.00  0.00     0.127 C 
BRANCH  23  24
ATOM     24  CB  UNN dAMED      -2.512   6.846   1.109  0.00  0.00     0.064 C 
BRANCH  24  25
ATOM     25  CG  UNN dAMED      -3.400   5.972   0.216  0.00  0.00     0.104 C 
BRANCH  25  26
ATOM     26  CD  UNN dAMED      -4.525   5.162   0.805  0.00  0.00     0.186 C 
ATOM     27  OE1 UNN dAMED      -5.264   5.743   1.656  0.00  0.00    -0.647 OA
ATOM     28  OE2 UNN dAMED      -4.655   3.981   0.364  0.00  0.00    -0.647 OA
ENDBRANCH  25  26
ENDBRANCH  24  25
ENDBRANCH  23  24
BRANCH  23  29
ATOM     29  C   UNN dAMED      -0.372   7.243   2.542  0.00  0.00     0.225 C 
ATOM     30  O   UNN dAMED       0.526   7.823   1.861  0.00  0.00    -0.643 OA
ATOM     31  OXT UNN dAMED      -0.632   7.427   3.770  0.00  0.00    -0.643 OA
ENDBRANCH  23  29
ENDBRANCH  22  23
ENDBRANCH   4  20
TORSDOF 9
