REMARK  5 active torsions:
REMARK  status: ('A' for Active; 'I' for Inactive)
REMARK    1  A    between atoms: C_5  and  C_6 
REMARK    2  A    between atoms: C_5  and  N_8 
REMARK    3  A    between atoms: N_8  and  C_9 
REMARK    4  A    between atoms: N_8  and  P_12 
REMARK    5  A    between atoms: C_9  and  C_10 
ROOT
ATOM      1  O   UNN dAMED       1.452   0.392   0.228  0.00  0.00    -0.291 OA
ATOM      2  C   UNN dAMED       1.942  -0.814  -0.301  0.00  0.00     0.153 C 
ATOM      3  C   UNN dAMED       0.978  -1.888  -0.820  0.00  0.00     0.052 C 
ATOM      4  C   UNN dAMED      -0.334  -1.387  -1.406  0.00  0.00     0.102 C 
ATOM      5  P   UNN dAMED      -0.047   0.098   0.786  0.00  0.00     0.364 P 
ATOM      6  O   UNN dAMED      -0.082  -1.089   1.710  0.00  0.00    -0.253 OA
ATOM      7  N   UNN dAMED      -0.946  -0.344  -0.616  0.00  0.00    -0.133 NA
ENDROOT
BRANCH   5   8
ATOM      8  N   UNN dAMED      -0.645   1.527   1.352  0.00  0.00    -0.195 NA
BRANCH   8   9
ATOM      9  C   UNN dAMED      -1.366   2.434   0.465  0.00  0.00     0.099 C 
BRANCH   9  10
ATOM     10  C   UNN dAMED      -2.731   2.030  -0.102  0.00  0.00     0.113 C 
ATOM     11 CL   UNN dAMED      -3.224   2.599  -1.686  0.00  0.00    -0.112 Cl
ENDBRANCH   9  10
ENDBRANCH   8   9
BRANCH   8  12
ATOM     12  C   UNN dAMED      -1.536   1.545   2.508  0.00  0.00     0.099 C 
BRANCH  12  13
ATOM     13  C   UNN dAMED      -1.000   1.970   3.878  0.00  0.00     0.113 C 
ATOM     14 CL   UNN dAMED      -1.326   0.982   5.290  0.00  0.00    -0.112 Cl
ENDBRANCH  12  13
ENDBRANCH   8  12
ENDBRANCH   5   8
TORSDOF 5
