REMARK  20 active torsions:
REMARK  status: ('A' for Active; 'I' for Inactive)
REMARK    1  A    between atoms: C_1  and  C_2 
REMARK    2  A    between atoms: C_1  and  C_48 
REMARK    3  A    between atoms: C_2  and  N_42 
REMARK    4  A    between atoms: C_2  and  C_44 
REMARK    5  A    between atoms: C_4  and  C_5 
REMARK       I    between atoms: C_4  and  N_42 
REMARK    6  A    between atoms: C_5  and  C_7 
REMARK    7  A    between atoms: C_5  and  N_41 
REMARK    8  A    between atoms: C_7  and  C_8 
REMARK    9  A    between atoms: C_14  and  C_15 
REMARK       I    between atoms: C_14  and  N_41 
REMARK   10  A    between atoms: C_15  and  C_17 
REMARK   11  A    between atoms: C_15  and  N_40 
REMARK   12  A    between atoms: C_17  and  C_18 
REMARK   13  A    between atoms: C_19  and  C_20 
REMARK       I    between atoms: C_19  and  N_40 
REMARK   14  A    between atoms: C_20  and  C_22 
REMARK   15  A    between atoms: C_20  and  N_39 
REMARK   16  A    between atoms: C_22  and  C_23 
REMARK   17  A    between atoms: C_23  and  C_24 
REMARK   18  A    between atoms: C_30  and  C_31 
REMARK       I    between atoms: C_30  and  N_39 
REMARK   19  A    between atoms: C_31  and  N_33 
REMARK   20  A    between atoms: C_44  and  C_45 
ROOT
ATOM      1  C   UNN dAMED      -2.231  -2.422  -5.992  0.00  0.00     0.120 C 
ENDROOT
BRANCH   1   2
ATOM      2  C   UNN dAMED      -2.644  -3.830  -5.638  0.00  0.00     0.293 C 
ATOM      3  O   UNN dAMED      -2.810  -4.622  -6.555  0.00  0.00    -0.264 OA
ATOM      4  N   UNN dAMED      -2.723  -4.112  -4.344  0.00  0.00    -0.202 NA
BRANCH   4   5
ATOM      5  C   UNN dAMED      -1.529  -4.586  -3.669  0.00  0.00     0.142 C 
BRANCH   5   6
ATOM      6  C   UNN dAMED      -1.437  -4.480  -2.169  0.00  0.00     0.297 C 
ATOM      7  O   UNN dAMED      -1.173  -3.383  -1.702  0.00  0.00    -0.264 OA
ATOM      8  N   UNN dAMED      -1.396  -5.640  -1.519  0.00  0.00    -0.208 NA
BRANCH   8   9
ATOM      9  C   UNN dAMED      -0.195  -6.025  -0.784  0.00  0.00     0.099 C 
BRANCH   9  10
ATOM     10  C   UNN dAMED       1.151  -6.146  -1.465  0.00  0.00     0.213 C 
ATOM     11  O   UNN dAMED       1.365  -5.604  -2.532  0.00  0.00    -0.287 OA
BRANCH  10  12
ATOM     12  C   UNN dAMED       2.263  -6.740  -0.711  0.00  0.00     0.176 A 
ATOM     13  C   UNN dAMED       2.917  -7.733  -1.642  0.00  0.00     0.040 C 
ATOM     14  O   UNN dAMED       1.885  -7.418   0.491  0.00  0.00    -0.346 OA
ATOM     15  C   UNN dAMED       2.247  -6.080   0.647  0.00  0.00     0.177 A 
ENDBRANCH  10  12
ENDBRANCH   9  10
BRANCH   9  16
ATOM     16  C   UNN dAMED      -0.289  -6.157   0.738  0.00  0.00     0.049 C 
BRANCH  16  17
ATOM     17  C   UNN dAMED       0.396  -7.312   1.479  0.00  0.00     0.006 C 
ATOM     18  C   UNN dAMED       1.669  -7.035   2.283  0.00  0.00     0.000 C 
ATOM     19  C   UNN dAMED      -0.356  -8.631   1.685  0.00  0.00     0.000 C 
ENDBRANCH  16  17
ENDBRANCH   9  16
ENDBRANCH   8   9
ENDBRANCH   5   6
BRANCH   5  20
ATOM     20  C   UNN dAMED      -0.226  -4.626  -4.469  0.00  0.00     0.024 C 
BRANCH  20  21
ATOM     21  C   UNN dAMED       0.190  -5.805  -5.311  0.00  0.00     0.002 A 
ATOM     22  C   UNN dAMED       1.184  -5.577  -6.261  0.00  0.00     0.000 A 
ATOM     23  C   UNN dAMED       1.942  -6.633  -6.756  0.00  0.00     0.000 A 
ATOM     24  C   UNN dAMED       1.714  -7.924  -6.291  0.00  0.00     0.000 A 
ATOM     25  C   UNN dAMED       0.713  -8.161  -5.351  0.00  0.00     0.000 A 
ATOM     26  C   UNN dAMED      -0.052  -7.103  -4.863  0.00  0.00     0.000 A 
ENDBRANCH  20  21
ENDBRANCH   5  20
ENDBRANCH   4   5
ENDBRANCH   1   2
BRANCH   1  27
ATOM     27  C   UNN dAMED      -1.267  -1.662  -5.079  0.00  0.00     0.051 C 
BRANCH  27  28
ATOM     28  C   UNN dAMED      -0.581  -2.395  -3.929  0.00  0.00     0.006 C 
ATOM     29  C   UNN dAMED       0.881  -2.081  -3.597  0.00  0.00     0.000 C 
ATOM     30  C   UNN dAMED      -1.380  -3.382  -3.072  0.00  0.00     0.000 C 
ENDBRANCH  27  28
ENDBRANCH   1  27
BRANCH   1  31
ATOM     31  N   UNN dAMED      -3.021  -1.655  -6.936  0.00  0.00    -0.206 NA
ATOM     32  C   UNN dAMED      -2.399  -0.844  -7.783  0.00  0.00     0.293 C 
ATOM     33  O   UNN dAMED      -1.190  -0.666  -7.844  0.00  0.00    -0.264 OA
BRANCH  32  34
ATOM     34  C   UNN dAMED      -3.297  -0.016  -8.671  0.00  0.00     0.120 C 
BRANCH  34  35
ATOM     35  C   UNN dAMED      -4.798  -0.263  -8.631  0.00  0.00     0.056 C 
BRANCH  35  36
ATOM     36  C   UNN dAMED      -5.473  -0.787  -9.894  0.00  0.00     0.033 C 
BRANCH  36  37
ATOM     37  C   UNN dAMED      -6.760  -1.530  -9.745  0.00  0.00    -0.022 A 
ATOM     38  C   UNN dAMED      -7.831  -0.891  -9.126  0.00  0.00    -0.004 A 
ATOM     39  C   UNN dAMED      -8.948  -1.626  -8.744  0.00  0.00    -0.000 A 
ATOM     40  C   UNN dAMED      -8.982  -3.000  -8.965  0.00  0.00    -0.000 A 
ATOM     41  C   UNN dAMED      -7.911  -3.636  -9.591  0.00  0.00    -0.000 A 
ATOM     42  C   UNN dAMED      -6.795  -2.901  -9.979  0.00  0.00    -0.004 A 
ENDBRANCH  36  37
ENDBRANCH  35  36
ENDBRANCH  34  35
BRANCH  34  43
ATOM     43  N   UNN dAMED      -2.793   1.062  -9.510  0.00  0.00    -0.210 NA
ATOM     44  C   UNN dAMED      -2.534   2.246  -8.973  0.00  0.00     0.290 C 
ATOM     45  O   UNN dAMED      -2.841   3.331  -9.450  0.00  0.00    -0.268 OA
BRANCH  44  46
ATOM     46  C   UNN dAMED      -1.873   2.242  -7.606  0.00  0.00     0.339 C 
BRANCH  46  47
ATOM     47  N   UNN dAMED      -0.234   2.559  -7.462  0.00  0.00     0.152 N 
ATOM     48  C   UNN dAMED      -1.889   2.253  -7.608  0.00  0.00     0.283 C 
ATOM     49  C   UNN dAMED      -2.939   3.388  -7.512  0.00  0.00     0.178 C 
ATOM     50  O   UNN dAMED      -3.143   4.030  -6.266  0.00  0.00    -0.350 OA
ATOM     51  C   UNN dAMED      -2.697   2.677  -6.198  0.00  0.00     0.178 C 
ATOM     52  C   UNN dAMED      -1.793   2.050  -7.287  0.00  0.00     0.283 C 
ENDBRANCH  46  47
ENDBRANCH  44  46
ENDBRANCH  34  43
ENDBRANCH  32  34
ENDBRANCH   1  31
TORSDOF 20
