REMARK  8 active torsions:
REMARK  status: ('A' for Active; 'I' for Inactive)
REMARK    1  A    between atoms: C_1  and  C_2 
REMARK    2  A    between atoms: C_1  and  C_14 
REMARK    3  A    between atoms: C_2  and  C_3 
REMARK    4  A    between atoms: C_3  and  C_4 
REMARK    5  A    between atoms: C_4  and  C_5 
REMARK    6  A    between atoms: C_5  and  C_6 
REMARK    7  A    between atoms: C_6  and  C_7 
REMARK       I    between atoms: C_7  and  N_18 
REMARK    8  A    between atoms: C_8  and  N_19 
REMARK       I    between atoms: C_14  and  N_19 
ROOT
ATOM      1  C   UNN dAMED       2.930  -0.038  -1.325  0.00  0.00     0.090 C 
ENDROOT
BRANCH   1   2
ATOM      2  C   UNN dAMED       1.887  -0.319  -2.413  0.00  0.00     0.010 C 
BRANCH   2   3
ATOM      3  C   UNN dAMED       1.221   0.840  -3.166  0.00  0.00     0.001 C 
BRANCH   3   4
ATOM      4  C   UNN dAMED       0.096   1.649  -2.511  0.00  0.00     0.001 C 
BRANCH   4   5
ATOM      5  C   UNN dAMED      -0.451   2.897  -3.213  0.00  0.00     0.010 C 
BRANCH   5   6
ATOM      6  C   UNN dAMED       0.101   3.306  -4.584  0.00  0.00     0.092 C 
BRANCH   6   7
ATOM      7  C   UNN dAMED      -0.298   2.537  -5.816  0.00  0.00     0.281 C 
ATOM      8  O   UNN dAMED      -1.139   3.066  -6.535  0.00  0.00    -0.268 OA
ATOM      9  N   UNN dAMED       0.223   1.318  -5.929  0.00  0.00    -0.058 NA
ATOM     10  O   UNN dAMED       0.077   0.848  -7.228  0.00  0.00    -0.058 OA
ENDBRANCH   6   7
ENDBRANCH   5   6
ENDBRANCH   4   5
ENDBRANCH   3   4
ENDBRANCH   2   3
ENDBRANCH   1   2
BRANCH   1  11
ATOM     11  C   UNN dAMED       2.512  -0.099   0.118  0.00  0.00     0.256 C 
ATOM     12  O   UNN dAMED       1.308  -0.156   0.336  0.00  0.00    -0.270 OA
ATOM     13  N   UNN dAMED       3.470  -0.085   1.038  0.00  0.00    -0.212 NA
BRANCH  13  14
ATOM     14  C   UNN dAMED       4.731  -0.042   0.557  0.00  0.00     0.084 A 
ATOM     15  C   UNN dAMED       5.788  -0.108   1.476  0.00  0.00     0.019 A 
ATOM     16  C   UNN dAMED       7.125  -0.043   1.081  0.00  0.00     0.002 A 
ATOM     17  C   UNN dAMED       7.439   0.090  -0.266  0.00  0.00     0.000 A 
ATOM     18  C   UNN dAMED       6.417   0.154  -1.207  0.00  0.00     0.002 A 
ATOM     19  C   UNN dAMED       5.085   0.091  -0.794  0.00  0.00     0.019 A 
ENDBRANCH  13  14
ENDBRANCH   1  11
TORSDOF 8
