REMARK  12 active torsions:
REMARK  status: ('A' for Active; 'I' for Inactive)
REMARK    1  A    between atoms: C_3  and  N_29 
REMARK    2  A    between atoms: C_6  and  N_30 
REMARK    3  A    between atoms: C_17  and  C_19 
REMARK    4  A    between atoms: C_17  and  N_30 
REMARK    5  A    between atoms: C_18  and  C_22 
REMARK    6  A    between atoms: C_18  and  N_29 
REMARK    7  A    between atoms: C_19  and  N_31 
REMARK    8  A    between atoms: C_20  and  C_21 
REMARK    9  A    between atoms: C_20  and  N_31 
REMARK   10  A    between atoms: C_22  and  N_32 
REMARK   11  A    between atoms: C_23  and  C_24 
REMARK   12  A    between atoms: C_23  and  N_32 
ROOT
ATOM      1  C   UNN dAMED      -0.281   1.147  -1.026  0.00  0.00     0.020 A 
ATOM      2  C   UNN dAMED       0.903   0.477  -1.287  0.00  0.00     0.020 A 
ATOM      3  C   UNN dAMED       1.027  -0.894  -1.065  0.00  0.00     0.079 A 
ATOM      4  C   UNN dAMED      -0.101  -1.602  -0.565  0.00  0.00     0.061 A 
ATOM      5  C   UNN dAMED      -1.302  -0.921  -0.295  0.00  0.00     0.061 A 
ATOM      6  C   UNN dAMED      -1.399   0.480  -0.527  0.00  0.00     0.079 A 
ATOM      7  C   UNN dAMED      -0.025  -3.069  -0.323  0.00  0.00     0.200 A 
ATOM      8  C   UNN dAMED      -1.188  -3.840   0.222  0.00  0.00     0.084 A 
ATOM      9  C   UNN dAMED      -2.395  -3.149   0.510  0.00  0.00     0.084 A 
ATOM     10  C   UNN dAMED      -2.466  -1.679   0.238  0.00  0.00     0.200 A 
ATOM     11  C   UNN dAMED      -1.053  -5.250   0.444  0.00  0.00     0.199 A 
ATOM     12  C   UNN dAMED      -2.193  -5.866   0.964  0.00  0.00     0.045 A 
ATOM     13  C   UNN dAMED      -3.370  -5.190   1.252  0.00  0.00     0.045 A 
ATOM     14  C   UNN dAMED      -3.544  -3.820   1.048  0.00  0.00     0.199 A 
ATOM     15  O   UNN dAMED      -3.512  -1.078   0.456  0.00  0.00    -0.286 OA
ATOM     16  O   UNN dAMED       1.021  -3.655  -0.581  0.00  0.00    -0.286 OA
ATOM     17  O   UNN dAMED      -4.669  -3.294   1.350  0.00  0.00    -0.286 OA
ATOM     18  O   UNN dAMED      -0.020  -5.967   0.217  0.00  0.00    -0.286 OA
ENDROOT
BRANCH   3  19
ATOM     19  N   UNN dAMED       2.225  -1.442  -1.341  0.00  0.00    -0.269 NA
BRANCH  19  20
ATOM     20  C   UNN dAMED       3.394  -0.592  -1.487  0.00  0.00     0.151 C 
BRANCH  20  21
ATOM     21  C   UNN dAMED       4.150  -0.554  -2.820  0.00  0.00     0.146 C 
BRANCH  21  22
ATOM     22  N   UNN dAMED       5.574  -0.398  -2.828  0.00  0.00    -0.291 NA
BRANCH  22  23
ATOM     23  C   UNN dAMED       6.659   0.214  -2.115  0.00  0.00     0.155 C 
BRANCH  23  24
ATOM     24  C   UNN dAMED       6.542   0.480  -0.609  0.00  0.00     0.208 C 
ATOM     25  O   UNN dAMED       7.168  -0.342   0.288  0.00  0.00    -0.218 OA
ENDBRANCH  23  24
ENDBRANCH  22  23
ENDBRANCH  21  22
ENDBRANCH  20  21
ENDBRANCH  19  20
ENDBRANCH   3  19
BRANCH   6  26
ATOM     26  N   UNN dAMED      -2.495   1.225  -0.297  0.00  0.00    -0.268 NA
BRANCH  26  27
ATOM     27  C   UNN dAMED      -2.435   2.677  -0.399  0.00  0.00     0.164 C 
BRANCH  27  28
ATOM     28  C   UNN dAMED      -2.963   3.406  -1.646  0.00  0.00     0.316 C 
BRANCH  28  29
ATOM     29  N   UNN dAMED      -4.304   3.135  -2.175  0.00  0.00     0.344 N 
BRANCH  29  30
ATOM     30  C   UNN dAMED      -3.798   2.575  -3.434  0.00  0.00     0.326 C 
BRANCH  30  31
ATOM     31  C   UNN dAMED      -3.425   3.480  -4.622  0.00  0.00     0.221 C 
ATOM     32  O   UNN dAMED      -2.541   4.516  -4.473  0.00  0.00    -0.218 OA
ENDBRANCH  30  31
ENDBRANCH  29  30
ENDBRANCH  28  29
ENDBRANCH  27  28
ENDBRANCH  26  27
ENDBRANCH   6  26
TORSDOF 12
