REMARK  5 active torsions:
REMARK  status: ('A' for Active; 'I' for Inactive)
REMARK    1  A    between atoms: C_4  and  N_10 
REMARK    2  A    between atoms: C_7  and  C_8 
REMARK    3  A    between atoms: C_7  and  N_10 
REMARK    4  A    between atoms: N_10  and  C_11 
REMARK    5  A    between atoms: C_11  and  C_12 
ROOT
ATOM      1  O   UNN dAMED       4.256  -0.277   0.155  0.00  0.00    -0.242 OA
ATOM      2  O   UNN dAMED       1.129  -1.733  -0.951  0.00  0.00    -0.263 OA
ATOM      3  C   UNN dAMED       1.362  -0.940  -0.112  0.00  0.00     0.300 C 
ATOM      4  C   UNN dAMED       0.617   0.266   0.077  0.00  0.00     0.135 C 
ATOM      5  C   UNN dAMED       1.309   1.287   0.590  0.00  0.00     0.126 C 
ATOM      6  C   UNN dAMED       3.176   0.054   0.487  0.00  0.00     0.371 C 
ATOM      7  N   UNN dAMED       2.174  -0.834   0.741  0.00  0.00    -0.150 NA
ATOM      8  N   UNN dAMED       2.738   1.134   0.666  0.00  0.00    -0.188 NA
ENDROOT
BRANCH   4   9
ATOM      9  N   UNN dAMED      -0.748   0.225   0.027  0.00  0.00    -0.341 N 
BRANCH   9  10
ATOM     10  C   UNN dAMED      -1.532   1.389   0.398  0.00  0.00     0.119 C 
BRANCH  10  11
ATOM     11  C   UNN dAMED      -0.845   2.743   0.604  0.00  0.00     0.119 C 
ATOM     12 CL   UNN dAMED      -0.833   3.929  -0.689  0.00  0.00    -0.112 Cl
ENDBRANCH  10  11
ENDBRANCH   9  10
BRANCH   9  13
ATOM     13  C   UNN dAMED      -1.441  -1.047  -0.063  0.00  0.00     0.119 C 
BRANCH  13  14
ATOM     14  C   UNN dAMED      -2.323  -1.523   1.097  0.00  0.00     0.119 C 
ATOM     15 CL   UNN dAMED      -1.596  -2.043   2.609  0.00  0.00    -0.112 Cl
ENDBRANCH  13  14
ENDBRANCH   9  13
ENDBRANCH   4   9
TORSDOF 5
