REMARK  9 active torsions:
REMARK  status: ('A' for Active; 'I' for Inactive)
REMARK    1  A    between atoms: C_3  and  N_7 
REMARK    2  A    between atoms: C_5  and  C_14 
REMARK    3  A    between atoms: N_7  and  C_8 
REMARK    4  A    between atoms: N_7  and  C_11 
REMARK    5  A    between atoms: C_8  and  C_9 
REMARK    6  A    between atoms: C_11  and  C_12 
REMARK    7  A    between atoms: C_14  and  C_15 
REMARK    8  A    between atoms: C_15  and  C_16 
REMARK    9  A    between atoms: C_16  and  C_17 
ROOT
ATOM      1  C   UNN dAMED      -0.754  -0.942   0.436  0.00  0.00     0.017 A 
ATOM      2  C   UNN dAMED       0.598  -1.138   0.163  0.00  0.00    -0.003 A 
ATOM      3  C   UNN dAMED      -1.512  -0.078  -0.355  0.00  0.00     0.056 A 
ATOM      4  C   UNN dAMED      -0.903   0.600  -1.410  0.00  0.00     0.017 A 
ATOM      5  C   UNN dAMED       1.194  -0.470  -0.904  0.00  0.00    -0.022 A 
ATOM      6  C   UNN dAMED       0.446   0.401  -1.691  0.00  0.00    -0.003 A 
ENDROOT
BRANCH   3   7
ATOM      7  N   UNN dAMED      -2.883   0.102  -0.095  0.00  0.00    -0.345 N 
BRANCH   7   8
ATOM      8  C   UNN dAMED      -3.326   0.358   1.267  0.00  0.00     0.119 C 
BRANCH   8   9
ATOM      9  C   UNN dAMED      -4.004   1.686   1.634  0.00  0.00     0.119 C 
ATOM     10 CL   UNN dAMED      -3.318   3.218   1.117  0.00  0.00    -0.112 Cl
ENDBRANCH   8   9
ENDBRANCH   7   8
BRANCH   7  11
ATOM     11  C   UNN dAMED      -3.748   0.653  -1.127  0.00  0.00     0.119 C 
BRANCH  11  12
ATOM     12  C   UNN dAMED      -3.147   1.201  -2.427  0.00  0.00     0.119 C 
ATOM     13 CL   UNN dAMED      -3.323   0.309  -3.930  0.00  0.00    -0.112 Cl
ENDBRANCH  11  12
ENDBRANCH   7  11
ENDBRANCH   3   7
BRANCH   5  14
ATOM     14  C   UNN dAMED       2.633  -0.731  -1.245  0.00  0.00     0.027 C 
BRANCH  14  15
ATOM     15  C   UNN dAMED       3.530  -1.483  -0.259  0.00  0.00     0.016 C 
BRANCH  15  16
ATOM     16  C   UNN dAMED       4.261  -0.714   0.846  0.00  0.00     0.098 C 
BRANCH  16  17
ATOM     17  C   UNN dAMED       5.216  -1.437   1.757  0.00  0.00     0.185 C 
ATOM     18  O   UNN dAMED       5.523  -2.621   1.428  0.00  0.00    -0.647 OA
ATOM     19  O   UNN dAMED       5.626  -0.794   2.769  0.00  0.00    -0.647 OA
ENDBRANCH  16  17
ENDBRANCH  15  16
ENDBRANCH  14  15
ENDBRANCH   5  14
TORSDOF 9
