REMARK  4 active torsions:
REMARK  status: ('A' for Active; 'I' for Inactive)
REMARK    1  A    between atoms: C_2  and  C_7 
REMARK    2  A    between atoms: C_4  and  C_14 
REMARK    3  A    between atoms: C_6  and  C_13 
REMARK    4  A    between atoms: C_7  and  N_8 
ROOT
ATOM      1  C   UNN dAMED       1.908  -1.978   0.405  0.00  0.00     0.098 C 
ATOM      2  C   UNN dAMED       2.668  -2.342  -0.790  0.00  0.00     0.076 C 
ATOM      3  N   UNN dAMED       3.277  -2.632  -1.734  0.00  0.00    -0.196 NA
ATOM      4  C   UNN dAMED       2.866  -1.810   1.592  0.00  0.00     0.020 C 
ATOM      5  C   UNN dAMED       0.980  -3.139   0.789  0.00  0.00     0.020 C 
ENDROOT
BRANCH   1   6
ATOM      6  C   UNN dAMED       1.102  -0.734   0.237  0.00  0.00    -0.010 A 
ATOM      7  C   UNN dAMED      -0.284  -0.821   0.095  0.00  0.00    -0.006 A 
ATOM      8  C   UNN dAMED      -1.047   0.338  -0.036  0.00  0.00    -0.004 A 
ATOM      9  C   UNN dAMED      -0.422   1.584  -0.025  0.00  0.00    -0.006 A 
ATOM     10  C   UNN dAMED       0.957   1.681   0.152  0.00  0.00    -0.010 A 
ATOM     11  C   UNN dAMED       1.717   0.519   0.280  0.00  0.00    -0.007 A 
BRANCH   8  12
ATOM     12  C   UNN dAMED      -2.555   0.256  -0.062  0.00  0.00     0.130 C 
BRANCH  12  13
ATOM     13  N   UNN dAMED      -3.333   0.563   1.097  0.00  0.00    -0.131 NA
ATOM     14  N   UNN dAMED      -3.740   1.837   1.024  0.00  0.00    -0.167 NA
ATOM     15  C   UNN dAMED      -5.045   1.702   1.283  0.00  0.00     0.215 C 
ATOM     16  N   UNN dAMED      -5.486   0.406   1.375  0.00  0.00    -0.207 NA
ATOM     17  C   UNN dAMED      -4.393  -0.294   1.159  0.00  0.00     0.171 C 
ENDBRANCH  12  13
ENDBRANCH   8  12
BRANCH  10  18
ATOM     18  C   UNN dAMED       1.624   3.015   0.173  0.00  0.00     0.098 C 
ATOM     19  C   UNN dAMED       1.458   3.720   1.444  0.00  0.00     0.076 C 
ATOM     20  N   UNN dAMED       1.324   4.282   2.450  0.00  0.00    -0.196 NA
ATOM     21  C   UNN dAMED       1.069   3.880  -0.966  0.00  0.00     0.020 C 
ATOM     22  C   UNN dAMED       3.121   2.841  -0.117  0.00  0.00     0.020 C 
ENDBRANCH  10  18
ENDBRANCH   1   6
TORSDOF 4
