REMARK  9 active torsions:
REMARK  status: ('A' for Active; 'I' for Inactive)
REMARK    1  A    between atoms: C_7  and  C_44 
REMARK    2  A    between atoms: C_11  and  C_53 
REMARK    3  A    between atoms: C_25  and  C_51 
REMARK    4  A    between atoms: C_30  and  O_47 
REMARK    5  A    between atoms: C_36  and  O_40 
REMARK    6  A    between atoms: C_37  and  C_57 
REMARK    7  A    between atoms: O_47  and  C_48 
REMARK    8  A    between atoms: C_53  and  O_55 
REMARK    9  A    between atoms: C_57  and  O_59 
ROOT
ATOM      1  N   UNN dAMED       0.723   7.982   1.267  0.00  0.00    -0.356 N 
ATOM      2  H   UNN dAMED       1.551   8.376   0.848  0.00  0.00     0.166 HD
ATOM      3  N   UNN dAMED       5.325   6.469  -2.813  0.00  0.00    -0.353 N 
ATOM      4  N   UNN dAMED      -3.275   4.899   0.844  0.00  0.00     0.140 N 
ATOM      5  N   UNN dAMED       4.897   9.709   0.675  0.00  0.00    -0.373 N 
ATOM      6  C   UNN dAMED      -2.814   4.278   2.221  0.00  0.00     0.280 C 
ATOM      7  C   UNN dAMED      -2.476   2.731   2.437  0.00  0.00     0.158 C 
ATOM      8  C   UNN dAMED      -1.365   2.775   1.409  0.00  0.00     0.035 C 
ATOM      9  C   UNN dAMED      -0.776   4.159   1.226  0.00  0.00     0.037 C 
ATOM     10  C   UNN dAMED       0.664   4.369   0.753  0.00  0.00     0.021 C 
ATOM     11  C   UNN dAMED       1.505   5.538   1.301  0.00  0.00     0.131 C 
ATOM     12  C   UNN dAMED       0.527   6.651   1.563  0.00  0.00     0.042 A 
ATOM     13  C   UNN dAMED      -2.059   4.398   1.727  0.00  0.00     0.255 C 
ATOM     14  C   UNN dAMED      -1.358   5.353   2.697  0.00  0.00     0.063 C 
ATOM     15  C   UNN dAMED      -0.702   6.599   2.182  0.00  0.00    -0.006 A 
ATOM     16  C   UNN dAMED      -1.304   7.870   2.197  0.00  0.00     0.013 A 
ATOM     17  C   UNN dAMED      -2.529   8.380   2.654  0.00  0.00     0.001 A 
ATOM     18  C   UNN dAMED      -2.778   9.748   2.518  0.00  0.00     0.000 A 
ATOM     19  C   UNN dAMED      -0.378   8.735   1.618  0.00  0.00     0.056 A 
ATOM     20  C   UNN dAMED      -1.834  10.592   1.941  0.00  0.00     0.002 A 
ATOM     21  C   UNN dAMED      -0.610  10.106   1.473  0.00  0.00     0.017 A 
ATOM     22  C   UNN dAMED       5.393   9.990   1.997  0.00  0.00     0.123 C 
ATOM     23  C   UNN dAMED       6.905   9.847   2.244  0.00  0.00    -0.007 C 
ATOM     24  C   UNN dAMED       7.576   8.874   1.623  0.00  0.00    -0.026 C 
ATOM     25  C   UNN dAMED       6.822   8.079   0.403  0.00  0.00     0.058 C 
ATOM     26  C   UNN dAMED       5.849   9.032  -0.218  0.00  0.00     0.115 C 
ATOM     27  C   UNN dAMED       3.725  10.022  -0.111  0.00  0.00     0.097 C 
ATOM     28  C   UNN dAMED       3.910   9.365  -1.485  0.00  0.00     0.030 C 
ATOM     29  C   UNN dAMED       4.998   8.316  -1.260  0.00  0.00     0.048 C 
ATOM     30  C   UNN dAMED       7.779   7.652  -0.741  0.00  0.00     0.167 C 
ATOM     31  C   UNN dAMED       5.809   7.836  -2.494  0.00  0.00     0.153 C 
ATOM     32  C   UNN dAMED       4.280   7.070  -0.829  0.00  0.00    -0.005 A 
ATOM     33  C   UNN dAMED       3.353   6.915   0.189  0.00  0.00    -0.004 A 
ATOM     34  C   UNN dAMED       2.585   5.748   0.259  0.00  0.00     0.013 A 
ATOM     35  C   UNN dAMED       4.467   6.077  -1.778  0.00  0.00     0.054 A 
ATOM     36  C   UNN dAMED       2.824   4.738  -0.692  0.00  0.00     0.092 A 
ATOM     37  C   UNN dAMED       7.371   7.820  -2.283  0.00  0.00     0.240 C 
ATOM     38  C   UNN dAMED       3.767   4.885  -1.710  0.00  0.00     0.040 A 
ATOM     39  C   UNN dAMED      -1.806   5.278   1.159  0.00  0.00     0.250 C 
ATOM     40  C   UNN dAMED       6.076   5.531  -3.625  0.00  0.00     0.125 C 
ATOM     41  O   UNN dAMED       7.887   8.955  -2.720  0.00  0.00    -0.212 OA
ATOM     42  O   UNN dAMED      -3.461   1.974   2.033  0.00  0.00    -0.224 OA
ENDROOT
BRANCH  11  43
ATOM     43  C   UNN dAMED       2.095   5.096   2.623  0.00  0.00     0.280 C 
ATOM     44  O   UNN dAMED       1.974   3.966   3.078  0.00  0.00    -0.264 OA
BRANCH  43  45
ATOM     45  O   UNN dAMED       2.777   6.088   3.249  0.00  0.00    -0.298 OA
ATOM     46  C   UNN dAMED       2.138   6.245   4.482  0.00  0.00     0.184 C 
ENDBRANCH  43  45
ENDBRANCH  11  43
BRANCH  36  47
ATOM     47  O   UNN dAMED       2.096   3.580  -0.659  0.00  0.00    -0.328 OA
ATOM     48  C   UNN dAMED       2.706   2.735  -1.590  0.00  0.00     0.181 C 
ENDBRANCH  36  47
BRANCH   7  49
ATOM     49  C   UNN dAMED      -2.641   3.055   3.921  0.00  0.00     0.033 C 
ATOM     50  C   UNN dAMED      -2.984   4.483   4.357  0.00  0.00     0.003 C 
ENDBRANCH   7  49
BRANCH  25  51
ATOM     51  C   UNN dAMED       7.593   8.862   1.615  0.00  0.00     0.008 C 
ATOM     52  C   UNN dAMED       9.118   9.000   1.586  0.00  0.00     0.001 C 
ENDBRANCH  25  51
BRANCH  37  53
ATOM     53  C   UNN dAMED       8.041   6.722  -3.111  0.00  0.00     0.303 C 
ATOM     54  O   UNN dAMED       8.626   5.760  -2.631  0.00  0.00    -0.261 OA
BRANCH  53  55
ATOM     55  O   UNN dAMED       7.852   6.872  -4.450  0.00  0.00    -0.297 OA
ATOM     56  C   UNN dAMED       7.326   5.650  -4.876  0.00  0.00     0.185 C 
ENDBRANCH  53  55
ENDBRANCH  37  53
BRANCH  30  57
ATOM     57  O   UNN dAMED       9.090   7.276  -0.379  0.00  0.00    -0.301 OA
BRANCH  57  58
ATOM     58  C   UNN dAMED       9.788   8.433  -0.198  0.00  0.00     0.272 C 
ATOM     59  O   UNN dAMED      10.951   8.571  -0.552  0.00  0.00    -0.264 OA
ATOM     60  C   UNN dAMED       9.058   9.626   0.354  0.00  0.00     0.106 C 
ENDBRANCH  57  58
ENDBRANCH  30  57
TORSDOF 9
