REMARK  4 active torsions:
REMARK  status: ('A' for Active; 'I' for Inactive)
REMARK    1  A    between atoms: C_2  and  C_3 
REMARK    2  A    between atoms: C_3  and  N_4 
REMARK    3  A    between atoms: N_4  and  C_5 
REMARK    4  A    between atoms: C_5  and  C_6 
ROOT
ATOM      1  N   UNN dAMED       0.918  -0.604   0.922  0.00  0.00     0.142 N 
ATOM      2  C   UNN dAMED      -0.372  -0.373  -0.157  0.00  0.00     0.285 C 
ENDROOT
BRANCH   1   3
ATOM      3  C   UNN dAMED      -0.368  -0.378  -0.166  0.00  0.00     0.268 C 
BRANCH   3   4
ATOM      4  C   UNN dAMED      -1.813  -0.289   0.301  0.00  0.00     0.130 C 
ATOM      5 CL   UNN dAMED      -2.368   1.191   1.047  0.00  0.00    -0.112 Cl
ENDBRANCH   3   4
ENDBRANCH   1   3
BRANCH   1   6
ATOM      6  C   UNN dAMED      -0.382  -0.372  -0.164  0.00  0.00     0.268 C 
BRANCH   6   7
ATOM      7  C   UNN dAMED      -0.861  -1.476  -1.104  0.00  0.00     0.130 C 
ATOM      8 CL   UNN dAMED      -2.580  -1.721  -1.374  0.00  0.00    -0.112 Cl
ENDBRANCH   6   7
ENDBRANCH   1   6
TORSDOF 4
