REMARK  4 active torsions:
REMARK  status: ('A' for Active; 'I' for Inactive)
REMARK    1  A    between atoms: N_4  and  C_6 
REMARK    2  A    between atoms: C_6  and  C_10 
REMARK    3  A    between atoms: P_7  and  C_10 
REMARK    4  A    between atoms: P_9  and  C_10 
ROOT
ATOM      1  C   UNN dAMED       0.156  -1.272  -1.032  0.00  0.00     0.343 C 
ATOM      2  O   UNN dAMED      -0.416  -2.058  -1.916  0.00  0.00    -0.195 OA
ENDROOT
BRANCH   1   3
ATOM      3  C   UNN dAMED      -0.889  -0.635  -0.079  0.00  0.00     0.142 C 
BRANCH   3   4
ATOM      4  N   UNN dAMED      -1.912   0.278  -0.485  0.00  0.00    -0.208 NA
ATOM      5  C   UNN dAMED      -1.879   1.360   0.345  0.00  0.00     0.073 C 
ATOM      6  C   UNN dAMED      -3.175   1.464   0.804  0.00  0.00     0.113 C 
ATOM      7  N   UNN dAMED      -3.943   0.410   0.369  0.00  0.00    -0.229 NA
ATOM      8  C   UNN dAMED      -3.123  -0.335  -0.341  0.00  0.00     0.153 C 
ENDBRANCH   3   4
ENDBRANCH   1   3
BRANCH   1   9
ATOM      9  P   UNN dAMED       1.206  -2.464   0.065  0.00  0.00     0.316 P 
ATOM     10  O   UNN dAMED       2.170  -3.105  -0.927  0.00  0.00    -0.637 OA
ATOM     11  O   UNN dAMED       1.837  -1.481   1.045  0.00  0.00    -0.637 OA
ATOM     12  O   UNN dAMED       0.152  -3.389   0.665  0.00  0.00    -0.637 OA
ENDBRANCH   1   9
BRANCH   1  13
ATOM     13  P   UNN dAMED       1.060   0.076  -2.048  0.00  0.00     0.316 P 
ATOM     14  O   UNN dAMED       1.634   0.950  -0.939  0.00  0.00    -0.637 OA
ATOM     15  O   UNN dAMED       2.089  -0.720  -2.844  0.00  0.00    -0.637 OA
ATOM     16  O   UNN dAMED      -0.052   0.718  -2.871  0.00  0.00    -0.637 OA
ENDBRANCH   1  13
TORSDOF 4
