REMARK  7 active torsions:
REMARK  status: ('A' for Active; 'I' for Inactive)
REMARK    1  A    between atoms: C_4  and  C_7 
REMARK    2  A    between atoms: C_6  and  C_23 
REMARK       I    between atoms: C_7  and  N_24 
REMARK    3  A    between atoms: C_9  and  N_24 
REMARK    4  A    between atoms: C_11  and  C_25 
REMARK    5  A    between atoms: C_12  and  C_15 
REMARK    6  A    between atoms: C_15  and  N_16 
REMARK    7  A    between atoms: C_29  and  C_30 
ROOT
ATOM      1  C   UNN dAMED      -5.149   4.398  -4.878  0.00  0.00     0.279 C 
ATOM      2  O   UNN dAMED      -5.878   3.475  -5.238  0.00  0.00    -0.265 OA
ATOM      3  N   UNN dAMED      -5.227   5.171  -3.785  0.00  0.00    -0.208 NA
ENDROOT
BRANCH   1   4
ATOM      4  C   UNN dAMED      -3.972   4.681  -5.704  0.00  0.00     0.059 A 
ATOM      5  C   UNN dAMED      -4.139   4.993  -7.048  0.00  0.00     0.004 A 
ATOM      6  C   UNN dAMED      -3.022   5.089  -7.869  0.00  0.00    -0.004 A 
ATOM      7  C   UNN dAMED      -1.747   4.881  -7.336  0.00  0.00    -0.014 A 
ATOM      8  C   UNN dAMED      -1.585   4.591  -5.979  0.00  0.00     0.038 A 
ATOM      9  C   UNN dAMED      -0.553   4.844  -8.240  0.00  0.00     0.032 C 
ATOM     10  C   UNN dAMED      -2.704   4.471  -5.156  0.00  0.00     0.013 A 
BRANCH   8  11
ATOM     11  C   UNN dAMED      -0.283   4.408  -5.444  0.00  0.00    -0.058 C 
ATOM     12  C   UNN dAMED       0.825   4.260  -5.014  0.00  0.00    -0.039 C 
BRANCH  12  13
ATOM     13  C   UNN dAMED       2.149   4.085  -4.540  0.00  0.00     0.145 A 
ATOM     14  C   UNN dAMED       2.590   3.324  -3.475  0.00  0.00     0.128 A 
ATOM     15  N   UNN dAMED       3.952   3.422  -3.326  0.00  0.00    -0.223 NA
ATOM     16  C   UNN dAMED       4.321   4.200  -4.311  0.00  0.00     0.165 A 
ATOM     17  N   UNN dAMED       3.279   4.666  -5.049  0.00  0.00    -0.203 N 
ATOM     18  C   UNN dAMED       5.642   4.884  -4.420  0.00  0.00     0.041 C 
ATOM     19  N   UNN dAMED       3.406   5.539  -6.065  0.00  0.00    -0.162 NA
ATOM     20  C   UNN dAMED       4.544   5.974  -6.357  0.00  0.00     0.121 C 
ATOM     21  C   UNN dAMED       5.745   5.778  -5.403  0.00  0.00     0.026 C 
ENDBRANCH  12  13
ENDBRANCH   8  11
ENDBRANCH   1   4
BRANCH   3  22
ATOM     22  C   UNN dAMED      -6.449   5.174  -3.223  0.00  0.00     0.085 A 
ATOM     23  C   UNN dAMED      -7.413   6.103  -3.624  0.00  0.00     0.023 A 
ATOM     24  C   UNN dAMED      -8.681   6.151  -3.034  0.00  0.00     0.071 A 
ATOM     25  C   UNN dAMED      -8.982   5.252  -2.001  0.00  0.00     0.015 A 
ATOM     26  C   UNN dAMED      -8.034   4.305  -1.600  0.00  0.00    -0.001 A 
ATOM     27  C   UNN dAMED      -6.776   4.278  -2.199  0.00  0.00     0.019 A 
BRANCH  24  28
ATOM     28  C   UNN dAMED      -9.661   7.160  -3.545  0.00  0.00     0.419 C 
ATOM     29  F   UNN dAMED     -10.201   6.788  -4.744  0.00  0.00    -0.166 F 
ATOM     30  F   UNN dAMED     -10.715   7.381  -2.714  0.00  0.00    -0.166 F 
ATOM     31  F   UNN dAMED      -9.094   8.381  -3.758  0.00  0.00    -0.166 F 
ENDBRANCH  24  28
BRANCH  25  32
ATOM     32  C   UNN dAMED     -10.245   5.354  -1.182  0.00  0.00     0.277 C 
BRANCH  32  33
ATOM     33  N   UNN dAMED     -10.195   5.952   0.271  0.00  0.00     0.146 N 
ATOM     34  C   UNN dAMED      -9.855   4.449  -0.303  0.00  0.00     0.286 C 
ATOM     35  C   UNN dAMED     -10.926   3.353  -0.239  0.00  0.00     0.286 C 
ATOM     36  N   UNN dAMED     -11.648   2.913   1.252  0.00  0.00     0.143 N 
ATOM     37  C   UNN dAMED     -10.920   3.351  -0.233  0.00  0.00     0.286 C 
ATOM     38  C   UNN dAMED     -10.921   3.350  -0.230  0.00  0.00     0.285 C 
ATOM     39  C   UNN dAMED      -9.868   4.470  -0.315  0.00  0.00     0.286 C 
ENDBRANCH  32  33
ENDBRANCH  25  32
ENDBRANCH   3  22
TORSDOF 7
