REMARK  6 active torsions:
REMARK  status: ('A' for Active; 'I' for Inactive)
REMARK    1  A    between atoms: C_2  and  C_7 
REMARK    2  A    between atoms: C_4  and  O_10 
REMARK       I    between atoms: C_7  and  N_23 
REMARK    3  A    between atoms: O_10  and  C_11 
REMARK    4  A    between atoms: C_14  and  N_24 
REMARK       I    between atoms: C_18  and  N_24 
REMARK       I    between atoms: C_18  and  N_29 
REMARK    5  A    between atoms: C_21  and  C_25 
REMARK    6  A    between atoms: N_29  and  C_30 
ROOT
ATOM      1  C   UNN dAMED      -3.028  -2.314  -0.998  0.00  0.00     0.102 A 
ATOM      2  C   UNN dAMED      -3.399  -1.975  -2.295  0.00  0.00     0.056 A 
ATOM      3  C   UNN dAMED      -3.864  -2.972  -3.147  0.00  0.00     0.160 A 
ATOM      4  C   UNN dAMED      -3.932  -4.319  -2.753  0.00  0.00     0.114 A 
ATOM      5  C   UNN dAMED      -3.505  -4.626  -1.453  0.00  0.00     0.024 A 
ATOM      6  C   UNN dAMED      -3.046  -3.640  -0.577  0.00  0.00     0.026 A 
ATOM      7  F   UNN dAMED      -4.261  -2.617  -4.380  0.00  0.00    -0.203 F 
ENDROOT
BRANCH   4   8
ATOM      8  N   UNN dAMED      -4.471  -5.280  -3.536  0.00  0.00    -0.189 NA
ATOM      9  C   UNN dAMED      -3.697  -5.673  -4.577  0.00  0.00     0.369 C 
ATOM     10  O   UNN dAMED      -2.691  -5.102  -5.000  0.00  0.00    -0.242 OA
ATOM     11  N   UNN dAMED      -4.287  -6.733  -5.175  0.00  0.00    -0.191 NA
BRANCH  11  12
ATOM     12  C   UNN dAMED      -3.508  -7.820  -5.377  0.00  0.00     0.086 A 
ATOM     13  C   UNN dAMED      -3.981  -8.835  -6.215  0.00  0.00     0.020 A 
ATOM     14  C   UNN dAMED      -3.241  -9.990  -6.463  0.00  0.00     0.013 A 
ATOM     15  C   UNN dAMED      -1.989 -10.153  -5.875  0.00  0.00     0.062 A 
ATOM     16 CL   UNN dAMED      -1.136 -11.607  -6.223  0.00  0.00    -0.082 Cl
ATOM     17  C   UNN dAMED      -1.472  -9.166  -5.033  0.00  0.00     0.084 A 
ATOM     18  C   UNN dAMED      -2.251  -8.030  -4.790  0.00  0.00     0.024 A 
BRANCH  17  19
ATOM     19  C   UNN dAMED      -0.123  -9.261  -4.389  0.00  0.00     0.420 C 
ATOM     20  F   UNN dAMED       0.887  -9.371  -5.296  0.00  0.00    -0.166 F 
ATOM     21  F   UNN dAMED       0.191  -8.177  -3.624  0.00  0.00    -0.166 F 
ATOM     22  F   UNN dAMED      -0.010 -10.337  -3.562  0.00  0.00    -0.166 F 
ENDBRANCH  17  19
ENDBRANCH  11  12
ENDBRANCH   4   8
BRANCH   1  23
ATOM     23  O   UNN dAMED      -2.663  -1.309  -0.132  0.00  0.00    -0.307 OA
BRANCH  23  24
ATOM     24  C   UNN dAMED      -3.665  -0.904   0.726  0.00  0.00     0.103 A 
ATOM     25  C   UNN dAMED      -4.977  -0.738   0.292  0.00  0.00     0.049 A 
ATOM     26  C   UNN dAMED      -5.917  -0.304   1.211  0.00  0.00     0.141 A 
ATOM     27  N   UNN dAMED      -5.625   0.011   2.494  0.00  0.00    -0.239 NA
ATOM     28  C   UNN dAMED      -4.332  -0.138   2.870  0.00  0.00     0.101 A 
ATOM     29  C   UNN dAMED      -3.319  -0.589   2.034  0.00  0.00     0.045 A 
BRANCH  26  30
ATOM     30  C   UNN dAMED      -7.325  -0.191   0.766  0.00  0.00     0.293 C 
ATOM     31  O   UNN dAMED      -7.573  -0.259  -0.434  0.00  0.00    -0.264 OA
ATOM     32  N   UNN dAMED      -8.221  -0.046   1.736  0.00  0.00    -0.231 NA
ATOM     33  C   UNN dAMED      -7.829   0.573   2.991  0.00  0.00     0.155 C 
ENDBRANCH  26  30
ENDBRANCH  23  24
ENDBRANCH   1  23
TORSDOF 6
