REMARK  4 active torsions:
REMARK  status: ('A' for Active; 'I' for Inactive)
REMARK    1  A    between atoms: C_3  and  N_11 
REMARK       I    between atoms: C_7  and  N_9 
REMARK       I    between atoms: C_7  and  N_11 
REMARK    2  A    between atoms: N_9  and  C_10 
REMARK    3  A    between atoms: N_9  and  N_14 
REMARK    4  A    between atoms: C_10  and  C_12 
ROOT
ATOM      1  C   UNN dAMED      -0.111   1.597   0.500  0.00  0.00     0.340 C 
ATOM      2  O   UNN dAMED      -0.741   2.022   1.469  0.00  0.00    -0.250 OA
ATOM      3  N   UNN dAMED       1.190   2.014   0.253  0.00  0.00    -0.102 NA
ATOM      4  N   UNN dAMED      -0.552   0.655  -0.331  0.00  0.00    -0.205 NA
ENDROOT
BRANCH   3   5
ATOM      5  C   UNN dAMED       1.304   3.309   0.836  0.00  0.00     0.120 C 
BRANCH   5   6
ATOM      6  C   UNN dAMED       0.997   4.563   0.008  0.00  0.00     0.115 C 
ATOM      7 CL   UNN dAMED       0.407   6.011   0.804  0.00  0.00    -0.112 Cl
ENDBRANCH   5   6
ENDBRANCH   3   5
BRANCH   3   8
ATOM      8  N   UNN dAMED       1.686   2.127  -1.029  0.00  0.00     0.040 NA
ATOM      9  O   UNN dAMED       2.745   2.762  -1.030  0.00  0.00    -0.082 OA
ENDBRANCH   3   8
BRANCH   4  10
ATOM     10  C   UNN dAMED      -1.838   0.045  -0.078  0.00  0.00     0.041 C 
ATOM     11  C   UNN dAMED      -3.077   0.566  -0.815  0.00  0.00     0.042 C 
ATOM     12  C   UNN dAMED      -4.329  -0.306  -0.693  0.00  0.00     0.006 C 
ATOM     13  C   UNN dAMED      -4.569  -0.931   0.684  0.00  0.00     0.001 C 
ATOM     14  C   UNN dAMED      -3.326  -1.479   1.387  0.00  0.00     0.006 C 
ATOM     15  C   UNN dAMED      -2.088  -0.590   1.292  0.00  0.00     0.042 C 
ENDBRANCH   4  10
TORSDOF 4
