REMARK  0 active torsions:
REMARK  status: ('A' for Active; 'I' for Inactive)
ROOT
ATOM      1  C   UNN dAMED      -3.389   2.049  -0.238  0.00  0.00     0.038 C 
ATOM      2  C   UNN dAMED      -4.383   0.923  -0.051  0.00  0.00     0.195 C 
ATOM      3  C   UNN dAMED      -3.610  -0.309  -0.481  0.00  0.00     0.038 C 
ATOM      4  C   UNN dAMED      -2.333  -0.493  -0.138  0.00  0.00    -0.020 C 
ATOM      5  C   UNN dAMED      -2.131   1.930   0.191  0.00  0.00    -0.020 C 
ATOM      6  C   UNN dAMED      -1.742  -1.792  -0.235  0.00  0.00    -0.026 C 
ATOM      7  C   UNN dAMED      -0.242  -1.871  -0.209  0.00  0.00     0.019 C 
ATOM      8  C   UNN dAMED      -0.058   0.568   0.376  0.00  0.00     0.021 C 
ATOM      9  C   UNN dAMED       1.956  -0.833  -0.188  0.00  0.00     0.020 C 
ATOM     10  C   UNN dAMED       2.645   0.536  -0.248  0.00  0.00     0.046 C 
ATOM     11  C   UNN dAMED       1.828   1.337  -1.244  0.00  0.00     0.006 C 
ATOM     12  C   UNN dAMED       0.321   1.153  -1.004  0.00  0.00    -0.005 C 
ATOM     13  C   UNN dAMED       3.025  -1.748   0.412  0.00  0.00     0.002 C 
ATOM     14  C   UNN dAMED       4.360  -1.188  -0.066  0.00  0.00     0.064 C 
ATOM     15  C   UNN dAMED       4.055   0.174  -0.630  0.00  0.00     0.149 C 
ATOM     16  O   UNN dAMED       4.953   0.973  -0.844  0.00  0.00    -0.296 OA
ATOM     17  C   UNN dAMED       2.652   1.139   1.158  0.00  0.00     0.007 C 
ATOM     18  C   UNN dAMED      -2.414  -2.787  -0.813  0.00  0.00    -0.005 C 
ATOM     19  O   UNN dAMED      -5.543   1.069  -0.407  0.00  0.00    -0.287 OA
ATOM     20  C   UNN dAMED      -1.562   0.554   0.580  0.00  0.00     0.032 C 
ATOM     21  C   UNN dAMED      -1.863   0.453   2.083  0.00  0.00     0.008 C 
ATOM     22  C   UNN dAMED       0.613  -0.812   0.517  0.00  0.00     0.013 C 
ENDROOT
TORSDOF 0
