REMARK  7 active torsions:
REMARK  status: ('A' for Active; 'I' for Inactive)
REMARK    1  A    between atoms: S_1  and  P_2 
REMARK    2  A    between atoms: S_1  and  C_8 
REMARK    3  A    between atoms: C_4  and  C_5 
REMARK    4  A    between atoms: C_5  and  C_6 
REMARK    5  A    between atoms: C_6  and  N_9 
REMARK    6  A    between atoms: C_7  and  C_8 
REMARK    7  A    between atoms: C_7  and  N_9 
ROOT
ATOM      1  C   UNN dAMED      -1.711  -2.162   0.702  0.00  0.00     0.132 C 
ENDROOT
BRANCH   1   2
ATOM      2  C   UNN dAMED      -2.304  -0.801   0.328  0.00  0.00     0.097 C 
BRANCH   2   3
ATOM      3  S   UNN dAMED      -3.976  -0.675  -0.299  0.00  0.00    -0.015 SA
BRANCH   3   4
ATOM      4  P   UNN dAMED      -4.082   1.442   0.013  0.00  0.00     0.327 P 
ATOM      5  O   UNN dAMED      -5.201   1.565   1.039  0.00  0.00    -0.631 OA
ATOM      6  O   UNN dAMED      -2.685   1.765   0.526  0.00  0.00    -0.631 OA
ATOM      7  O   UNN dAMED      -4.405   1.963  -1.380  0.00  0.00    -0.631 OA
ENDBRANCH   3   4
ENDBRANCH   2   3
ENDBRANCH   1   2
BRANCH   1   8
ATOM      8  N   UNN dAMED      -1.348  -3.102  -0.320  0.00  0.00    -0.295 NA
BRANCH   8   9
ATOM      9  C   UNN dAMED      -0.898  -4.452  -0.484  0.00  0.00     0.122 C 
BRANCH   9  10
ATOM     10  C   UNN dAMED      -1.802  -5.612  -0.055  0.00  0.00     0.067 C 
BRANCH  10  11
ATOM     11  C   UNN dAMED      -3.221  -5.717  -0.624  0.00  0.00     0.340 C 
ATOM     12  N   UNN dAMED      -3.943  -6.977  -0.562  0.00  0.00     0.618 N 
ENDBRANCH  10  11
ENDBRANCH   9  10
ENDBRANCH   8   9
ENDBRANCH   1   8
TORSDOF 7
