REMARK  3 active torsions:
REMARK  status: ('A' for Active; 'I' for Inactive)
REMARK    1  A    between atoms: C_6  and  C_8 
REMARK    2  A    between atoms: C_11  and  C_12 
REMARK    3  A    between atoms: C_13  and  C_15 
ROOT
ATOM      1  O   UNN dAMED      -1.743  -1.068  -1.329  0.00  0.00    -0.272 OA
ATOM      2  C   UNN dAMED      -0.069  -2.933  -1.466  0.00  0.00     0.087 C 
ATOM      3  C   UNN dAMED       1.292  -2.350  -1.767  0.00  0.00     0.281 C 
ATOM      4  O   UNN dAMED       1.952  -2.925  -2.622  0.00  0.00    -0.265 OA
ATOM      5  C   UNN dAMED      -2.737  -0.680  -0.489  0.00  0.00     0.317 C 
ATOM      6  C   UNN dAMED      -3.498   0.575  -0.822  0.00  0.00     0.140 C 
ATOM      7  O   UNN dAMED      -2.993  -1.271   0.552  0.00  0.00    -0.257 OA
ATOM      8  C   UNN dAMED      -2.647   2.833  -0.732  0.00  0.00     0.297 C 
ATOM      9  O   UNN dAMED      -3.206   3.834  -1.169  0.00  0.00    -0.264 OA
ATOM     10  C   UNN dAMED      -1.181   2.693  -0.925  0.00  0.00     0.138 C 
ATOM     11  C   UNN dAMED       3.143  -0.996  -1.074  0.00  0.00     0.134 C 
ATOM     12  C   UNN dAMED       3.674   0.404  -0.803  0.00  0.00     0.296 C 
ATOM     13  O   UNN dAMED       4.645   0.729  -1.477  0.00  0.00    -0.264 OA
ATOM     14  N   UNN dAMED       1.736  -1.375  -0.980  0.00  0.00    -0.204 NA
ATOM     15  N   UNN dAMED       3.199   1.116   0.215  0.00  0.00    -0.201 NA
ATOM     16  C   UNN dAMED       0.839   1.853  -0.534  0.00  0.00     0.298 C 
ATOM     17  O   UNN dAMED       1.350   2.317  -1.551  0.00  0.00    -0.264 OA
ATOM     18  C   UNN dAMED      -1.136  -2.152  -0.692  0.00  0.00     0.108 C 
ATOM     19  C   UNN dAMED      -1.005  -2.106   0.832  0.00  0.00     0.020 C 
ATOM     20  C   UNN dAMED      -2.011  -1.678   1.591  0.00  0.00    -0.023 C 
ATOM     21  C   UNN dAMED      -1.768  -1.489   3.091  0.00  0.00     0.039 C 
ATOM     22  C   UNN dAMED      -0.569  -0.638   3.513  0.00  0.00     0.074 C 
ATOM     23  S   UNN dAMED       1.039  -1.066   2.856  0.00  0.00    -0.077 SA
ATOM     24  S   UNN dAMED       1.948   0.686   3.394  0.00  0.00    -0.053 SA
ATOM     25  C   UNN dAMED       1.382   1.614   1.963  0.00  0.00     0.066 C 
ATOM     26  C   UNN dAMED       1.769   1.259   0.514  0.00  0.00     0.149 C 
ATOM     27  N   UNN dAMED      -3.233   1.819  -0.111  0.00  0.00    -0.202 NA
ATOM     28  N   UNN dAMED      -0.451   1.834  -0.195  0.00  0.00    -0.202 NA
ENDROOT
BRANCH   6  29
ATOM     29  C   UNN dAMED      -4.318   0.623  -2.114  0.00  0.00    -0.021 C 
ATOM     30  C   UNN dAMED      -5.328  -0.488  -2.415  0.00  0.00     0.028 C 
ATOM     31  C   UNN dAMED      -3.991   1.666  -3.188  0.00  0.00     0.028 C 
ENDBRANCH   6  29
BRANCH  10  32
ATOM     32  C   UNN dAMED      -0.549   3.580  -1.692  0.00  0.00    -0.002 C 
ATOM     33  C   UNN dAMED       0.977   3.535  -1.812  0.00  0.00     0.033 C 
ENDBRANCH  10  32
BRANCH  11  34
ATOM     34  C   UNN dAMED       4.135  -2.042  -1.601  0.00  0.00    -0.021 C 
ATOM     35  C   UNN dAMED       4.034  -3.499  -1.130  0.00  0.00     0.028 C 
ATOM     36  C   UNN dAMED       5.009  -1.700  -2.812  0.00  0.00     0.028 C 
ENDBRANCH  11  34
TORSDOF 3
