REMARK  26 active torsions:
REMARK  status: ('A' for Active; 'I' for Inactive)
REMARK    1  A    between atoms: 2_2  and  17_17 
REMARK    2  A    between atoms: 6_6  and  29_29 
REMARK    3  A    between atoms: 7_7  and  16_16 
REMARK    4  A    between atoms: 12_12  and  28_28 
REMARK    5  A    between atoms: 13_13  and  18_18 
REMARK    6  A    between atoms: 18_18  and  19_19 
REMARK    7  A    between atoms: 18_18  and  26_26 
REMARK    8  A    between atoms: 20_20  and  19_19 
REMARK    9  A    between atoms: 20_20  and  21_21 
REMARK   10  A    between atoms: 20_20  and  25_25 
REMARK   11  A    between atoms: 21_21  and  24_24 
REMARK   12  A    between atoms: 28_28  and  32_31 
REMARK   13  A    between atoms: 29_29  and  50_49 
REMARK   14  A    between atoms: 35_34  and  74_73 
REMARK   15  A    between atoms: 36_35  and  67_66 
REMARK   16  A    between atoms: 38_37  and  67_66 
REMARK   17  A    between atoms: 41_40  and  75_74 
REMARK   18  A    between atoms: 42_41  and  68_67 
REMARK   19  A    between atoms: 44_43  and  68_67 
REMARK   20  A    between atoms: 47_46  and  76_75 
REMARK   21  A    between atoms: 48_47  and  77_76 
REMARK   22  A    between atoms: 53_52  and  66_65 
REMARK   23  A    between atoms: 54_53  and  62_61 
REMARK   24  A    between atoms: 56_55  and  62_61 
REMARK   25  A    between atoms: 59_58  and  73_72 
REMARK   26  A    between atoms: 60_59  and  63_62 
ROOT
ATOM      1  1   UNN dAMED      15.992   9.691   0.141  0.00  0.00     0.006 A 
ATOM      2  2   UNN dAMED      17.008   8.761  -0.162  0.00  0.00     0.088 A 
ATOM      3  3   UNN dAMED      18.380   8.975   0.141  0.00  0.00     0.042 A 
ATOM      4  4   UNN dAMED      18.721  10.210   0.717  0.00  0.00    -0.017 A 
ATOM      5  5   UNN dAMED      17.708  11.131   1.004  0.00  0.00     0.050 A 
ATOM      6  6   UNN dAMED      16.355  10.913   0.723  0.00  0.00     0.081 A 
ATOM      7  7   UNN dAMED      19.429   8.039  -0.036  0.00  0.00     0.094 A 
ATOM      8  8   UNN dAMED      20.756   8.333   0.346  0.00  0.00     0.053 A 
ATOM      9  9   UNN dAMED      21.099   9.585   0.850  0.00  0.00    -0.040 A 
ATOM     10  10  UNN dAMED      20.067  10.512   1.037  0.00  0.00     0.020 A 
ATOM     11  11  UNN dAMED      21.814   7.306   0.309  0.00  0.00     0.192 C 
ATOM     12  12  UNN dAMED      22.871   7.441   1.393  0.00  0.00     0.206 C 
ATOM     13  13  UNN dAMED      23.566   8.814   1.238  0.00  0.00     0.063 C 
ATOM     14  14  UNN dAMED      22.513   9.959   1.233  0.00  0.00     0.050 C 
ATOM     15  15  UNN dAMED      21.790   6.405  -0.509  0.00  0.00    -0.289 OA
ATOM     16  30  UNN dAMED      14.551   9.319  -0.076  0.00  0.00     0.054 C 
ENDROOT
BRANCH  12  17
ATOM     17  28  UNN dAMED      23.732   6.336   1.163  0.00  0.00    -0.348 OA
BRANCH  17  18
ATOM     18  32  UNN dAMED      24.760   6.063   2.117  0.00  0.00     0.263 C 
ATOM     19  33  UNN dAMED      24.931   7.033   3.158  0.00  0.00    -0.354 OA
ATOM     20  34  UNN dAMED      25.796   6.639   4.228  0.00  0.00     0.151 C 
ATOM     21  35  UNN dAMED      26.562   5.350   3.950  0.00  0.00     0.176 C 
ATOM     22  69  UNN dAMED      26.776   7.770   4.496  0.00  0.00     0.042 C 
ATOM     23  36  UNN dAMED      25.606   4.203   3.610  0.00  0.00     0.160 C 
ATOM     24  37  UNN dAMED      24.452   4.699   2.724  0.00  0.00     0.095 C 
BRANCH  21  25
ATOM     25  74  UNN dAMED      27.433   5.016   5.017  0.00  0.00    -0.390 OA
ATOM     26  H2  UNN dAMED      28.026   4.303   4.715  0.00  0.00     0.210 HD
ENDBRANCH  21  25
BRANCH  23  27
ATOM     27  67  UNN dAMED      25.277   3.387   4.736  0.00  0.00    -0.353 OA
BRANCH  27  28
ATOM     28  38  UNN dAMED      24.108   3.651   5.511  0.00  0.00     0.263 C 
ATOM     29  39  UNN dAMED      24.313   4.640   6.521  0.00  0.00    -0.354 OA
ATOM     30  40  UNN dAMED      25.202   4.221   7.554  0.00  0.00     0.151 C 
ATOM     31  41  UNN dAMED      24.590   3.024   8.286  0.00  0.00     0.176 C 
ATOM     32  70  UNN dAMED      25.491   5.425   8.457  0.00  0.00     0.042 C 
ATOM     33  42  UNN dAMED      24.320   1.828   7.354  0.00  0.00     0.160 C 
ATOM     34  43  UNN dAMED      23.587   2.315   6.090  0.00  0.00     0.095 C 
BRANCH  31  35
ATOM     35  75  UNN dAMED      25.444   2.621   9.347  0.00  0.00    -0.390 OA
ATOM     36  H2  UNN dAMED      24.902   2.510  10.138  0.00  0.00     0.210 HD
ENDBRANCH  31  35
BRANCH  33  37
ATOM     37  68  UNN dAMED      25.536   1.129   6.983  0.00  0.00    -0.353 OA
BRANCH  37  38
ATOM     38  44  UNN dAMED      25.719  -0.144   7.667  0.00  0.00     0.263 C 
ATOM     39  45  UNN dAMED      27.045  -0.352   8.163  0.00  0.00    -0.354 OA
ATOM     40  46  UNN dAMED      27.936  -1.138   7.383  0.00  0.00     0.152 C 
ATOM     41  47  UNN dAMED      27.340  -2.511   7.077  0.00  0.00     0.180 C 
ATOM     42  71  UNN dAMED      29.235  -1.260   8.184  0.00  0.00     0.042 C 
ATOM     43  48  UNN dAMED      26.095  -2.313   6.201  0.00  0.00     0.087 C 
ATOM     44  49  UNN dAMED      25.118  -1.318   6.868  0.00  0.00     0.101 C 
ATOM     45  72  UNN dAMED      26.454  -1.877   4.768  0.00  0.00     0.049 C 
BRANCH  41  46
ATOM     46  76  UNN dAMED      28.311  -3.323   6.404  0.00  0.00    -0.390 OA
ATOM     47  H2  UNN dAMED      28.170  -4.250   6.668  0.00  0.00     0.210 HD
ENDBRANCH  41  46
BRANCH  43  48
ATOM     48  77  UNN dAMED      25.412  -3.569   6.083  0.00  0.00    -0.387 OA
ATOM     49  H2  UNN dAMED      26.035  -4.228   5.727  0.00  0.00     0.210 HD
ENDBRANCH  43  48
ENDBRANCH  37  38
ENDBRANCH  33  37
ENDBRANCH  27  28
ENDBRANCH  23  27
ENDBRANCH  17  18
ENDBRANCH  12  17
BRANCH  13  50
ATOM     50  18  UNN dAMED      24.589   8.751   0.072  0.00  0.00     0.200 C 
BRANCH  50  51
ATOM     51  19  UNN dAMED      24.728   9.997  -0.792  0.00  0.00     0.186 C 
ATOM     52  22  UNN dAMED      25.377  10.972  -0.450  0.00  0.00    -0.292 OA
BRANCH  51  53
ATOM     53  20  UNN dAMED      24.049   9.909  -2.150  0.00  0.00     0.218 C 
BRANCH  53  54
ATOM     54  21  UNN dAMED      25.000   9.578  -3.310  0.00  0.00     0.150 C 
ATOM     55  23  UNN dAMED      24.701  10.374  -4.569  0.00  0.00     0.042 C 
BRANCH  54  56
ATOM     56  24  UNN dAMED      26.369   9.791  -2.979  0.00  0.00    -0.393 OA
ATOM     57  H2  UNN dAMED      26.500  10.750  -2.879  0.00  0.00     0.210 HD
ENDBRANCH  54  56
ENDBRANCH  53  54
BRANCH  53  58
ATOM     58  25  UNN dAMED      23.374  11.144  -2.307  0.00  0.00    -0.385 OA
ATOM     59  H2  UNN dAMED      22.422  10.949  -2.247  0.00  0.00     0.210 HD
ENDBRANCH  53  58
ENDBRANCH  51  53
ENDBRANCH  50  51
BRANCH  50  60
ATOM     60  26  UNN dAMED      25.893   8.529   0.636  0.00  0.00    -0.383 OA
ATOM     61  27  UNN dAMED      26.780   7.855  -0.250  0.00  0.00     0.202 C 
ENDBRANCH  50  60
ENDBRANCH  13  50
BRANCH   7  62
ATOM     62  16  UNN dAMED      19.139   6.796  -0.537  0.00  0.00    -0.359 OA
ATOM     63  H2  UNN dAMED      19.137   6.881  -1.508  0.00  0.00     0.217 HD
ENDBRANCH   7  62
BRANCH   2  64
ATOM     64  17  UNN dAMED      16.648   7.582  -0.772  0.00  0.00    -0.359 OA
ATOM     65  H2  UNN dAMED      16.681   7.759  -1.730  0.00  0.00     0.217 HD
ENDBRANCH   2  64
BRANCH   6  66
ATOM     66  29  UNN dAMED      15.366  11.765   1.145  0.00  0.00    -0.320 OA
BRANCH  66  67
ATOM     67  50  UNN dAMED      15.611  13.187   1.136  0.00  0.00     0.269 C 
ATOM     68  51  UNN dAMED      14.363  13.931   1.073  0.00  0.00    -0.353 OA
ATOM     69  52  UNN dAMED      13.509  13.893   2.240  0.00  0.00     0.151 C 
ATOM     70  53  UNN dAMED      14.239  14.074   3.599  0.00  0.00     0.176 C 
ATOM     71  65  UNN dAMED      12.658  12.615   2.241  0.00  0.00     0.042 C 
ATOM     72  54  UNN dAMED      15.512  13.221   3.600  0.00  0.00     0.160 C 
ATOM     73  55  UNN dAMED      16.334  13.699   2.394  0.00  0.00     0.096 C 
BRANCH  70  74
ATOM     74  66  UNN dAMED      14.602  15.446   3.792  0.00  0.00    -0.390 OA
ATOM     75  H2  UNN dAMED      13.843  15.919   4.175  0.00  0.00     0.210 HD
ENDBRANCH  70  74
BRANCH  72  76
ATOM     76  62  UNN dAMED      16.213  13.194   4.843  0.00  0.00    -0.353 OA
BRANCH  76  77
ATOM     77  56  UNN dAMED      17.063  12.027   5.059  0.00  0.00     0.263 C 
ATOM     78  57  UNN dAMED      17.676  12.113   6.358  0.00  0.00    -0.354 OA
ATOM     79  58  UNN dAMED      18.555  11.018   6.663  0.00  0.00     0.151 C 
ATOM     80  59  UNN dAMED      17.818   9.672   6.641  0.00  0.00     0.175 C 
ATOM     81  64  UNN dAMED      19.167  11.341   8.020  0.00  0.00     0.042 C 
ATOM     82  60  UNN dAMED      17.177   9.489   5.271  0.00  0.00     0.154 C 
ATOM     83  61  UNN dAMED      16.281  10.697   5.023  0.00  0.00     0.095 C 
BRANCH  80  84
ATOM     84  73  UNN dAMED      18.739   8.631   6.932  0.00  0.00    -0.390 OA
ATOM     85  H2  UNN dAMED      18.244   7.808   7.102  0.00  0.00     0.210 HD
ENDBRANCH  80  84
BRANCH  82  86
ATOM     86  63  UNN dAMED      16.378   8.304   5.271  0.00  0.00    -0.393 OA
ATOM     87  H2  UNN dAMED      15.984   8.232   4.384  0.00  0.00     0.210 HD
ENDBRANCH  82  86
ENDBRANCH  76  77
ENDBRANCH  72  76
ENDBRANCH  66  67
ENDBRANCH   6  66
TORSDOF 26
