REMARK  1 active torsions:
REMARK  status: ('A' for Active; 'I' for Inactive)
REMARK    1  A    between atoms: C5*_2  and  C4*_13 
ROOT
ATOM      1  O   UNN dAMED       2.875   2.140   1.066  0.00  0.00    -0.251 OA
ATOM      2  N   UNN dAMED       2.236   0.609  -0.504  0.00  0.00    -0.165 NA
ATOM      3  O4* UNN dAMED      -1.315   0.240   1.052  0.00  0.00    -0.316 OA
ATOM      4  N   UNN dAMED       1.061   0.854   1.538  0.00  0.00    -0.140 NA
ATOM      5  N   UNN dAMED       1.114  -1.228   0.356  0.00  0.00    -0.200 NA
ATOM      6  C   UNN dAMED       1.758  -0.582  -0.657  0.00  0.00     0.242 C 
ATOM      7  C   UNN dAMED       0.841  -0.597   1.406  0.00  0.00     0.161 C 
ATOM      8  C   UNN dAMED       2.115   1.234   0.720  0.00  0.00     0.334 C 
ATOM      9  C1* UNN dAMED       0.065   0.183   0.696  0.00  0.00     0.200 C 
ATOM     10  C2* UNN dAMED       0.338  -0.048  -0.788  0.00  0.00     0.104 C 
ATOM     11  C3* UNN dAMED      -1.039  -0.151  -1.381  0.00  0.00     0.133 C 
ATOM     12  C4* UNN dAMED      -1.963  -0.072  -0.174  0.00  0.00     0.128 C 
ATOM     13  O3* UNN dAMED      -1.303  -0.991  -2.428  0.00  0.00    -0.193 OA
ATOM     14  N   UNN dAMED       1.908  -1.236  -1.913  0.00  0.00    -0.059 NA
ENDROOT
BRANCH  12  15
ATOM     15  C5* UNN dAMED      -3.464   0.186  -0.353  0.00  0.00     0.235 C 
ATOM     16  O5* UNN dAMED      -3.908   1.409  -0.776  0.00  0.00    -0.213 OA
ENDBRANCH  12  15
TORSDOF 1
