REMARK  3 active torsions:
REMARK  status: ('A' for Active; 'I' for Inactive)
REMARK    1  A    between atoms: C_6  and  O_7 
REMARK    2  A    between atoms: O_7  and  C_8 
REMARK    3  A    between atoms: C_8  and  C_10 
ROOT
ATOM      1  C   UNN dAMED       1.573  -0.490   1.008  0.00  0.00     0.173 A 
ATOM      2  N   UNN dAMED       0.519  -0.861   1.770  0.00  0.00    -0.228 NA
ATOM      3  C   UNN dAMED      -0.706  -0.769   1.205  0.00  0.00     0.100 A 
ATOM      4  C   UNN dAMED      -0.930  -0.322  -0.089  0.00  0.00     0.024 A 
ATOM      5  C   UNN dAMED       0.168   0.050  -0.854  0.00  0.00     0.029 A 
ATOM      6  C   UNN dAMED       1.430  -0.033  -0.289  0.00  0.00     0.131 A 
ATOM      7  C   UNN dAMED      -2.256  -0.276  -0.629  0.00  0.00     0.035 C 
ATOM      8  C   UNN dAMED      -2.994   0.877  -0.778  0.00  0.00     0.071 C 
ATOM      9  N   UNN dAMED      -4.203   0.456  -1.243  0.00  0.00    -0.157 NA
ATOM     10  N   UNN dAMED      -4.230  -0.824  -1.637  0.00  0.00    -0.190 NA
ATOM     11  C   UNN dAMED      -3.065  -1.295  -1.180  0.00  0.00     0.115 C 
ATOM     12  C   UNN dAMED      -4.591   1.279  -2.336  0.00  0.00     0.089 C 
ATOM     13  C   UNN dAMED      -6.048   1.701  -2.484  0.00  0.00     0.057 C 
ATOM     14  C   UNN dAMED      -6.352   2.593  -3.693  0.00  0.00     0.292 C 
ATOM     15  C   UNN dAMED      -4.143   3.130  -4.080  0.00  0.00     0.292 C 
ATOM     16  C   UNN dAMED      -3.608   2.291  -2.914  0.00  0.00     0.057 C 
ATOM     17  N   UNN dAMED      -5.473   3.727  -3.969  0.00  0.00     0.339 N 
ATOM     18  N   UNN dAMED       2.883  -0.583   1.561  0.00  0.00    -0.078 NA
ENDROOT
BRANCH   6  19
ATOM     19  O   UNN dAMED       2.522   0.325  -1.014  0.00  0.00    -0.309 OA
BRANCH  19  20
ATOM     20  C   UNN dAMED       2.138   0.171  -2.351  0.00  0.00     0.080 C 
ATOM     21  C   UNN dAMED       0.654   0.237  -2.723  0.00  0.00     0.058 C 
BRANCH  20  22
ATOM     22  C   UNN dAMED       3.176   0.137  -3.441  0.00  0.00     0.040 A 
ATOM     23  C   UNN dAMED       3.466   1.289  -4.167  0.00  0.00     0.062 A 
ATOM     24  C   UNN dAMED       4.403   1.266  -5.195  0.00  0.00     0.041 A 
ATOM     25 CL   UNN dAMED       2.652   2.753  -3.795  0.00  0.00    -0.082 Cl
ATOM     26  C   UNN dAMED       5.050   0.070  -5.490  0.00  0.00     0.142 A 
ATOM     27  C   UNN dAMED       4.774  -1.094  -4.777  0.00  0.00     0.041 A 
ATOM     28  F   UNN dAMED       5.951   0.035  -6.482  0.00  0.00    -0.204 F 
ATOM     29  C   UNN dAMED       3.833  -1.051  -3.753  0.00  0.00     0.062 A 
ATOM     30 CL   UNN dAMED       3.476  -2.478  -2.871  0.00  0.00    -0.082 Cl
ENDBRANCH  20  22
ENDBRANCH  19  20
ENDBRANCH   6  19
TORSDOF 3
