REMARK  14 active torsions:
REMARK  status: ('A' for Active; 'I' for Inactive)
REMARK    1  A    between atoms: C_1  and  O_27 
REMARK    2  A    between atoms: C_2  and  O_19 
REMARK    3  A    between atoms: C_7  and  O_32 
REMARK    4  A    between atoms: C_14  and  O_20 
REMARK    5  A    between atoms: O_19  and  C_36 
REMARK    6  A    between atoms: O_20  and  C_21 
REMARK    7  A    between atoms: C_21  and  C_22 
REMARK    8  A    between atoms: C_22  and  C_24 
REMARK    9  A    between atoms: C_24  and  C_51 
REMARK   10  A    between atoms: C_24  and  N_57 
REMARK   11  A    between atoms: C_25  and  C_45 
REMARK       I    between atoms: C_25  and  N_57 
REMARK   12  A    between atoms: O_27  and  C_28 
REMARK   13  A    between atoms: O_32  and  C_33 
REMARK   14  A    between atoms: C_36  and  C_39 
ROOT
ATOM      1  C   UNN dAMED      -3.233  -1.351   0.682  0.00  0.00     0.133 C 
ATOM      2  C   UNN dAMED      -2.292   1.188  -1.484  0.00  0.00     0.150 C 
ATOM      3  C   UNN dAMED      -2.425  -0.014  -2.492  0.00  0.00     0.089 C 
ATOM      4  C   UNN dAMED      -3.047  -1.290  -1.902  0.00  0.00     0.085 C 
ATOM      5  C   UNN dAMED      -3.874  -1.053  -0.662  0.00  0.00     0.197 C 
ATOM      6  O   UNN dAMED      -5.080  -0.840  -0.713  0.00  0.00    -0.289 OA
ATOM      7  C   UNN dAMED      -3.172   0.367  -3.738  0.00  0.00     0.151 C 
ATOM      8  C   UNN dAMED      -4.682   0.284  -3.491  0.00  0.00     0.145 C 
ATOM      9  C   UNN dAMED      -5.151  -1.151  -3.545  0.00  0.00     0.066 C 
ATOM     10  C   UNN dAMED      -4.026  -2.040  -3.031  0.00  0.00     0.161 C 
ATOM     11  C   UNN dAMED      -1.667   0.670   0.874  0.00  0.00     0.049 C 
ATOM     12  C   UNN dAMED      -1.843  -0.815   0.844  0.00  0.00     0.003 C 
ATOM     13  C   UNN dAMED      -0.784  -1.601   0.621  0.00  0.00    -0.005 C 
ATOM     14  C   UNN dAMED       0.453  -0.820   0.307  0.00  0.00     0.079 C 
ATOM     15  C   UNN dAMED       0.117   0.245  -0.748  0.00  0.00     0.084 C 
ATOM     16  C   UNN dAMED      -1.093   1.153  -0.456  0.00  0.00     0.161 C 
ATOM     17  O   UNN dAMED      -4.925   1.222  -4.508  0.00  0.00    -0.352 OA
ATOM     18  C   UNN dAMED      -3.787   1.772  -3.873  0.00  0.00     0.172 C 
ATOM     19  O   UNN dAMED      -4.223  -3.393  -2.960  0.00  0.00    -0.223 OA
ATOM     20  O   UNN dAMED      -0.616   2.356  -0.232  0.00  0.00    -0.223 OA
ATOM     21  C   UNN dAMED      -4.009  -2.005  -3.031  0.00  0.00     0.010 C 
ATOM     22  C   UNN dAMED      -3.144   1.362   1.077  0.00  0.00     0.007 C 
ATOM     23  C   UNN dAMED      -3.144   1.363   1.076  0.00  0.00     0.007 C 
ATOM     24  C   UNN dAMED      -0.954  -3.054   0.292  0.00  0.00     0.033 C 
ENDROOT
BRANCH  14  25
ATOM     25  O   UNN dAMED       1.313  -0.448   1.358  0.00  0.00    -0.276 OA
BRANCH  25  26
ATOM     26  C   UNN dAMED       1.897  -1.590   1.817  0.00  0.00     0.327 C 
ATOM     27  O   UNN dAMED       2.132  -2.550   1.092  0.00  0.00    -0.256 OA
BRANCH  26  28
ATOM     28  C   UNN dAMED       2.087  -1.742   3.309  0.00  0.00     0.212 C 
ATOM     29  O   UNN dAMED       3.362  -1.721   3.824  0.00  0.00    -0.183 OA
BRANCH  28  30
ATOM     30  C   UNN dAMED       0.853  -1.891   4.242  0.00  0.00     0.115 C 
BRANCH  30  31
ATOM     31  C   UNN dAMED       0.748  -1.097   5.528  0.00  0.00     0.020 A 
ATOM     32  C   UNN dAMED       0.144   0.159   5.536  0.00  0.00     0.002 A 
ATOM     33  C   UNN dAMED       0.127   0.913   6.708  0.00  0.00     0.000 A 
ATOM     34  C   UNN dAMED       0.719   0.418   7.869  0.00  0.00     0.000 A 
ATOM     35  C   UNN dAMED       1.326  -0.834   7.861  0.00  0.00     0.000 A 
ATOM     36  C   UNN dAMED       1.337  -1.591   6.693  0.00  0.00     0.002 A 
ENDBRANCH  30  31
BRANCH  30  37
ATOM     37  N   UNN dAMED      -0.206  -2.839   3.901  0.00  0.00    -0.206 NA
ATOM     38  C   UNN dAMED      -0.172  -4.079   4.375  0.00  0.00     0.279 C 
ATOM     39  O   UNN dAMED      -1.022  -4.638   5.057  0.00  0.00    -0.265 OA
BRANCH  38  40
ATOM     40  C   UNN dAMED       1.045  -4.818   4.032  0.00  0.00     0.058 A 
ATOM     41  C   UNN dAMED       2.143  -4.753   4.887  0.00  0.00     0.005 A 
ATOM     42  C   UNN dAMED       3.303  -5.446   4.553  0.00  0.00     0.000 A 
ATOM     43  C   UNN dAMED       3.348  -6.207   3.386  0.00  0.00     0.000 A 
ATOM     44  C   UNN dAMED       2.232  -6.286   2.553  0.00  0.00     0.000 A 
ATOM     45  C   UNN dAMED       1.070  -5.591   2.874  0.00  0.00     0.005 A 
ENDBRANCH  38  40
ENDBRANCH  30  37
ENDBRANCH  28  30
ENDBRANCH  26  28
ENDBRANCH  25  26
ENDBRANCH  14  25
BRANCH   1  46
ATOM     46  O   UNN dAMED      -4.034  -1.495   1.826  0.00  0.00    -0.274 OA
BRANCH  46  47
ATOM     47  C   UNN dAMED      -4.120  -2.834   2.063  0.00  0.00     0.277 C 
ATOM     48  O   UNN dAMED      -4.020  -3.676   1.180  0.00  0.00    -0.264 OA
ATOM     49  C   UNN dAMED      -4.452  -3.294   3.456  0.00  0.00     0.107 C 
ENDBRANCH  46  47
ENDBRANCH   1  46
BRANCH   2  50
ATOM     50  O   UNN dAMED      -2.853   2.436  -1.860  0.00  0.00    -0.299 OA
BRANCH  50  51
ATOM     51  C   UNN dAMED      -3.863   2.721  -1.006  0.00  0.00     0.296 C 
ATOM     52  O   UNN dAMED      -4.825   2.021  -0.750  0.00  0.00    -0.259 OA
BRANCH  51  53
ATOM     53  C   UNN dAMED      -3.703   4.087  -0.504  0.00  0.00     0.063 A 
ATOM     54  C   UNN dAMED      -3.868   5.164  -1.373  0.00  0.00     0.005 A 
ATOM     55  C   UNN dAMED      -3.815   6.462  -0.869  0.00  0.00     0.000 A 
ATOM     56  C   UNN dAMED      -3.624   6.676   0.496  0.00  0.00     0.000 A 
ATOM     57  C   UNN dAMED      -3.480   5.591   1.359  0.00  0.00     0.000 A 
ATOM     58  C   UNN dAMED      -3.526   4.290   0.863  0.00  0.00     0.005 A 
ENDBRANCH  51  53
ENDBRANCH  50  51
ENDBRANCH   2  50
BRANCH   7  59
ATOM     59  O   UNN dAMED      -2.818  -0.285  -4.963  0.00  0.00    -0.302 OA
BRANCH  59  60
ATOM     60  C   UNN dAMED      -1.514  -0.112  -5.314  0.00  0.00     0.272 C 
ATOM     61  O   UNN dAMED      -1.064   0.956  -5.709  0.00  0.00    -0.264 OA
ATOM     62  C   UNN dAMED      -0.546  -1.207  -4.959  0.00  0.00     0.106 C 
ENDBRANCH  59  60
ENDBRANCH   7  59
TORSDOF 14
