REMARK  3 active torsions:
REMARK  status: ('A' for Active; 'I' for Inactive)
REMARK    1  A    between atoms: C_8  and  C_15 
REMARK    2  A    between atoms: C_15  and  C_16 
REMARK    3  A    between atoms: C_16  and  C_17 
ROOT
ATOM      1  C   UNN dAMED       1.256  -2.276  -3.628  0.00  0.00     0.118 A 
ATOM      2  C   UNN dAMED       2.088  -1.472  -2.462  0.00  0.00     0.030 C 
ATOM      3  C   UNN dAMED       2.952  -0.262  -2.824  0.00  0.00     0.007 C 
ATOM      4  C   UNN dAMED       0.525  -0.730  -1.467  0.00  0.00     0.074 C 
ATOM      5  C   UNN dAMED       0.823  -0.872  -2.972  0.00  0.00     0.145 A 
ATOM      6  C   UNN dAMED       3.519   0.588  -1.687  0.00  0.00     0.024 C 
ATOM      7  C   UNN dAMED       3.125   2.058  -1.591  0.00  0.00    -0.019 C 
ATOM      8  C   UNN dAMED      -0.537   0.265  -0.965  0.00  0.00     0.046 C 
ATOM      9  C   UNN dAMED       3.962   3.067  -2.393  0.00  0.00     0.122 C 
ATOM     10  C   UNN dAMED       3.404   3.455  -3.755  0.00  0.00     0.038 C 
ATOM     11  C   UNN dAMED      -0.579   1.634  -3.247  0.00  0.00     0.123 C 
ATOM     12  C   UNN dAMED      -1.874   1.017  -2.791  0.00  0.00     0.258 C 
ATOM     13  C   UNN dAMED       2.022   2.954  -3.971  0.00  0.00     0.173 C 
ATOM     14  C   UNN dAMED       0.175   1.102  -4.486  0.00  0.00     0.168 C 
ATOM     15  O   UNN dAMED      -2.854   1.161  -3.507  0.00  0.00    -0.270 OA
ATOM     16  O   UNN dAMED       1.174   3.332  -3.163  0.00  0.00    -0.291 OA
ATOM     17  C   UNN dAMED       1.921   1.587  -4.587  0.00  0.00     0.084 C 
ATOM     18  O   UNN dAMED      -0.021  -1.643  -3.784  0.00  0.00    -0.356 OA
ATOM     19  C   UNN dAMED       1.293  -3.033  -2.219  0.00  0.00     0.032 C 
ATOM     20  N   UNN dAMED      -1.813   0.332  -1.658  0.00  0.00    -0.220 NA
ATOM     21  O   UNN dAMED      -0.495   1.022  -5.667  0.00  0.00    -0.223 OA
ATOM     22  C   UNN dAMED       0.143   1.091  -4.487  0.00  0.00     0.010 C 
ATOM     23  C   UNN dAMED       0.142   1.093  -4.484  0.00  0.00     0.010 C 
ATOM     24  C   UNN dAMED       3.787   4.794  -4.386  0.00  0.00     0.036 C 
ATOM     25  O   UNN dAMED       5.318   3.099  -2.204  0.00  0.00    -0.191 OA
ATOM     26  C   UNN dAMED       1.649   2.373  -1.299  0.00  0.00     0.029 C 
ENDROOT
BRANCH   8  27
ATOM     27  C   UNN dAMED      -0.107   1.515  -0.011  0.00  0.00     0.060 C 
ATOM     28  C   UNN dAMED      -0.675   0.319  -0.934  0.00  0.00     0.011 C 
BRANCH  27  29
ATOM     29  C   UNN dAMED       1.221   1.658  -0.175  0.00  0.00    -0.001 C 
BRANCH  29  30
ATOM     30  C   UNN dAMED       1.996   2.692   0.607  0.00  0.00     0.084 A 
ATOM     31  N   UNN dAMED       1.386   3.611   1.437  0.00  0.00    -0.243 NA
ATOM     32  C   UNN dAMED       2.335   4.269   2.064  0.00  0.00     0.089 A 
ATOM     33  S   UNN dAMED       3.949   3.854   1.729  0.00  0.00    -0.070 SA
ATOM     34  C   UNN dAMED       1.998   5.293   3.108  0.00  0.00     0.059 C 
ATOM     35  C   UNN dAMED       3.370   2.672   0.645  0.00  0.00     0.055 A 
ENDBRANCH  29  30
ENDBRANCH  27  29
ENDBRANCH   8  27
TORSDOF 3
