REMARK  3 active torsions:
REMARK  status: ('A' for Active; 'I' for Inactive)
REMARK    1  A    between atoms: C_2  and  C_22 
REMARK    2  A    between atoms: C_2  and  O_25 
REMARK    3  A    between atoms: O_25  and  C_26 
ROOT
ATOM      1  O   UNN dAMED       0.541  -7.010   6.171  0.00  0.00    -0.291 OA
ATOM      2  C   UNN dAMED       3.078   0.121  -0.323  0.00  0.00     0.151 C 
ATOM      3  C   UNN dAMED       1.718   0.089  -1.049  0.00  0.00     0.035 C 
ATOM      4  C   UNN dAMED       2.740  -0.551   0.995  0.00  0.00     0.025 C 
ATOM      5  C   UNN dAMED       3.862  -1.164   1.820  0.00  0.00     0.002 C 
ATOM      6  C   UNN dAMED       3.337  -1.968   3.020  0.00  0.00    -0.005 C 
ATOM      7  C   UNN dAMED       0.824  -0.927  -0.330  0.00  0.00    -0.003 C 
ATOM      8  C   UNN dAMED       1.736  -1.659   0.648  0.00  0.00     0.019 C 
ATOM      9  C   UNN dAMED       2.185  -2.942   2.714  0.00  0.00     0.020 C 
ATOM     10  C   UNN dAMED       1.109  -2.199   1.909  0.00  0.00     0.031 C 
ATOM     11  C   UNN dAMED       1.540  -3.510   3.958  0.00  0.00     0.014 C 
ATOM     12  C   UNN dAMED       2.573  -4.253   4.799  0.00  0.00     0.012 C 
ATOM     13  C   UNN dAMED       2.009  -5.178   5.867  0.00  0.00     0.070 C 
ATOM     14  C   UNN dAMED      -0.028  -3.199   1.602  0.00  0.00    -0.038 C 
ATOM     15  C   UNN dAMED       0.418  -4.452   3.629  0.00  0.00    -0.025 C 
ATOM     16  C   UNN dAMED       0.987  -6.176   5.397  0.00  0.00     0.173 C 
ATOM     17  C   UNN dAMED      -0.379  -4.164   2.463  0.00  0.00    -0.030 C 
ATOM     18  C   UNN dAMED       0.054  -5.459   4.434  0.00  0.00     0.033 C 
ATOM     19  C   UNN dAMED       0.988  -2.366   4.817  0.00  0.00     0.004 C 
ATOM     20  C   UNN dAMED      -1.487  -5.098   2.065  0.00  0.00     0.030 C 
ATOM     21  C   UNN dAMED       2.040   0.466   1.906  0.00  0.00     0.002 C 
ENDROOT
BRANCH   2  22
ATOM     22  C   UNN dAMED       4.102  -0.691  -1.071  0.00  0.00     0.176 C 
ATOM     23  O   UNN dAMED       5.311  -0.540  -0.951  0.00  0.00    -0.294 OA
ATOM     24  C   UNN dAMED       3.605  -1.857  -1.881  0.00  0.00     0.075 C 
ENDBRANCH   2  22
BRANCH   2  25
ATOM     25  O   UNN dAMED       3.539   1.439  -0.126  0.00  0.00    -0.300 OA
BRANCH  25  26
ATOM     26  C   UNN dAMED       2.776   2.324  -0.830  0.00  0.00     0.273 C 
ATOM     27  O   UNN dAMED       2.800   2.403  -2.052  0.00  0.00    -0.264 OA
ATOM     28  C   UNN dAMED       2.131   3.449  -0.069  0.00  0.00     0.106 C 
ENDBRANCH  25  26
ENDBRANCH   2  25
TORSDOF 3
