REMARK  5 active torsions:
REMARK  status: ('A' for Active; 'I' for Inactive)
REMARK    1  A    between atoms: C_3  and  C_10 
REMARK    2  A    between atoms: C_5  and  C_8 
REMARK    3  A    between atoms: C_7  and  N_16 
REMARK       I    between atoms: C_8  and  N_16 
REMARK    4  A    between atoms: C_10  and  N_14 
REMARK    5  A    between atoms: N_14  and  N_15 
ROOT
ATOM      1  C   UNN dAMED      -0.909  -0.942  -0.895  0.00  0.00    -0.002 A 
ATOM      2  C   UNN dAMED       0.450  -0.802  -0.622  0.00  0.00     0.004 A 
ATOM      3  C   UNN dAMED      -1.825  -0.001  -0.419  0.00  0.00     0.004 A 
ATOM      4  C   UNN dAMED      -1.385   1.045   0.394  0.00  0.00    -0.002 A 
ATOM      5  C   UNN dAMED       0.883   0.275   0.148  0.00  0.00     0.058 A 
ATOM      6  C   UNN dAMED      -0.029   1.179   0.692  0.00  0.00     0.004 A 
ENDROOT
BRANCH   5   7
ATOM      7  C   UNN dAMED       2.319   0.421   0.424  0.00  0.00     0.279 C 
ATOM      8  O   UNN dAMED       2.873  -0.441   1.096  0.00  0.00    -0.265 OA
ATOM      9  N   UNN dAMED       2.880   1.495  -0.122  0.00  0.00    -0.217 NA
BRANCH   9  10
ATOM     10  C   UNN dAMED       2.161   2.759  -0.148  0.00  0.00     0.041 C 
ATOM     11  C   UNN dAMED       0.646   2.743  -0.366  0.00  0.00     0.047 C 
ATOM     12  C   UNN dAMED       2.933   4.053  -0.429  0.00  0.00     0.047 C 
ENDBRANCH   9  10
ENDBRANCH   5   7
BRANCH   3  13
ATOM     13  C   UNN dAMED      -3.257  -0.024  -0.902  0.00  0.00     0.175 C 
BRANCH  13  14
ATOM     14  N   UNN dAMED      -3.598   0.160  -2.311  0.00  0.00    -0.174 NA
BRANCH  14  15
ATOM     15  N   UNN dAMED      -3.824  -1.000  -3.161  0.00  0.00    -0.177 NA
ATOM     16  C   UNN dAMED      -4.109  -0.830  -4.576  0.00  0.00     0.177 C 
ENDBRANCH  14  15
ENDBRANCH  13  14
ENDBRANCH   3  13
TORSDOF 5
