REMARK  5 active torsions:
REMARK  status: ('A' for Active; 'I' for Inactive)
REMARK    1  A    between atoms: N_1  and  C_24 
REMARK    2  A    between atoms: C_11  and  N_32 
REMARK    3  A    between atoms: C_13  and  N_33 
REMARK    4  A    between atoms: C_23  and  C_28 
REMARK    5  A    between atoms: C_24  and  C_25 
REMARK       I    between atoms: C_28  and  N_33 
ROOT
ATOM      1  S   UNN dAMED       0.607  -3.009  -1.550  0.00  0.00    -0.042 SA
ATOM      2  C   UNN dAMED       0.752  -1.653  -0.485  0.00  0.00     0.196 A 
ATOM      3  N   UNN dAMED       1.987  -1.393  -0.103  0.00  0.00    -0.219 NA
ATOM      4  C   UNN dAMED       2.863  -2.269  -0.704  0.00  0.00     0.113 A 
ATOM      5  C   UNN dAMED       2.313  -3.220  -1.536  0.00  0.00     0.109 A 
ATOM      6  N   UNN dAMED      -0.328  -1.016   0.039  0.00  0.00    -0.202 NA
ENDROOT
BRANCH   6   7
ATOM      7  C   UNN dAMED      -1.270  -0.531  -0.799  0.00  0.00     0.168 A 
ATOM      8  N   UNN dAMED      -0.917  -0.034  -2.007  0.00  0.00    -0.212 NA
ATOM      9  C   UNN dAMED      -1.912   0.469  -2.777  0.00  0.00     0.142 A 
ATOM     10  N   UNN dAMED      -3.215   0.563  -2.423  0.00  0.00    -0.219 NA
ATOM     11  C   UNN dAMED      -1.538   0.939  -4.156  0.00  0.00     0.074 C 
ATOM     12  C   UNN dAMED      -3.538   0.102  -1.197  0.00  0.00     0.124 A 
ATOM     13  N   UNN dAMED      -4.855   0.182  -0.688  0.00  0.00    -0.233 NA
ATOM     14  C   UNN dAMED      -2.585  -0.465  -0.362  0.00  0.00     0.070 A 
ATOM     15  C   UNN dAMED      -6.020   0.477  -1.525  0.00  0.00     0.113 C 
ATOM     16  C   UNN dAMED      -5.142   1.005   0.485  0.00  0.00     0.113 C 
ATOM     17  C   UNN dAMED      -6.715   1.846  -1.448  0.00  0.00     0.268 C 
ATOM     18  N   UNN dAMED      -7.254   2.348  -0.179  0.00  0.00     0.143 N 
ATOM     19  C   UNN dAMED      -5.877   2.339   0.327  0.00  0.00     0.268 C 
BRANCH  18  20
ATOM     20  C   UNN dAMED      -8.110   1.458   0.582  0.00  0.00     0.286 C 
BRANCH  20  21
ATOM     21  C   UNN dAMED      -9.399   0.910  -0.041  0.00  0.00     0.218 C 
ATOM     22  O   UNN dAMED      -9.582  -0.439  -0.171  0.00  0.00    -0.218 OA
ENDBRANCH  20  21
ENDBRANCH  18  20
ENDBRANCH   6   7
BRANCH   5  23
ATOM     23  C   UNN dAMED       2.927  -4.260  -2.351  0.00  0.00     0.287 C 
ATOM     24  O   UNN dAMED       2.329  -4.836  -3.255  0.00  0.00    -0.265 OA
ATOM     25  N   UNN dAMED       4.171  -4.561  -1.950  0.00  0.00    -0.207 NA
BRANCH  25  26
ATOM     26  C   UNN dAMED       5.161  -3.966  -2.670  0.00  0.00     0.091 A 
ATOM     27  C   UNN dAMED       5.038  -3.721  -4.053  0.00  0.00    -0.003 A 
ATOM     28  C   UNN dAMED       6.038  -3.093  -4.796  0.00  0.00    -0.003 A 
ATOM     29  C   UNN dAMED       3.766  -4.131  -4.741  0.00  0.00     0.033 C 
ATOM     30  C   UNN dAMED       7.217  -2.707  -4.175  0.00  0.00     0.001 A 
ATOM     31  C   UNN dAMED       7.397  -2.971  -2.823  0.00  0.00     0.013 A 
ATOM     32  C   UNN dAMED       6.387  -3.596  -2.083  0.00  0.00     0.075 A 
ATOM     33 CL   UNN dAMED       6.742  -3.913  -0.419  0.00  0.00    -0.081 Cl
ENDBRANCH  25  26
ENDBRANCH   5  23
TORSDOF 5
