REMARK  1 active torsions:
REMARK  status: ('A' for Active; 'I' for Inactive)
REMARK    1  A    between atoms: C4*_2  and  C5*_6 
ROOT
ATOM      1  O4* UNN dAMED       0.882  -0.861  -0.887  0.00  0.00    -0.296 OA
ATOM      2  C4* UNN dAMED       1.926  -0.727  -1.843  0.00  0.00     0.136 C 
ATOM      3  C3* UNN dAMED       2.883   0.429  -1.582  0.00  0.00     0.144 C 
ATOM      4  C2* UNN dAMED       2.237   1.179  -0.453  0.00  0.00     0.093 C 
ATOM      5  C1* UNN dAMED       1.032   0.314  -0.087  0.00  0.00     0.140 C 
ATOM      6  C   UNN dAMED      -2.875  -1.170   0.368  0.00  0.00     0.226 A 
ATOM      7  N   UNN dAMED      -3.799  -0.232   0.056  0.00  0.00    -0.201 NA
ATOM      8  C   UNN dAMED      -3.382   1.057   0.002  0.00  0.00     0.173 A 
ATOM      9  C   UNN dAMED      -2.041   1.342   0.259  0.00  0.00     0.143 A 
ATOM     10  C   UNN dAMED      -1.212   0.270   0.556  0.00  0.00     0.153 A 
ATOM     11  N   UNN dAMED      -1.562  -1.023   0.641  0.00  0.00    -0.203 NA
ATOM     12  N   UNN dAMED      -1.339   2.521   0.270  0.00  0.00    -0.226 NA
ATOM     13  C   UNN dAMED      -0.097   2.175   0.543  0.00  0.00     0.160 A 
ATOM     14  N   UNN dAMED       0.010   0.832   0.782  0.00  0.00    -0.156 NA
ATOM     15 CL   UNN dAMED      -3.462  -2.779   0.442  0.00  0.00    -0.041 Cl
ATOM     16  N   UNN dAMED      -4.296   2.099  -0.319  0.00  0.00    -0.078 NA
ATOM     17  O3* UNN dAMED       3.479   1.095  -2.618  0.00  0.00    -0.189 OA
ENDROOT
BRANCH   2  18
ATOM     18  C5* UNN dAMED       2.365  -1.922  -2.704  0.00  0.00     0.235 C 
ATOM     19  O5* UNN dAMED       1.469  -2.572  -3.508  0.00  0.00    -0.213 OA
ENDBRANCH   2  18
TORSDOF 1
