REMARK  9 active torsions:
REMARK  status: ('A' for Active; 'I' for Inactive)
REMARK    1  A    between atoms: C_10  and  C_23 
REMARK    2  A    between atoms: C_13  and  N_22 
REMARK    3  A    between atoms: C_15  and  C_20 
REMARK    4  A    between atoms: CG_17  and  CB_18 
REMARK    5  A    between atoms: CG_17  and  CD_31 
REMARK    6  A    between atoms: CB_18  and  CA_19 
REMARK    7  A    between atoms: CA_19  and  N_25 
REMARK    8  A    between atoms: CA_19  and  C_28 
REMARK       I    between atoms: C_20  and  N_25 
REMARK    9  A    between atoms: N_22  and  C_23 
ROOT
ATOM      1  C   UNN dAMED      -2.996   3.001  -2.043  0.00  0.00     0.017 A 
ATOM      2  C   UNN dAMED      -3.774   3.870  -2.803  0.00  0.00     0.006 A 
ATOM      3  C   UNN dAMED      -3.000   1.630  -2.315  0.00  0.00     0.060 A 
ATOM      4  C   UNN dAMED      -3.794   1.129  -3.349  0.00  0.00     0.017 A 
ATOM      5  C   UNN dAMED      -4.576   3.350  -3.818  0.00  0.00     0.058 A 
ATOM      6  C   UNN dAMED      -4.582   1.987  -4.110  0.00  0.00     0.006 A 
ENDROOT
BRANCH   3   7
ATOM      7  N   UNN dAMED      -2.214   0.755  -1.540  0.00  0.00    -0.323 N 
ATOM      8  C   UNN dAMED      -0.765   0.830  -1.611  0.00  0.00     0.131 C 
BRANCH   7   9
ATOM      9  C   UNN dAMED      -2.763  -0.035  -0.436  0.00  0.00     0.097 C 
BRANCH   9  10
ATOM     10  C   UNN dAMED      -4.205   0.043   0.008  0.00  0.00     0.118 A 
ATOM     11  N   UNN dAMED      -5.134  -0.679  -0.643  0.00  0.00    -0.237 NA
ATOM     12  C   UNN dAMED      -6.416  -0.509  -0.279  0.00  0.00     0.148 A 
ATOM     13  C   UNN dAMED      -6.796   0.371   0.732  0.00  0.00     0.185 A 
ATOM     14  C   UNN dAMED      -7.429  -1.207  -0.900  0.00  0.00     0.174 A 
ATOM     15  N   UNN dAMED      -5.853   1.077   1.366  0.00  0.00    -0.222 NA
ATOM     16  N   UNN dAMED      -8.081   0.513   1.074  0.00  0.00    -0.194 NA
ATOM     17  C   UNN dAMED      -4.565   0.913   1.004  0.00  0.00     0.121 A 
ATOM     18  C   UNN dAMED      -9.001  -0.220   0.414  0.00  0.00     0.240 A 
ATOM     19  N   UNN dAMED      -8.730  -1.085  -0.575  0.00  0.00    -0.199 NA
ATOM     20  N   UNN dAMED     -10.361  -0.085   0.817  0.00  0.00    -0.059 NA
ATOM     21  N   UNN dAMED      -7.079  -2.110  -1.945  0.00  0.00    -0.078 NA
ENDBRANCH   9  10
ENDBRANCH   7   9
ENDBRANCH   3   7
BRANCH   5  22
ATOM     22  C   UNN dAMED      -5.278   4.269  -4.715  0.00  0.00     0.279 C 
ATOM     23  O   UNN dAMED      -4.713   4.583  -5.758  0.00  0.00    -0.265 OA
ATOM     24  N   UNN dAMED      -6.480   4.647  -4.292  0.00  0.00    -0.206 NA
BRANCH  24  25
ATOM     25  CA  UNN dAMED      -7.301   5.596  -5.049  0.00  0.00     0.127 C 
BRANCH  25  26
ATOM     26  CB  UNN dAMED      -8.282   6.500  -4.294  0.00  0.00     0.064 C 
BRANCH  26  27
ATOM     27  CG  UNN dAMED      -8.289   6.548  -2.764  0.00  0.00     0.104 C 
BRANCH  27  28
ATOM     28  CD  UNN dAMED      -7.594   7.679  -2.058  0.00  0.00     0.186 C 
ATOM     29  OE1 UNN dAMED      -8.336   8.543  -1.503  0.00  0.00    -0.647 OA
ATOM     30  OE2 UNN dAMED      -6.328   7.681  -2.111  0.00  0.00    -0.647 OA
ENDBRANCH  27  28
ENDBRANCH  26  27
ENDBRANCH  25  26
BRANCH  25  31
ATOM     31  C   UNN dAMED      -7.534   5.410  -6.532  0.00  0.00     0.225 C 
ATOM     32  O   UNN dAMED      -8.463   4.612  -6.862  0.00  0.00    -0.643 OA
ATOM     33  OXT UNN dAMED      -6.831   6.123  -7.310  0.00  0.00    -0.643 OA
ENDBRANCH  25  31
ENDBRANCH  24  25
ENDBRANCH   5  22
TORSDOF 9
