REMARK  5 active torsions:
REMARK  status: ('A' for Active; 'I' for Inactive)
REMARK    1  A    between atoms: C_2  and  C_3 
REMARK    2  A    between atoms: C_3  and  N_4 
REMARK       I    between atoms: N_4  and  C_5 
REMARK    3  A    between atoms: N_4  and  N_8 
REMARK       I    between atoms: C_5  and  N_11 
REMARK    4  A    between atoms: C_6  and  C_7 
REMARK    5  A    between atoms: C_6  and  N_11 
ROOT
ATOM      1  N   UNN dAMED      -1.582   0.697   1.546  0.00  0.00    -0.102 NA
ATOM      2  C   UNN dAMED      -1.911  -0.596   1.938  0.00  0.00     0.336 C 
ATOM      3  O   UNN dAMED      -1.926  -1.542   1.153  0.00  0.00    -0.250 OA
ATOM      4  N   UNN dAMED      -2.248  -0.657   3.229  0.00  0.00    -0.222 NA
ENDROOT
BRANCH   1   5
ATOM      5  C   UNN dAMED      -1.963   0.822   0.179  0.00  0.00     0.120 C 
BRANCH   5   6
ATOM      6  C   UNN dAMED      -3.358   0.388  -0.287  0.00  0.00     0.115 C 
ATOM      7 CL   UNN dAMED      -4.786   1.240   0.272  0.00  0.00    -0.112 Cl
ENDBRANCH   5   6
ENDBRANCH   1   5
BRANCH   1   8
ATOM      8  N   UNN dAMED      -0.256   1.071   1.618  0.00  0.00     0.040 NA
ATOM      9  O   UNN dAMED      -0.027   2.027   0.870  0.00  0.00    -0.082 OA
ENDBRANCH   1   8
BRANCH   4  10
ATOM     10  C   UNN dAMED      -2.772  -1.897   3.782  0.00  0.00     0.147 C 
BRANCH  10  11
ATOM     11  C   UNN dAMED      -3.982  -1.880   4.725  0.00  0.00     0.121 C 
ATOM     12 CL   UNN dAMED      -5.514  -1.194   4.203  0.00  0.00    -0.112 Cl
ENDBRANCH  10  11
ENDBRANCH   4  10
TORSDOF 5
