REMARK  2 active torsions:
REMARK  status: ('A' for Active; 'I' for Inactive)
REMARK    1  A    between atoms: AS_2  and  O_3 
REMARK    2  A    between atoms: O_3  and  AS_4 
ROOT
ATOM      1  O   UNN dAMED       1.404  -0.283  -0.228  0.00  0.00     0.000 OA
ENDROOT
BRANCH   1   2
ATOM      2 AS   UNN dAMED      -0.242   0.286   0.250  0.00  0.00     0.000 As
ATOM      3  O   UNN dAMED      -1.021  -0.664  -0.758  0.00  0.00     0.000 OA
ENDBRANCH   1   2
BRANCH   1   4
ATOM      4 AS   UNN dAMED      -0.092  -0.223   0.781  0.00  0.00     0.000 As
ATOM      5  O   UNN dAMED       0.675  -0.437   2.157  0.00  0.00     0.000 OA
ENDBRANCH   1   4
TORSDOF 2
