REMARK  2 active torsions:
REMARK  status: ('A' for Active; 'I' for Inactive)
REMARK    1  A    between atoms: Pt_8  and  N_12 
REMARK    2  A    between atoms: Pt_8  and  N_13 
ROOT
HETATM    1  O   UNN     0       1.846  -1.375   0.928  0.00  0.00    -0.263 OA
HETATM    2  C   UNN     0       1.577  -0.718  -0.057  0.00  0.00     0.284 C 
HETATM    3  C   UNN     0       1.593   0.813  -0.096  0.00  0.00     0.136 C 
HETATM    4  O   UNN     0       1.204  -1.257  -1.257  0.00  0.00    -0.245 OA
HETATM    5  C   UNN     0       0.172   1.400  -0.114  0.00  0.00     0.284 C 
HETATM    6  C   UNN     0       2.529   1.430  -1.172  0.00  0.00     0.030 C 
HETATM    7  C   UNN     0       2.527   1.450   0.972  0.00  0.00     0.030 C 
HETATM    8  Pt  UNN     0      -0.588  -0.704  -1.697  0.00  0.00     0.256 P 
HETATM    9  O   UNN     0      -0.336   1.987   0.820  0.00  0.00    -0.263 OA
HETATM   10  O   UNN     0      -0.469   1.177  -1.303  0.00  0.00    -0.245 OA
HETATM   11  C   UNN     0       3.016   2.443  -0.108  0.00  0.00     0.003 C 
ENDROOT
BRANCH   8  12
HETATM   12  N   UNN     0      -0.947  -0.987  -3.600  0.00  0.00    -0.259 NA
HETATM   13  H   UNN     0      -1.883  -0.662  -3.839  0.00  0.00     0.128 HD
HETATM   14  H   UNN     0      -0.950  -1.983  -3.819  0.00  0.00     0.128 HD
ENDBRANCH   8  12
BRANCH   8  15
HETATM   15  N   UNN     0      -1.890  -1.578  -0.525  0.00  0.00    -0.259 NA
HETATM   16  H   UNN     0      -2.361  -0.896   0.069  0.00  0.00     0.128 HD
HETATM   17  H   UNN     0      -1.427  -2.219   0.120  0.00  0.00     0.128 HD
ENDBRANCH   8  15
TORSDOF 2
