REMARK  10 active torsions:
REMARK  status: ('A' for Active; 'I' for Inactive)
REMARK    1  A    between atoms: C_1  and  O_19 
REMARK    2  A    between atoms: C_2  and  O_22 
REMARK    3  A    between atoms: C_10  and  N_25 
REMARK    4  A    between atoms: C_11  and  N_25 
REMARK    5  A    between atoms: O_19  and  C_20 
REMARK    6  A    between atoms: C_20  and  C_21 
REMARK    7  A    between atoms: C_21  and  O_26 
REMARK    8  A    between atoms: O_22  and  C_23 
REMARK    9  A    between atoms: C_23  and  C_24 
REMARK   10  A    between atoms: C_24  and  O_28 
ROOT
ATOM      1  C   UNN dAMED      -3.860  -0.328  -1.042  0.00  0.00     0.084 A 
ATOM      2  C   UNN dAMED      -4.655   0.698  -1.570  0.00  0.00     0.027 A 
ATOM      3  C   UNN dAMED      -6.030   0.540  -1.742  0.00  0.00     0.044 A 
ATOM      4  C   UNN dAMED      -6.638  -0.665  -1.407  0.00  0.00     0.008 A 
ATOM      5  C   UNN dAMED      -5.867  -1.709  -0.905  0.00  0.00     0.002 A 
ATOM      6  C   UNN dAMED      -4.491  -1.542  -0.735  0.00  0.00     0.019 A 
ATOM      7  C   UNN dAMED      -6.807   1.618  -2.259  0.00  0.00    -0.051 C 
ATOM      8  C   UNN dAMED      -7.456   2.532  -2.691  0.00  0.00    -0.009 C 
ENDROOT
BRANCH   1   9
ATOM      9  N   UNN dAMED      -2.523  -0.175  -0.929  0.00  0.00    -0.227 NA
BRANCH   9  10
ATOM     10  C   UNN dAMED      -2.047   0.233   0.280  0.00  0.00     0.166 A 
ATOM     11  C   UNN dAMED      -0.665   0.230   0.553  0.00  0.00     0.056 A 
ATOM     12  C   UNN dAMED      -0.259   0.680   1.826  0.00  0.00     0.088 A 
ATOM     13  C   UNN dAMED       0.311  -0.189  -0.375  0.00  0.00     0.031 A 
ATOM     14  C   UNN dAMED       1.096   0.687   2.130  0.00  0.00     0.045 A 
ATOM     15  N   UNN dAMED      -1.134   1.097   2.746  0.00  0.00    -0.224 NA
ATOM     16  C   UNN dAMED       2.049   0.269   1.209  0.00  0.00     0.118 A 
ATOM     17  C   UNN dAMED       1.658  -0.167  -0.042  0.00  0.00     0.117 A 
ATOM     18  C   UNN dAMED      -2.430   1.074   2.391  0.00  0.00     0.200 A 
ATOM     19  N   UNN dAMED      -2.932   0.672   1.210  0.00  0.00    -0.205 NA
BRANCH  16  20
ATOM     20  O   UNN dAMED       3.364   0.297   1.564  0.00  0.00    -0.326 OA
BRANCH  20  21
ATOM     21  C   UNN dAMED       3.423  -0.359   2.796  0.00  0.00     0.181 C 
BRANCH  21  22
ATOM     22  C   UNN dAMED       4.779  -0.731   3.409  0.00  0.00     0.175 C 
BRANCH  22  23
ATOM     23  O   UNN dAMED       5.335  -2.060   3.187  0.00  0.00    -0.349 OA
ATOM     24  C   UNN dAMED       4.894  -0.732   3.590  0.00  0.00     0.174 C 
ENDBRANCH  22  23
ENDBRANCH  21  22
ENDBRANCH  20  21
ENDBRANCH  16  20
BRANCH  17  25
ATOM     25  O   UNN dAMED       2.572  -0.572  -0.965  0.00  0.00    -0.326 OA
BRANCH  25  26
ATOM     26  C   UNN dAMED       3.208  -1.683  -0.403  0.00  0.00     0.181 C 
BRANCH  26  27
ATOM     27  C   UNN dAMED       2.508  -2.510   0.680  0.00  0.00     0.175 C 
BRANCH  27  28
ATOM     28  O   UNN dAMED       1.706  -3.678   0.312  0.00  0.00    -0.349 OA
ATOM     29  C   UNN dAMED       2.505  -2.514   0.679  0.00  0.00     0.174 C 
ENDBRANCH  27  28
ENDBRANCH  26  27
ENDBRANCH  25  26
ENDBRANCH  17  25
ENDBRANCH   9  10
ENDBRANCH   1   9
TORSDOF 10
