REMARK  7 active torsions:
REMARK  status: ('A' for Active; 'I' for Inactive)
REMARK    1  A    between atoms: S_1  and  O_4 
REMARK    2  A    between atoms: O_4  and  C_5 
REMARK    3  A    between atoms: C_5  and  C_6 
REMARK    4  A    between atoms: C_6  and  C_7 
REMARK    5  A    between atoms: C_7  and  C_8 
REMARK    6  A    between atoms: C_8  and  O_9 
REMARK    7  A    between atoms: O_9  and  S_10 
ROOT
ATOM      1  C   UNN dAMED       3.524   1.851   0.114  0.00  0.00     0.036 C 
ENDROOT
BRANCH   1   2
ATOM      2  C   UNN dAMED       3.107   0.781   1.129  0.00  0.00     0.163 C 
BRANCH   2   3
ATOM      3  O   UNN dAMED       3.146  -0.570   0.777  0.00  0.00    -0.256 OA
BRANCH   3   4
ATOM      4  S   UNN dAMED       4.336  -0.683  -0.334  0.00  0.00     0.281 S 
ATOM      5  O   UNN dAMED       5.529  -1.116   0.371  0.00  0.00    -0.198 OA
ATOM      6  O   UNN dAMED       4.355   0.576  -1.057  0.00  0.00    -0.198 OA
ATOM      7  C   UNN dAMED       3.889  -1.972  -1.494  0.00  0.00     0.171 C 
ENDBRANCH   3   4
ENDBRANCH   2   3
ENDBRANCH   1   2
BRANCH   1   8
ATOM      8  C   UNN dAMED       3.774   3.290   0.577  0.00  0.00     0.036 C 
BRANCH   8   9
ATOM      9  C   UNN dAMED       2.688   4.355   0.390  0.00  0.00     0.163 C 
BRANCH   9  10
ATOM     10  O   UNN dAMED       2.619   5.443   1.264  0.00  0.00    -0.256 OA
BRANCH  10  11
ATOM     11  S   UNN dAMED       1.521   6.450   0.598  0.00  0.00     0.281 S 
ATOM     12  O   UNN dAMED       0.761   5.667  -0.361  0.00  0.00    -0.198 OA
ATOM     13  O   UNN dAMED       0.827   7.099   1.696  0.00  0.00    -0.198 OA
ATOM     14  C   UNN dAMED       2.409   7.712  -0.309  0.00  0.00     0.171 C 
ENDBRANCH  10  11
ENDBRANCH   9  10
ENDBRANCH   8   9
ENDBRANCH   1   8
TORSDOF 7
