REMARK WARNING: 32 MAX_TORS EXCEEDED!!!
REMARK  47 active torsions:
REMARK  status: ('A' for Active; 'I' for Inactive)
REMARK    1  A    between atoms: C_1  and  C_7 
REMARK    2  A    between atoms: C_2  and  O_33 
REMARK    3  A    between atoms: C_3  and  O_32 
REMARK    4  A    between atoms: C_4  and  N_31 
REMARK    5  A    between atoms: C_5  and  O_30 
REMARK    6  A    between atoms: C_7  and  O_8 
REMARK    7  A    between atoms: O_8  and  C_9 
REMARK    8  A    between atoms: C_11  and  C_15 
REMARK    9  A    between atoms: C_12  and  O_36 
REMARK   10  A    between atoms: C_13  and  O_35 
REMARK   11  A    between atoms: C_14  and  N_34 
REMARK   12  A    between atoms: C_15  and  O_16 
REMARK   13  A    between atoms: O_16  and  C_17 
REMARK   14  A    between atoms: C_17  and  C_50 
REMARK   15  A    between atoms: C_19  and  C_38 
REMARK   16  A    between atoms: C_20  and  O_37 
REMARK   17  A    between atoms: C_21  and  O_23 
REMARK   18  A    between atoms: O_23  and  C_24 
REMARK   19  A    between atoms: C_24  and  C_54 
REMARK   20  A    between atoms: C_26  and  C_41 
REMARK   21  A    between atoms: C_27  and  O_40 
REMARK   22  A    between atoms: C_28  and  O_39 
REMARK   23  A    between atoms: O_30  and  P_42 
REMARK       I    between atoms: N_31  and  C_62 
REMARK   24  A    between atoms: O_32  and  C_68 
REMARK       I    between atoms: N_34  and  C_72 
REMARK   25  A    between atoms: O_35  and  C_76 
REMARK   26  A    between atoms: O_36  and  P_45 
REMARK   27  A    between atoms: C_38  and  O_49 
REMARK   28  A    between atoms: C_38  and  C_47 
REMARK   29  A    between atoms: C_41  and  O_58 
REMARK   30  A    between atoms: C_41  and  C_53 
REMARK   31  A    between atoms: C_47  and  O_48 
REMARK   32  A    between atoms: C_53  and  O_57 
REMARK   33  A    between atoms: C_62  and  C_63 
REMARK   34  A    between atoms: C_63  and  C_64 
REMARK   35  A    between atoms: C_64  and  O_67 
REMARK   36  A    between atoms: O_67  and  C_86 
REMARK   37  A    between atoms: C_68  and  C_69 
REMARK   38  A    between atoms: C_69  and  C_70 
REMARK   39  A    between atoms: C_70  and  O_85 
REMARK   40  A    between atoms: C_72  and  C_73 
REMARK   41  A    between atoms: C_73  and  C_74 
REMARK   42  A    between atoms: C_74  and  O_83 
REMARK   43  A    between atoms: C_76  and  C_77 
REMARK   44  A    between atoms: C_77  and  C_78 
REMARK   45  A    between atoms: C_78  and  O_81 
REMARK   46  A    between atoms: O_81  and  C_88 
REMARK   47  A    between atoms: O_83  and  C_90 
ROOT
HETATM    1  C   LIG     1       4.020   1.831  -9.077  1.00  0.00     0.280 C 
HETATM    2  O   LIG     1       4.104   0.516  -8.334  1.00  0.00    -0.349 OA
HETATM    3  C   LIG     1       2.960   0.426  -7.362  1.00  0.00     0.180 C 
HETATM    4  C   LIG     1       1.821   1.072  -8.052  1.00  0.00     0.198 C 
HETATM    5  C   LIG     1       1.946   0.647  -9.634  1.00  0.00     0.186 C 
HETATM    6  C   LIG     1       2.767   1.840 -10.136  1.00  0.00     0.150 C 
ENDROOT
BRANCH   3   7
HETATM    7  C   LIG     1       2.411  -1.023  -6.842  1.00  0.00     0.207 C 
BRANCH   7   8
HETATM    8  O   LIG     1       0.938  -1.224  -6.452  1.00  0.00    -0.344 OA
BRANCH   8   9
HETATM    9  C   LIG     1      -0.103  -1.887  -7.466  1.00  0.00     0.258 C 
HETATM   10  O   LIG     1      -1.509  -1.822  -6.975  1.00  0.00    -0.336 OA
HETATM   11  C   LIG     1      -2.553  -1.307  -7.895  1.00  0.00     0.187 C 
HETATM   12  C   LIG     1      -2.222   0.033  -8.606  1.00  0.00     0.179 C 
HETATM   13  C   LIG     1      -1.064  -0.215  -9.580  1.00  0.00     0.162 C 
HETATM   14  C   LIG     1      -0.090  -0.880  -8.567  1.00  0.00     0.115 C 
BRANCH  11  15
HETATM   15  C   LIG     1      -3.168  -2.345  -8.871  1.00  0.00     0.173 C 
BRANCH  15  16
HETATM   16  O   LIG     1      -2.272  -3.065  -9.725  1.00  0.00    -0.391 OA
HETATM   17  H   LIG     1      -1.622  -2.455 -10.152  1.00  0.00     0.210 HD
ENDBRANCH  15  16
BRANCH  15  18
HETATM   18  C   LIG     1      -4.242  -1.688  -9.769  1.00  0.00     0.198 C 
BRANCH  18  19
HETATM   19  O   LIG     1      -4.951  -2.685 -10.514  1.00  0.00    -0.398 OA
HETATM   20  H   LIG     1      -4.210  -3.144 -10.965  1.00  0.00     0.209 HD
ENDBRANCH  18  19
ENDBRANCH  15  18
ENDBRANCH  11  15
BRANCH  12  21
HETATM   21  O   LIG     1      -3.263   0.793  -9.216  1.00  0.00    -0.390 OA
HETATM   22  H   LIG     1      -2.793   1.615  -9.476  1.00  0.00     0.210 HD
ENDBRANCH  12  21
BRANCH  13  23
HETATM   23  O   LIG     1      -1.287  -0.812 -10.891  1.00  0.00    -0.338 OA
BRANCH  23  24
HETATM   24  C   LIG     1      -1.110  -0.129 -12.210  1.00  0.00     0.259 C 
HETATM   25  O   LIG     1      -2.404   0.321 -12.634  1.00  0.00    -0.336 OA
HETATM   26  C   LIG     1      -2.662   1.680 -12.966  1.00  0.00     0.187 C 
HETATM   27  C   LIG     1      -1.493   2.605 -13.294  1.00  0.00     0.178 C 
HETATM   28  C   LIG     1      -0.183   1.923 -13.621  1.00  0.00     0.155 C 
HETATM   29  C   LIG     1       0.101   0.797 -12.603  1.00  0.00     0.115 C 
BRANCH  26  30
HETATM   30  C   LIG     1      -3.787   1.643 -14.030  1.00  0.00     0.173 C 
BRANCH  30  31
HETATM   31  O   LIG     1      -4.850   0.811 -13.497  1.00  0.00    -0.391 OA
HETATM   32  H   LIG     1      -4.363   0.119 -12.991  1.00  0.00     0.210 HD
ENDBRANCH  30  31
BRANCH  30  33
HETATM   33  C   LIG     1      -3.396   1.059 -15.399  1.00  0.00     0.198 C 
BRANCH  33  34
HETATM   34  O   LIG     1      -2.716   1.980 -16.249  1.00  0.00    -0.398 OA
HETATM   35  H   LIG     1      -1.818   2.069 -15.855  1.00  0.00     0.209 HD
ENDBRANCH  33  34
ENDBRANCH  30  33
ENDBRANCH  26  30
BRANCH  27  36
HETATM   36  O   LIG     1      -1.838   3.667 -14.198  1.00  0.00    -0.390 OA
HETATM   37  H   LIG     1      -0.994   4.025 -14.525  1.00  0.00     0.210 HD
ENDBRANCH  27  36
BRANCH  28  38
HETATM   38  O   LIG     1      -0.162   1.575 -15.006  1.00  0.00    -0.393 OA
HETATM   39  H   LIG     1      -0.304   0.588 -15.032  1.00  0.00     0.210 HD
ENDBRANCH  28  38
BRANCH  24  40
HETATM   40  C   LIG     1      -0.674  -1.245 -13.404  1.00  0.00     0.239 C 
HETATM   41  O   LIG     1      -0.276  -2.396 -13.088  1.00  0.00    -0.644 OA
HETATM   42  O   LIG     1      -0.739  -0.786 -14.605  1.00  0.00    -0.644 OA
ENDBRANCH  24  40
ENDBRANCH  23  24
ENDBRANCH  13  23
BRANCH   9  43
HETATM   43  C   LIG     1       0.406  -3.417  -7.519  1.00  0.00     0.239 C 
HETATM   44  O   LIG     1      -0.318  -4.302  -6.957  1.00  0.00    -0.644 OA
HETATM   45  O   LIG     1       1.588  -3.606  -7.984  1.00  0.00    -0.644 OA
ENDBRANCH   9  43
ENDBRANCH   8   9
ENDBRANCH   7   8
ENDBRANCH   3   7
BRANCH   4  46
HETATM   46  O   LIG     1       1.797   2.491  -7.888  1.00  0.00    -0.272 OA
BRANCH  46  47
HETATM   47  P   LIG     1       1.244   3.226  -6.547  1.00  0.00     0.422 P 
HETATM   48  O   LIG     1       2.432   3.172  -5.608  1.00  0.00    -0.617 OA
HETATM   49  O   LIG     1       0.029   2.433  -6.108  1.00  0.00    -0.617 OA
HETATM   50  O   LIG     1       0.909   4.602  -7.104  1.00  0.00    -0.617 OA
ENDBRANCH  46  47
ENDBRANCH   4  46
BRANCH   1  51
HETATM   51  O   LIG     1       5.238   2.211  -9.754  1.00  0.00    -0.357 OA
BRANCH  51  52
HETATM   52  C   LIG     1       5.156   3.628 -10.038  1.00  0.00     0.205 C 
BRANCH  52  53
HETATM   53  C   LIG     1       6.462   4.248 -10.512  1.00  0.00     0.180 C 
HETATM   54  C   LIG     1       7.160   3.412 -11.580  1.00  0.00     0.181 C 
HETATM   55  C   LIG     1       8.693   3.606 -11.487  1.00  0.00     0.190 C 
HETATM   56  C   LIG     1       9.047   5.079 -11.128  1.00  0.00     0.172 C 
HETATM   57  C   LIG     1       8.375   5.409  -9.734  1.00  0.00     0.299 C 
HETATM   58  O   LIG     1       7.357   4.433  -9.422  1.00  0.00    -0.348 OA
BRANCH  54  59
HETATM   59  O   LIG     1       6.667   3.768 -12.888  1.00  0.00    -0.390 OA
HETATM   60  H   LIG     1       6.883   4.713 -12.998  1.00  0.00     0.210 HD
ENDBRANCH  54  59
BRANCH  55  61
HETATM   61  O   LIG     1       9.280   3.095 -12.709  1.00  0.00    -0.311 OA
BRANCH  61  62
HETATM   62  C   LIG     1       9.422   1.735 -12.683  1.00  0.00     0.261 C 
HETATM   63  O   LIG     1      10.074   1.135 -11.839  1.00  0.00    -0.265 OA
BRANCH  62  64
HETATM   64  C   LIG     1       8.662   1.080 -13.816  1.00  0.00     0.142 C 
BRANCH  64  65
HETATM   65  C   LIG     1       8.499  -0.444 -13.714  1.00  0.00     0.123 C 
HETATM   66  C   LIG     1       9.792  -1.248 -13.724  1.00  0.00     0.040 C 
BRANCH  65  67
HETATM   67  O   LIG     1       7.700  -0.865 -12.616  1.00  0.00    -0.395 OA
HETATM   68  H   LIG     1       7.819  -0.265 -11.856  1.00  0.00     0.210 HD
ENDBRANCH  65  67
ENDBRANCH  64  65
ENDBRANCH  62  64
ENDBRANCH  61  62
ENDBRANCH  55  61
BRANCH  56  69
HETATM   69  N   LIG     1       8.615   6.073 -12.158  1.00  0.00    -0.349 N 
HETATM   70  C   LIG     1       9.489   6.535 -13.111  1.00  0.00     0.220 C 
HETATM   71  O   LIG     1      10.550   5.971 -13.393  1.00  0.00    -0.274 OA
HETATM   72  H   LIG     1       8.044   6.803 -11.709  1.00  0.00     0.163 HD
BRANCH  70  73
HETATM   73  C   LIG     1       9.015   7.711 -13.957  1.00  0.00     0.135 C 
BRANCH  73  74
HETATM   74  C   LIG     1       8.380   8.883 -13.206  1.00  0.00     0.136 C 
HETATM   75  C   LIG     1       8.620  10.226 -13.910  1.00  0.00     0.040 C 
BRANCH  74  76
HETATM   76  O   LIG     1       6.963   8.688 -12.974  1.00  0.00    -0.316 OA
BRANCH  76  77
HETATM   77  C   LIG     1       6.071   8.681 -13.990  1.00  0.00     0.255 C 
HETATM   78  O   LIG     1       6.334   8.685 -15.188  1.00  0.00    -0.266 OA
HETATM   79  C   LIG     1       4.671   8.680 -13.453  1.00  0.00     0.126 C 
ENDBRANCH  76  77
ENDBRANCH  74  76
ENDBRANCH  73  74
ENDBRANCH  70  73
ENDBRANCH  56  69
BRANCH  57  80
HETATM   80  O   LIG     1       7.825   6.707  -9.827  1.00  0.00    -0.249 OA
BRANCH  80  81
HETATM   81  P   LIG     1       8.320   7.856  -8.784  1.00  0.00     0.424 P 
HETATM   82  O   LIG     1       8.370   9.089  -9.678  1.00  0.00    -0.617 OA
HETATM   83  O   LIG     1       9.696   7.413  -8.310  1.00  0.00    -0.617 OA
HETATM   84  O   LIG     1       7.240   7.890  -7.726  1.00  0.00    -0.617 OA
ENDBRANCH  80  81
ENDBRANCH  57  80
ENDBRANCH  52  53
ENDBRANCH  51  52
ENDBRANCH   1  51
BRANCH   5  85
HETATM   85  O   LIG     1       2.507  -0.889 -10.157  1.00  0.00    -0.311 OA
BRANCH  85  86
HETATM   86  C   LIG     1       1.774  -2.102 -10.490  1.00  0.00     0.261 C 
HETATM   87  O   LIG     1       0.551  -2.192 -10.487  1.00  0.00    -0.265 OA
BRANCH  86  88
HETATM   88  C   LIG     1       2.478  -3.380 -11.018  1.00  0.00     0.143 C 
BRANCH  88  89
HETATM   89  C   LIG     1       2.003  -4.897 -10.645  1.00  0.00     0.137 C 
HETATM   90  C   LIG     1       0.627  -5.255 -10.039  1.00  0.00     0.040 C 
BRANCH  89  91
HETATM   91  O   LIG     1       2.083  -5.734 -11.878  1.00  0.00    -0.316 OA
BRANCH  91  92
HETATM   92  C   LIG     1       2.096  -7.095 -11.763  1.00  0.00     0.255 C 
HETATM   93  O   LIG     1       2.305  -7.762 -10.755  1.00  0.00    -0.266 OA
HETATM   94  C   LIG     1       1.738  -7.737 -13.081  1.00  0.00     0.126 C 
ENDBRANCH  91  92
ENDBRANCH  89  91
ENDBRANCH  88  89
ENDBRANCH  86  88
ENDBRANCH  85  86
ENDBRANCH   5  85
BRANCH   6  95
HETATM   95  N   LIG     1       1.929   3.284 -10.176  1.00  0.00    -0.251 NA
HETATM   96  C   LIG     1       0.531   3.532 -10.294  1.00  0.00     0.200 C 
HETATM   97  O   LIG     1      -0.317   2.679 -10.405  1.00  0.00    -0.280 OA
HETATM   98  H   LIG     1       2.200   3.806  -9.331  1.00  0.00     0.131 HD
BRANCH  96  99
HETATM   99  C   LIG     1       0.038   5.028 -10.384  1.00  0.00     0.128 C 
BRANCH  99 100
HETATM  100  C   LIG     1      -1.522   5.185 -10.649  1.00  0.00     0.136 C 
HETATM  101  C   LIG     1      -2.460   5.085  -9.447  1.00  0.00     0.040 C 
BRANCH 100 102
HETATM  102  O   LIG     1      -1.852   6.249 -11.625  1.00  0.00    -0.316 OA
BRANCH 102 103
HETATM  103  C   LIG     1      -2.860   7.129 -11.438  1.00  0.00     0.255 C 
HETATM  104  O   LIG     1      -3.233   7.621 -10.362  1.00  0.00    -0.266 OA
HETATM  105  C   LIG     1      -3.560   7.478 -12.723  1.00  0.00     0.126 C 
ENDBRANCH 102 103
ENDBRANCH 100 102
ENDBRANCH  99 100
ENDBRANCH  96  99
ENDBRANCH   6  95
TORSDOF 47
