REMARK WARNING: 32 MAX_TORS EXCEEDED!!!
REMARK  61 active torsions:
REMARK  status: ('A' for Active; 'I' for Inactive)
REMARK    1  A    between atoms: C_1  and  C_7 
REMARK    2  A    between atoms: C_2  and  O_33 
REMARK    3  A    between atoms: C_3  and  O_32 
REMARK    4  A    between atoms: C_4  and  N_31 
REMARK    5  A    between atoms: C_5  and  O_30 
REMARK    6  A    between atoms: C_7  and  O_8 
REMARK    7  A    between atoms: O_8  and  C_9 
REMARK    8  A    between atoms: C_11  and  C_15 
REMARK    9  A    between atoms: C_12  and  O_36 
REMARK   10  A    between atoms: C_13  and  O_35 
REMARK   11  A    between atoms: C_14  and  N_34 
REMARK   12  A    between atoms: C_15  and  O_16 
REMARK   13  A    between atoms: O_16  and  C_17 
REMARK   14  A    between atoms: C_17  and  C_50 
REMARK   15  A    between atoms: C_19  and  C_38 
REMARK   16  A    between atoms: C_20  and  O_37 
REMARK   17  A    between atoms: C_21  and  O_23 
REMARK   18  A    between atoms: O_23  and  C_24 
REMARK   19  A    between atoms: C_24  and  C_54 
REMARK   20  A    between atoms: C_26  and  C_41 
REMARK   21  A    between atoms: C_27  and  O_40 
REMARK   22  A    between atoms: C_28  and  O_39 
REMARK   23  A    between atoms: O_30  and  P_42 
REMARK       I    between atoms: N_31  and  C_62 
REMARK   24  A    between atoms: O_32  and  C_70 
REMARK       I    between atoms: N_34  and  C_75 
REMARK   25  A    between atoms: O_35  and  C_81 
REMARK   26  A    between atoms: O_36  and  P_45 
REMARK   27  A    between atoms: C_38  and  O_49 
REMARK   28  A    between atoms: C_38  and  C_47 
REMARK   29  A    between atoms: C_41  and  O_58 
REMARK   30  A    between atoms: C_41  and  C_53 
REMARK   31  A    between atoms: C_47  and  O_48 
REMARK   32  A    between atoms: C_53  and  O_57 
REMARK   33  A    between atoms: C_62  and  C_63 
REMARK   34  A    between atoms: C_63  and  C_64 
REMARK   35  A    between atoms: C_64  and  O_69 
REMARK   36  A    between atoms: C_64  and  C_65 
REMARK   37  A    between atoms: C_65  and  C_66 
REMARK   38  A    between atoms: O_69  and  C_93 
REMARK   39  A    between atoms: C_70  and  C_71 
REMARK   40  A    between atoms: C_71  and  C_72 
REMARK   41  A    between atoms: C_72  and  O_92 
REMARK   42  A    between atoms: C_72  and  C_73 
REMARK   43  A    between atoms: C_73  and  C_74 
REMARK   44  A    between atoms: C_75  and  C_76 
REMARK   45  A    between atoms: C_76  and  C_77 
REMARK   46  A    between atoms: C_77  and  O_90 
REMARK   47  A    between atoms: C_77  and  C_78 
REMARK   48  A    between atoms: C_78  and  C_79 
REMARK   49  A    between atoms: C_81  and  C_82 
REMARK   50  A    between atoms: C_82  and  C_83 
REMARK   51  A    between atoms: C_83  and  O_88 
REMARK   52  A    between atoms: C_83  and  C_84 
REMARK   53  A    between atoms: C_84  and  C_85 
REMARK   54  A    between atoms: O_88  and  C_96 
REMARK   55  A    between atoms: O_90  and  C_100 
REMARK   56  A    between atoms: C_93  and  C_94 
REMARK   57  A    between atoms: C_94  and  C_95 
REMARK   58  A    between atoms: C_96  and  C_97 
REMARK   59  A    between atoms: C_97  and  C_98 
REMARK   60  A    between atoms: C_100  and  C_101 
REMARK   61  A    between atoms: C_101  and  C_102 
ROOT
HETATM    1  C   LIG     1       5.566   3.284 -12.536  1.00  0.00     0.285 C 
HETATM    2  O   LIG     1       5.890   1.903 -12.541  1.00  0.00    -0.349 OA
HETATM    3  C   LIG     1       7.237   1.593 -12.083  1.00  0.00     0.180 C 
HETATM    4  C   LIG     1       7.192   1.757 -10.548  1.00  0.00     0.198 C 
HETATM    5  C   LIG     1       6.433   3.048 -10.086  1.00  0.00     0.191 C 
HETATM    6  C   LIG     1       5.962   4.013 -11.220  1.00  0.00     0.171 C 
ENDROOT
BRANCH   1   7
HETATM    7  O   LIG     1       4.118   3.452 -12.772  1.00  0.00    -0.356 OA
BRANCH   7   8
HETATM    8  C   LIG     1       3.746   2.848 -14.028  1.00  0.00     0.205 C 
BRANCH   8   9
HETATM    9  C   LIG     1       2.228   2.892 -14.479  1.00  0.00     0.180 C 
HETATM   10  C   LIG     1       2.188   2.044 -15.755  1.00  0.00     0.181 C 
HETATM   11  C   LIG     1       0.877   2.117 -16.517  1.00  0.00     0.190 C 
HETATM   12  C   LIG     1       0.116   3.441 -16.564  1.00  0.00     0.172 C 
HETATM   13  C   LIG     1       0.537   4.445 -15.440  1.00  0.00     0.299 C 
HETATM   14  O   LIG     1       1.830   4.218 -14.813  1.00  0.00    -0.348 OA
BRANCH  10  15
HETATM   15  O   LIG     1       2.496   0.657 -15.518  1.00  0.00    -0.390 OA
HETATM   16  H   LIG     1       1.928   0.335 -14.796  1.00  0.00     0.210 HD
ENDBRANCH  10  15
BRANCH  11  17
HETATM   17  O   LIG     1       1.150   1.612 -17.903  1.00  0.00    -0.311 OA
BRANCH  17  18
HETATM   18  C   LIG     1       1.959   2.332 -18.715  1.00  0.00     0.261 C 
HETATM   19  O   LIG     1       2.502   3.396 -18.460  1.00  0.00    -0.265 OA
BRANCH  18  20
HETATM   20  C   LIG     1       2.073   1.677 -20.076  1.00  0.00     0.142 C 
BRANCH  20  21
HETATM   21  C   LIG     1       2.588   0.245 -20.073  1.00  0.00     0.127 C 
BRANCH  21  22
HETATM   22  O   LIG     1       2.837  -0.135 -21.442  1.00  0.00    -0.395 OA
HETATM   23  H   LIG     1       3.577   0.420 -21.740  1.00  0.00     0.210 HD
ENDBRANCH  21  22
BRANCH  21  24
HETATM   24  C   LIG     1       1.672  -0.819 -19.451  1.00  0.00     0.032 C 
BRANCH  24  25
HETATM   25  C   LIG     1       0.244  -0.823 -20.004  1.00  0.00    -0.002 C 
HETATM   26  C   LIG     1      -0.649  -1.774 -19.224  1.00  0.00     0.005 C 
ENDBRANCH  24  25
ENDBRANCH  21  24
ENDBRANCH  20  21
ENDBRANCH  18  20
ENDBRANCH  17  18
ENDBRANCH  11  17
BRANCH  12  27
HETATM   27  N   LIG     1      -1.360   3.230 -16.638  1.00  0.00    -0.349 N 
HETATM   28  C   LIG     1      -1.989   2.591 -17.666  1.00  0.00     0.220 C 
HETATM   29  O   LIG     1      -1.409   1.985 -18.568  1.00  0.00    -0.274 OA
HETATM   30  H   LIG     1      -1.841   4.110 -16.357  1.00  0.00     0.163 HD
BRANCH  28  31
HETATM   31  C   LIG     1      -3.495   2.746 -17.758  1.00  0.00     0.135 C 
BRANCH  31  32
HETATM   32  C   LIG     1      -4.314   2.886 -16.472  1.00  0.00     0.140 C 
BRANCH  32  33
HETATM   33  O   LIG     1      -4.301   1.589 -15.796  1.00  0.00    -0.316 OA
BRANCH  33  34
HETATM   34  C   LIG     1      -3.535   1.314 -14.705  1.00  0.00     0.259 C 
HETATM   35  O   LIG     1      -2.977   0.232 -14.611  1.00  0.00    -0.265 OA
BRANCH  34  36
HETATM   36  C   LIG     1      -3.662   2.309 -13.556  1.00  0.00     0.111 C 
BRANCH  36  37
HETATM   37  C   LIG     1      -2.725   1.959 -12.393  1.00  0.00     0.005 C 
HETATM   38  C   LIG     1      -3.210   2.521 -11.064  1.00  0.00     0.005 C 
ENDBRANCH  36  37
ENDBRANCH  34  36
ENDBRANCH  33  34
ENDBRANCH  32  33
BRANCH  32  39
HETATM   39  C   LIG     1      -5.811   3.119 -16.807  1.00  0.00     0.033 C 
BRANCH  39  40
HETATM   40  C   LIG     1      -6.169   4.232 -17.797  1.00  0.00    -0.002 C 
HETATM   41  C   LIG     1      -5.743   5.618 -17.352  1.00  0.00     0.005 C 
ENDBRANCH  39  40
ENDBRANCH  32  39
ENDBRANCH  31  32
ENDBRANCH  28  31
ENDBRANCH  12  27
BRANCH  13  42
HETATM   42  O   LIG     1      -0.504   4.716 -14.507  1.00  0.00    -0.249 OA
BRANCH  42  43
HETATM   43  P   LIG     1      -1.507   5.978 -14.871  1.00  0.00     0.424 P 
HETATM   44  O   LIG     1      -2.094   5.599 -16.230  1.00  0.00    -0.617 OA
HETATM   45  O   LIG     1      -0.638   7.218 -14.932  1.00  0.00    -0.617 OA
HETATM   46  O   LIG     1      -2.551   5.968 -13.769  1.00  0.00    -0.617 OA
ENDBRANCH  42  43
ENDBRANCH  13  42
ENDBRANCH   8   9
ENDBRANCH   7   8
ENDBRANCH   1   7
BRANCH   6  47
HETATM   47  N   LIG     1       6.924   5.116 -11.441  1.00  0.00    -0.349 N 
HETATM   48  C   LIG     1       6.737   6.379 -11.919  1.00  0.00     0.220 C 
HETATM   49  O   LIG     1       7.665   7.179 -12.067  1.00  0.00    -0.274 OA
HETATM   50  H   LIG     1       7.916   4.840 -11.228  1.00  0.00     0.163 HD
BRANCH  48  51
HETATM   51  C   LIG     1       5.332   6.854 -12.216  1.00  0.00     0.135 C 
BRANCH  51  52
HETATM   52  C   LIG     1       4.950   6.747 -13.692  1.00  0.00     0.140 C 
BRANCH  52  53
HETATM   53  O   LIG     1       5.674   7.714 -14.485  1.00  0.00    -0.316 OA
BRANCH  53  54
HETATM   54  C   LIG     1       6.680   7.229 -15.266  1.00  0.00     0.259 C 
HETATM   55  O   LIG     1       7.145   6.101 -15.238  1.00  0.00    -0.265 OA
BRANCH  54  56
HETATM   56  C   LIG     1       7.106   8.266 -16.286  1.00  0.00     0.111 C 
BRANCH  56  57
HETATM   57  C   LIG     1       5.889   8.745 -17.068  1.00  0.00     0.005 C 
HETATM   58  C   LIG     1       6.198   9.498 -18.346  1.00  0.00     0.005 C 
ENDBRANCH  56  57
ENDBRANCH  54  56
ENDBRANCH  53  54
ENDBRANCH  52  53
BRANCH  52  59
HETATM   59  C   LIG     1       3.454   7.086 -13.805  1.00  0.00     0.033 C 
BRANCH  59  60
HETATM   60  C   LIG     1       2.882   6.966 -15.213  1.00  0.00    -0.002 C 
HETATM   61  C   LIG     1       2.767   8.250 -16.010  1.00  0.00     0.005 C 
ENDBRANCH  59  60
ENDBRANCH  52  59
ENDBRANCH  51  52
ENDBRANCH  48  51
ENDBRANCH   6  47
BRANCH   3  62
HETATM   62  C   LIG     1       7.447   0.127 -12.590  1.00  0.00     0.207 C 
BRANCH  62  63
HETATM   63  O   LIG     1       8.762  -0.451 -12.581  1.00  0.00    -0.344 OA
BRANCH  63  64
HETATM   64  C   LIG     1       8.762  -1.913 -12.523  1.00  0.00     0.258 C 
HETATM   65  O   LIG     1      10.023  -2.510 -12.929  1.00  0.00    -0.336 OA
HETATM   66  C   LIG     1      11.204  -2.104 -12.237  1.00  0.00     0.187 C 
HETATM   67  C   LIG     1      10.944  -1.544 -10.836  1.00  0.00     0.179 C 
HETATM   68  C   LIG     1       9.671  -2.053 -10.111  1.00  0.00     0.162 C 
HETATM   69  C   LIG     1       8.515  -2.353 -11.080  1.00  0.00     0.115 C 
BRANCH  66  70
HETATM   70  C   LIG     1      12.221  -3.261 -12.410  1.00  0.00     0.173 C 
BRANCH  70  71
HETATM   71  O   LIG     1      11.805  -4.510 -11.819  1.00  0.00    -0.391 OA
HETATM   72  H   LIG     1      10.830  -4.438 -11.719  1.00  0.00     0.210 HD
ENDBRANCH  70  71
BRANCH  70  73
HETATM   73  C   LIG     1      13.650  -2.988 -11.930  1.00  0.00     0.198 C 
BRANCH  73  74
HETATM   74  O   LIG     1      14.504  -4.069 -12.379  1.00  0.00    -0.398 OA
HETATM   75  H   LIG     1      13.942  -4.851 -12.194  1.00  0.00     0.209 HD
ENDBRANCH  73  74
ENDBRANCH  70  73
ENDBRANCH  66  70
BRANCH  67  76
HETATM   76  O   LIG     1      12.107  -1.477  -9.999  1.00  0.00    -0.390 OA
HETATM   77  H   LIG     1      11.989  -0.623  -9.530  1.00  0.00     0.210 HD
ENDBRANCH  67  76
BRANCH  68  78
HETATM   78  O   LIG     1       9.905  -3.153  -9.177  1.00  0.00    -0.338 OA
BRANCH  78  79
HETATM   79  C   LIG     1       8.797  -3.508  -8.251  1.00  0.00     0.259 C 
HETATM   80  O   LIG     1       9.417  -4.066  -7.029  1.00  0.00    -0.336 OA
HETATM   81  C   LIG     1       8.561  -4.300  -5.889  1.00  0.00     0.187 C 
HETATM   82  C   LIG     1       7.807  -3.015  -5.481  1.00  0.00     0.178 C 
HETATM   83  C   LIG     1       7.102  -2.357  -6.656  1.00  0.00     0.155 C 
HETATM   84  C   LIG     1       8.015  -2.240  -7.849  1.00  0.00     0.115 C 
BRANCH  81  85
HETATM   85  C   LIG     1       7.679  -5.592  -5.907  1.00  0.00     0.173 C 
BRANCH  85  86
HETATM   86  O   LIG     1       7.025  -5.814  -4.628  1.00  0.00    -0.391 OA
HETATM   87  H   LIG     1       6.785  -4.920  -4.311  1.00  0.00     0.210 HD
ENDBRANCH  85  86
BRANCH  85  88
HETATM   88  C   LIG     1       8.462  -6.868  -6.241  1.00  0.00     0.198 C 
BRANCH  88  89
HETATM   89  O   LIG     1       9.402  -7.224  -5.210  1.00  0.00    -0.398 OA
HETATM   90  H   LIG     1      10.240  -7.348  -5.686  1.00  0.00     0.209 HD
ENDBRANCH  88  89
ENDBRANCH  85  88
ENDBRANCH  81  85
BRANCH  82  91
HETATM   91  O   LIG     1       6.821  -3.242  -4.449  1.00  0.00    -0.390 OA
HETATM   92  H   LIG     1       5.973  -3.164  -4.952  1.00  0.00     0.210 HD
ENDBRANCH  82  91
BRANCH  83  93
HETATM   93  O   LIG     1       5.864  -3.042  -6.890  1.00  0.00    -0.393 OA
HETATM   94  H   LIG     1       5.972  -3.562  -7.736  1.00  0.00     0.210 HD
ENDBRANCH  83  93
BRANCH  79  95
HETATM   95  C   LIG     1       7.910  -4.691  -8.906  1.00  0.00     0.239 C 
HETATM   96  O   LIG     1       8.525  -5.726  -9.307  1.00  0.00    -0.644 OA
HETATM   97  O   LIG     1       6.651  -4.554  -8.760  1.00  0.00    -0.644 OA
ENDBRANCH  79  95
ENDBRANCH  78  79
ENDBRANCH  68  78
BRANCH  64  98
HETATM   98  C   LIG     1       7.630  -2.558 -13.520  1.00  0.00     0.239 C 
HETATM   99  O   LIG     1       7.970  -2.728 -14.738  1.00  0.00    -0.644 OA
HETATM  100  O   LIG     1       6.510  -2.844 -12.994  1.00  0.00    -0.644 OA
ENDBRANCH  64  98
ENDBRANCH  63  64
ENDBRANCH  62  63
ENDBRANCH   3  62
BRANCH   5 101
HETATM  101  O   LIG     1       5.171   2.718  -9.380  1.00  0.00    -0.311 OA
BRANCH 101 102
HETATM  102  C   LIG     1       5.051   3.208  -8.124  1.00  0.00     0.261 C 
HETATM  103  O   LIG     1       5.931   3.240  -7.270  1.00  0.00    -0.265 OA
BRANCH 102 104
HETATM  104  C   LIG     1       3.746   3.918  -7.878  1.00  0.00     0.143 C 
BRANCH 104 105
HETATM  105  C   LIG     1       2.505   3.544  -8.688  1.00  0.00     0.141 C 
BRANCH 105 106
HETATM  106  O   LIG     1       1.577   4.630  -8.334  1.00  0.00    -0.316 OA
BRANCH 106 107
HETATM  107  C   LIG     1       0.677   5.012  -9.279  1.00  0.00     0.259 C 
HETATM  108  O   LIG     1       0.186   4.241 -10.130  1.00  0.00    -0.265 OA
BRANCH 107 109
HETATM  109  C   LIG     1       0.375   6.476  -9.110  1.00  0.00     0.111 C 
BRANCH 109 110
HETATM  110  C   LIG     1       0.578   7.239 -10.418  1.00  0.00     0.005 C 
HETATM  111  C   LIG     1       0.645   8.741 -10.188  1.00  0.00     0.005 C 
ENDBRANCH 109 110
ENDBRANCH 107 109
ENDBRANCH 106 107
ENDBRANCH 105 106
BRANCH 105 112
HETATM  112  C   LIG     1       1.913   2.162  -8.429  1.00  0.00     0.033 C 
BRANCH 112 113
HETATM  113  C   LIG     1       1.097   1.947  -7.149  1.00  0.00    -0.002 C 
HETATM  114  C   LIG     1       1.925   1.644  -5.910  1.00  0.00     0.005 C 
ENDBRANCH 112 113
ENDBRANCH 105 112
ENDBRANCH 104 105
ENDBRANCH 102 104
ENDBRANCH 101 102
ENDBRANCH   5 101
BRANCH   4 115
HETATM  115  O   LIG     1       8.451   1.610  -9.895  1.00  0.00    -0.272 OA
BRANCH 115 116
HETATM  116  P   LIG     1       9.680   2.669 -10.143  1.00  0.00     0.422 P 
HETATM  117  O   LIG     1      10.328   2.785  -8.770  1.00  0.00    -0.617 OA
HETATM  118  O   LIG     1       9.020   3.940 -10.638  1.00  0.00    -0.617 OA
HETATM  119  O   LIG     1      10.565   1.993 -11.172  1.00  0.00    -0.617 OA
ENDBRANCH 115 116
ENDBRANCH   4 115
TORSDOF 61
