REMARK  30 active torsions:
REMARK  status: ('A' for Active; 'I' for Inactive)
REMARK    1  A    between atoms: C_1  and  C_7 
REMARK    2  A    between atoms: C_2  and  O_33 
REMARK    3  A    between atoms: C_3  and  O_32 
REMARK    4  A    between atoms: C_4  and  N_31 
REMARK    5  A    between atoms: C_5  and  O_30 
REMARK    6  A    between atoms: C_7  and  O_8 
REMARK    7  A    between atoms: O_8  and  C_9 
REMARK    8  A    between atoms: C_11  and  C_15 
REMARK    9  A    between atoms: C_12  and  O_36 
REMARK   10  A    between atoms: C_13  and  O_35 
REMARK   11  A    between atoms: C_14  and  N_34 
REMARK   12  A    between atoms: C_15  and  O_16 
REMARK   13  A    between atoms: O_16  and  C_17 
REMARK   14  A    between atoms: C_17  and  C_50 
REMARK   15  A    between atoms: C_19  and  C_38 
REMARK   16  A    between atoms: C_20  and  O_37 
REMARK   17  A    between atoms: C_21  and  O_23 
REMARK   18  A    between atoms: O_23  and  C_24 
REMARK   19  A    between atoms: C_24  and  C_54 
REMARK   20  A    between atoms: C_26  and  C_41 
REMARK   21  A    between atoms: C_27  and  O_40 
REMARK   22  A    between atoms: C_28  and  O_39 
REMARK   23  A    between atoms: O_30  and  P_42 
REMARK   24  A    between atoms: O_36  and  P_45 
REMARK   25  A    between atoms: C_38  and  O_49 
REMARK   26  A    between atoms: C_38  and  C_47 
REMARK   27  A    between atoms: C_41  and  O_58 
REMARK   28  A    between atoms: C_41  and  C_53 
REMARK   29  A    between atoms: C_47  and  O_48 
REMARK   30  A    between atoms: C_53  and  O_57 
ROOT
HETATM    1  C   LIG     1       1.508   1.037  -3.911  1.00  0.00     0.207 C 
ENDROOT
BRANCH   1   2
HETATM    2  C   LIG     1       0.166   0.999  -4.666  1.00  0.00     0.180 C 
HETATM    3  O   LIG     1      -0.713   2.126  -4.289  1.00  0.00    -0.349 OA
HETATM    4  C   LIG     1      -1.709   1.820  -3.324  1.00  0.00     0.293 C 
HETATM    5  C   LIG     1      -2.691   0.739  -3.850  1.00  0.00     0.269 C 
HETATM    6  C   LIG     1      -2.052  -0.172  -4.893  1.00  0.00     0.185 C 
HETATM    7  C   LIG     1      -0.548  -0.371  -4.672  1.00  0.00     0.197 C 
BRANCH   4   8
HETATM    8  O   LIG     1      -2.591   2.929  -3.022  1.00  0.00    -0.356 OA
BRANCH   8   9
HETATM    9  C   LIG     1      -2.029   3.923  -2.183  1.00  0.00     0.205 C 
BRANCH   9  10
HETATM   10  C   LIG     1      -1.073   4.837  -2.953  1.00  0.00     0.179 C 
HETATM   11  C   LIG     1      -0.777   6.101  -2.142  1.00  0.00     0.180 C 
HETATM   12  C   LIG     1       0.157   6.991  -2.951  1.00  0.00     0.184 C 
HETATM   13  C   LIG     1      -0.396   7.267  -4.359  1.00  0.00     0.269 C 
HETATM   14  C   LIG     1      -0.868   5.979  -5.068  1.00  0.00     0.306 C 
HETATM   15  O   LIG     1      -1.715   5.233  -4.169  1.00  0.00    -0.348 OA
BRANCH  11  16
HETATM   16  O   LIG     1      -0.192   5.886  -0.858  1.00  0.00    -0.390 OA
HETATM   17  H   LIG     1       0.343   5.064  -0.871  1.00  0.00     0.210 HD
ENDBRANCH  11  16
BRANCH  12  18
HETATM   18  O   LIG     1       0.346   8.246  -2.250  1.00  0.00    -0.391 OA
HETATM   19  H   LIG     1       0.475   7.969  -1.316  1.00  0.00     0.210 HD
ENDBRANCH  12  18
BRANCH  13  20
HETATM   20  N   LIG     1       0.681   7.948  -5.092  1.00  0.00    -0.068 N 
HETATM   21  H   LIG     1       1.437   7.263  -5.285  1.00  0.00     0.275 HD
HETATM   22  H   LIG     1       1.064   8.825  -4.768  1.00  0.00     0.275 HD
HETATM   23  H   LIG     1       0.464   7.961  -6.138  1.00  0.00     0.275 HD
ENDBRANCH  13  20
BRANCH  14  24
HETATM   24  O   LIG     1       0.261   5.268  -5.518  1.00  0.00    -0.249 OA
BRANCH  24  25
HETATM   25  P   LIG     1       0.675   5.573  -7.088  1.00  0.00     0.424 P 
HETATM   26  O   LIG     1      -0.521   5.131  -7.880  1.00  0.00    -0.617 OA
HETATM   27  O   LIG     1       1.993   4.856  -7.248  1.00  0.00    -0.617 OA
HETATM   28  O   LIG     1       0.840   7.097  -7.090  1.00  0.00    -0.617 OA
ENDBRANCH  24  25
ENDBRANCH  14  24
ENDBRANCH   9  10
ENDBRANCH   8   9
ENDBRANCH   4   8
BRANCH   5  29
HETATM   29  N   LIG     1      -3.289   0.004  -2.720  1.00  0.00    -0.068 N 
HETATM   30  H   LIG     1      -2.548  -0.016  -1.954  1.00  0.00     0.275 HD
HETATM   31  H   LIG     1      -3.214  -1.047  -2.862  1.00  0.00     0.275 HD
HETATM   32  H   LIG     1      -4.162   0.281  -2.303  1.00  0.00     0.275 HD
ENDBRANCH   5  29
BRANCH   6  33
HETATM   33  O   LIG     1      -2.308   0.431  -6.208  1.00  0.00    -0.391 OA
HETATM   34  H   LIG     1      -1.702   1.203  -6.309  1.00  0.00     0.210 HD
ENDBRANCH   6  33
BRANCH   7  35
HETATM   35  O   LIG     1      -0.159  -1.219  -3.588  1.00  0.00    -0.272 OA
BRANCH  35  36
HETATM   36  P   LIG     1      -0.980  -1.641  -2.258  1.00  0.00     0.422 P 
HETATM   37  O   LIG     1      -1.197  -0.324  -1.521  1.00  0.00    -0.617 OA
HETATM   38  O   LIG     1      -0.145  -2.651  -1.499  1.00  0.00    -0.617 OA
HETATM   39  O   LIG     1      -2.347  -2.114  -2.734  1.00  0.00    -0.617 OA
ENDBRANCH  35  36
ENDBRANCH   7  35
ENDBRANCH   1   2
BRANCH   1  40
HETATM   40  O   LIG     1       2.594   0.281  -4.500  1.00  0.00    -0.344 OA
BRANCH  40  41
HETATM   41  C   LIG     1       3.171  -0.841  -3.711  1.00  0.00     0.258 C 
HETATM   42  O   LIG     1       4.569  -1.017  -4.144  1.00  0.00    -0.336 OA
HETATM   43  C   LIG     1       5.254  -1.964  -3.276  1.00  0.00     0.187 C 
HETATM   44  C   LIG     1       5.800  -1.113  -2.152  1.00  0.00     0.179 C 
HETATM   45  C   LIG     1       4.596  -0.465  -1.407  1.00  0.00     0.162 C 
HETATM   46  C   LIG     1       3.315  -0.309  -2.253  1.00  0.00     0.115 C 
BRANCH  43  47
HETATM   47  C   LIG     1       6.192  -2.814  -4.165  1.00  0.00     0.173 C 
BRANCH  47  48
HETATM   48  O   LIG     1       5.427  -3.821  -4.876  1.00  0.00    -0.391 OA
HETATM   49  H   LIG     1       4.465  -3.692  -4.639  1.00  0.00     0.210 HD
ENDBRANCH  47  48
BRANCH  47  50
HETATM   50  C   LIG     1       7.308  -3.583  -3.448  1.00  0.00     0.198 C 
BRANCH  50  51
HETATM   51  O   LIG     1       8.366  -2.753  -2.971  1.00  0.00    -0.398 OA
HETATM   52  H   LIG     1       7.962  -2.261  -2.222  1.00  0.00     0.209 HD
ENDBRANCH  50  51
ENDBRANCH  47  50
ENDBRANCH  43  47
BRANCH  44  53
HETATM   53  O   LIG     1       6.619  -1.852  -1.225  1.00  0.00    -0.390 OA
HETATM   54  H   LIG     1       5.996  -2.002  -0.477  1.00  0.00     0.210 HD
ENDBRANCH  44  53
BRANCH  45  55
HETATM   55  O   LIG     1       4.434  -1.121  -0.119  1.00  0.00    -0.338 OA
BRANCH  55  56
HETATM   56  C   LIG     1       3.472  -0.570   0.857  1.00  0.00     0.259 C 
HETATM   57  O   LIG     1       2.146  -0.720   0.363  1.00  0.00    -0.336 OA
HETATM   58  C   LIG     1       0.993  -0.829   1.197  1.00  0.00     0.187 C 
HETATM   59  C   LIG     1       1.207  -1.673   2.473  1.00  0.00     0.178 C 
HETATM   60  C   LIG     1       2.577  -1.480   3.117  1.00  0.00     0.155 C 
HETATM   61  C   LIG     1       3.707  -1.449   2.100  1.00  0.00     0.115 C 
BRANCH  58  62
HETATM   62  C   LIG     1       0.153   0.479   1.358  1.00  0.00     0.173 C 
BRANCH  62  63
HETATM   63  O   LIG     1      -1.214   0.228   0.930  1.00  0.00    -0.391 OA
HETATM   64  H   LIG     1      -1.129  -0.078  -0.020  1.00  0.00     0.210 HD
ENDBRANCH  62  63
BRANCH  62  65
HETATM   65  C   LIG     1       0.621   1.721   0.582  1.00  0.00     0.198 C 
BRANCH  65  66
HETATM   66  O   LIG     1       1.033   2.760   1.484  1.00  0.00    -0.398 OA
HETATM   67  H   LIG     1       1.854   2.398   1.908  1.00  0.00     0.209 HD
ENDBRANCH  65  66
ENDBRANCH  62  65
ENDBRANCH  58  62
BRANCH  59  68
HETATM   68  O   LIG     1       0.209  -1.492   3.497  1.00  0.00    -0.390 OA
HETATM   69  H   LIG     1       0.530  -0.716   3.996  1.00  0.00     0.210 HD
ENDBRANCH  59  68
BRANCH  60  70
HETATM   70  O   LIG     1       2.561  -0.357   4.014  1.00  0.00    -0.393 OA
HETATM   71  H   LIG     1       2.715   0.450   3.453  1.00  0.00     0.210 HD
ENDBRANCH  60  70
BRANCH  56  72
HETATM   72  C   LIG     1       3.767   0.944   1.302  1.00  0.00     0.239 C 
HETATM   73  O   LIG     1       3.065   1.352   2.298  1.00  0.00    -0.644 OA
HETATM   74  O   LIG     1       4.646   1.613   0.713  1.00  0.00    -0.644 OA
ENDBRANCH  56  72
ENDBRANCH  55  56
ENDBRANCH  45  55
BRANCH  41  75
HETATM   75  C   LIG     1       2.473  -2.257  -4.332  1.00  0.00     0.239 C 
HETATM   76  O   LIG     1       2.875  -3.355  -3.800  1.00  0.00    -0.644 OA
HETATM   77  O   LIG     1       1.921  -2.157  -5.478  1.00  0.00    -0.644 OA
ENDBRANCH  41  75
ENDBRANCH  40  41
ENDBRANCH   1  40
TORSDOF 30
