REMARK WARNING: 32 MAX_TORS EXCEEDED!!!
REMARK  38 active torsions:
REMARK  status: ('A' for Active; 'I' for Inactive)
REMARK    1  A    between atoms: C_1  and  C_7 
REMARK    2  A    between atoms: C_2  and  O_33 
REMARK    3  A    between atoms: C_3  and  O_32 
REMARK    4  A    between atoms: C_4  and  N_31 
REMARK    5  A    between atoms: C_5  and  O_30 
REMARK    6  A    between atoms: C_7  and  O_8 
REMARK    7  A    between atoms: O_8  and  C_9 
REMARK    8  A    between atoms: C_11  and  C_15 
REMARK    9  A    between atoms: C_12  and  O_36 
REMARK   10  A    between atoms: C_13  and  O_35 
REMARK   11  A    between atoms: C_14  and  N_34 
REMARK   12  A    between atoms: C_15  and  O_16 
REMARK   13  A    between atoms: O_16  and  C_17 
REMARK   14  A    between atoms: C_17  and  C_50 
REMARK   15  A    between atoms: C_19  and  C_38 
REMARK   16  A    between atoms: C_20  and  O_37 
REMARK   17  A    between atoms: C_21  and  O_23 
REMARK   18  A    between atoms: O_23  and  C_24 
REMARK   19  A    between atoms: C_24  and  C_54 
REMARK   20  A    between atoms: C_26  and  C_41 
REMARK   21  A    between atoms: C_27  and  O_40 
REMARK   22  A    between atoms: C_28  and  O_39 
REMARK   23  A    between atoms: O_30  and  P_42 
REMARK   24  A    between atoms: O_36  and  P_45 
REMARK   25  A    between atoms: O_37  and  C_62 
REMARK   26  A    between atoms: C_38  and  O_49 
REMARK   27  A    between atoms: C_38  and  C_47 
REMARK   28  A    between atoms: C_41  and  O_58 
REMARK   29  A    between atoms: C_41  and  C_53 
REMARK   30  A    between atoms: C_47  and  O_48 
REMARK   31  A    between atoms: C_53  and  O_57 
REMARK   32  A    between atoms: C_64  and  C_68 
REMARK   33  A    between atoms: C_65  and  O_69 
REMARK   34  A    between atoms: C_66  and  O_70 
REMARK   35  A    between atoms: C_67  and  O_71 
REMARK   36  A    between atoms: C_68  and  C_72 
REMARK   37  A    between atoms: C_68  and  O_73 
REMARK   38  A    between atoms: C_72  and  O_74 
ROOT
HETATM    1  C   LIG     1       4.558   0.368  -4.565  1.00  0.00     0.258 C 
HETATM    2  O   LIG     1       5.131  -0.442  -5.587  1.00  0.00    -0.336 OA
HETATM    3  C   LIG     1       5.300  -1.855  -5.408  1.00  0.00     0.188 C 
HETATM    4  C   LIG     1       5.655  -2.343  -3.914  1.00  0.00     0.185 C 
HETATM    5  C   LIG     1       5.224  -1.422  -2.712  1.00  0.00     0.163 C 
HETATM    6  C   LIG     1       5.046   0.026  -3.169  1.00  0.00     0.115 C 
ENDROOT
BRANCH   1   7
HETATM    7  O   LIG     1       4.992   1.756  -4.783  1.00  0.00    -0.344 OA
BRANCH   7   8
HETATM    8  C   LIG     1       6.368   1.926  -5.144  1.00  0.00     0.207 C 
BRANCH   8   9
HETATM    9  C   LIG     1       6.797   3.345  -4.753  1.00  0.00     0.180 C 
HETATM   10  O   LIG     1       6.618   3.585  -3.302  1.00  0.00    -0.349 OA
HETATM   11  C   LIG     1       7.440   4.668  -2.835  1.00  0.00     0.293 C 
HETATM   12  C   LIG     1       8.963   4.271  -2.887  1.00  0.00     0.269 C 
HETATM   13  C   LIG     1       9.234   3.306  -4.049  1.00  0.00     0.185 C 
HETATM   14  C   LIG     1       8.234   3.691  -5.147  1.00  0.00     0.197 C 
BRANCH  11  15
HETATM   15  O   LIG     1       6.976   5.325  -1.652  1.00  0.00    -0.356 OA
BRANCH  15  16
HETATM   16  C   LIG     1       7.237   4.857  -0.335  1.00  0.00     0.205 C 
BRANCH  16  17
HETATM   17  C   LIG     1       6.348   3.734   0.223  1.00  0.00     0.179 C 
HETATM   18  C   LIG     1       6.788   2.382  -0.327  1.00  0.00     0.180 C 
HETATM   19  C   LIG     1       5.838   1.282   0.126  1.00  0.00     0.184 C 
HETATM   20  C   LIG     1       4.419   1.725  -0.287  1.00  0.00     0.269 C 
HETATM   21  C   LIG     1       4.074   2.981   0.536  1.00  0.00     0.306 C 
HETATM   22  O   LIG     1       4.953   4.032   0.014  1.00  0.00    -0.348 OA
BRANCH  18  23
HETATM   23  O   LIG     1       8.146   2.079   0.040  1.00  0.00    -0.390 OA
HETATM   24  H   LIG     1       8.150   1.145   0.335  1.00  0.00     0.210 HD
ENDBRANCH  18  23
BRANCH  19  25
HETATM   25  O   LIG     1       6.302   0.054  -0.429  1.00  0.00    -0.391 OA
HETATM   26  H   LIG     1       6.892   0.256  -1.188  1.00  0.00     0.210 HD
ENDBRANCH  19  25
BRANCH  20  27
HETATM   27  N   LIG     1       3.410   0.660  -0.313  1.00  0.00    -0.068 N 
HETATM   28  H   LIG     1       3.794  -0.255  -0.574  1.00  0.00     0.275 HD
HETATM   29  H   LIG     1       2.647   0.823  -0.986  1.00  0.00     0.275 HD
HETATM   30  H   LIG     1       2.949   0.603   0.644  1.00  0.00     0.275 HD
ENDBRANCH  20  27
BRANCH  21  31
HETATM   31  O   LIG     1       4.267   2.896   1.930  1.00  0.00    -0.249 OA
BRANCH  31  32
HETATM   32  P   LIG     1       3.576   1.707   2.798  1.00  0.00     0.424 P 
HETATM   33  O   LIG     1       2.965   2.416   3.981  1.00  0.00    -0.617 OA
HETATM   34  O   LIG     1       4.738   0.788   3.120  1.00  0.00    -0.617 OA
HETATM   35  O   LIG     1       2.598   1.048   1.844  1.00  0.00    -0.617 OA
ENDBRANCH  31  32
ENDBRANCH  21  31
ENDBRANCH  16  17
ENDBRANCH  15  16
ENDBRANCH  11  15
BRANCH  12  36
HETATM   36  N   LIG     1       9.821   5.487  -3.152  1.00  0.00    -0.068 N 
HETATM   37  H   LIG     1       9.889   5.646  -4.210  1.00  0.00     0.275 HD
HETATM   38  H   LIG     1      10.798   5.303  -2.929  1.00  0.00     0.275 HD
HETATM   39  H   LIG     1       9.479   6.341  -2.698  1.00  0.00     0.275 HD
ENDBRANCH  12  36
BRANCH  13  40
HETATM   40  O   LIG     1       9.169   1.928  -3.676  1.00  0.00    -0.391 OA
HETATM   41  H   LIG     1       9.381   1.458  -4.513  1.00  0.00     0.210 HD
ENDBRANCH  13  40
BRANCH  14  42
HETATM   42  O   LIG     1       8.757   3.321  -6.391  1.00  0.00    -0.272 OA
BRANCH  42  43
HETATM   43  P   LIG     1       9.654   4.569  -7.013  1.00  0.00     0.422 P 
HETATM   44  O   LIG     1      10.389   5.124  -5.763  1.00  0.00    -0.617 OA
HETATM   45  O   LIG     1       8.593   5.546  -7.483  1.00  0.00    -0.617 OA
HETATM   46  O   LIG     1      10.514   3.919  -8.067  1.00  0.00    -0.617 OA
ENDBRANCH  42  43
ENDBRANCH  14  42
ENDBRANCH   8   9
ENDBRANCH   7   8
ENDBRANCH   1   7
BRANCH   1  47
HETATM   47  C   LIG     1       2.927   0.457  -4.633  1.00  0.00     0.239 C 
HETATM   48  O   LIG     1       2.339   0.662  -3.511  1.00  0.00    -0.644 OA
HETATM   49  O   LIG     1       2.408   0.431  -5.791  1.00  0.00    -0.644 OA
ENDBRANCH   1  47
BRANCH   3  50
HETATM   50  C   LIG     1       4.447  -2.614  -6.475  1.00  0.00     0.173 C 
BRANCH  50  51
HETATM   51  O   LIG     1       5.065  -3.855  -6.889  1.00  0.00    -0.391 OA
HETATM   52  H   LIG     1       4.523  -4.579  -6.519  1.00  0.00     0.210 HD
ENDBRANCH  50  51
BRANCH  50  53
HETATM   53  C   LIG     1       4.391  -1.851  -7.834  1.00  0.00     0.198 C 
BRANCH  53  54
HETATM   54  O   LIG     1       3.963  -2.761  -8.875  1.00  0.00    -0.398 OA
HETATM   55  H   LIG     1       4.457  -3.577  -8.650  1.00  0.00     0.209 HD
ENDBRANCH  53  54
ENDBRANCH  50  53
ENDBRANCH   3  50
BRANCH   5  56
HETATM   56  O   LIG     1       4.259  -1.633  -1.630  1.00  0.00    -0.338 OA
BRANCH  56  57
HETATM   57  C   LIG     1       4.139  -2.902  -0.949  1.00  0.00     0.259 C 
HETATM   58  O   LIG     1       5.306  -3.377  -0.225  1.00  0.00    -0.336 OA
HETATM   59  C   LIG     1       5.641  -2.714   1.025  1.00  0.00     0.187 C 
HETATM   60  C   LIG     1       4.524  -1.880   1.680  1.00  0.00     0.178 C 
HETATM   61  C   LIG     1       3.134  -2.436   1.425  1.00  0.00     0.155 C 
HETATM   62  C   LIG     1       2.910  -2.944   0.005  1.00  0.00     0.115 C 
BRANCH  59  63
HETATM   63  C   LIG     1       6.288  -3.695   2.064  1.00  0.00     0.173 C 
BRANCH  63  64
HETATM   64  O   LIG     1       6.568  -4.980   1.491  1.00  0.00    -0.391 OA
HETATM   65  H   LIG     1       5.923  -5.088   0.757  1.00  0.00     0.210 HD
ENDBRANCH  63  64
BRANCH  63  66
HETATM   66  C   LIG     1       7.615  -3.113   2.618  1.00  0.00     0.198 C 
BRANCH  66  67
HETATM   67  O   LIG     1       8.061  -3.786   3.808  1.00  0.00    -0.398 OA
HETATM   68  H   LIG     1       7.316  -3.715   4.431  1.00  0.00     0.209 HD
ENDBRANCH  66  67
ENDBRANCH  63  66
ENDBRANCH  59  63
BRANCH  60  69
HETATM   69  O   LIG     1       4.711  -1.710   3.098  1.00  0.00    -0.390 OA
HETATM   70  H   LIG     1       4.665  -0.710   3.242  1.00  0.00     0.210 HD
ENDBRANCH  60  69
BRANCH  61  71
HETATM   71  O   LIG     1       2.871  -3.491   2.376  1.00  0.00    -0.393 OA
HETATM   72  H   LIG     1       3.174  -3.095   3.220  1.00  0.00     0.210 HD
ENDBRANCH  61  71
BRANCH  57  73
HETATM   73  C   LIG     1       3.534  -3.959  -1.963  1.00  0.00     0.239 C 
HETATM   74  O   LIG     1       3.640  -5.183  -1.647  1.00  0.00    -0.644 OA
HETATM   75  O   LIG     1       2.975  -3.511  -3.004  1.00  0.00    -0.644 OA
ENDBRANCH  57  73
ENDBRANCH  56  57
ENDBRANCH   5  56
BRANCH   4  76
HETATM   76  O   LIG     1       5.934  -3.679  -3.433  1.00  0.00    -0.348 OA
BRANCH  76  77
HETATM   77  C   LIG     1       6.178  -4.736  -4.345  1.00  0.00     0.292 C 
HETATM   78  O   LIG     1       7.379  -5.477  -4.066  1.00  0.00    -0.348 OA
HETATM   79  C   LIG     1       7.426  -6.198  -2.826  1.00  0.00     0.186 C 
HETATM   80  C   LIG     1       6.118  -6.881  -2.395  1.00  0.00     0.181 C 
HETATM   81  C   LIG     1       5.075  -6.912  -3.516  1.00  0.00     0.183 C 
HETATM   82  C   LIG     1       4.952  -5.665  -4.403  1.00  0.00     0.204 C 
BRANCH  79  83
HETATM   83  C   LIG     1       8.487  -7.312  -3.011  1.00  0.00     0.173 C 
BRANCH  83  84
HETATM   84  C   LIG     1       9.883  -6.794  -3.369  1.00  0.00     0.198 C 
BRANCH  84  85
HETATM   85  O   LIG     1       9.904  -6.131  -4.633  1.00  0.00    -0.398 OA
HETATM   86  H   LIG     1       9.137  -5.517  -4.633  1.00  0.00     0.209 HD
ENDBRANCH  84  85
ENDBRANCH  83  84
BRANCH  83  87
HETATM   87  O   LIG     1       8.067  -8.197  -4.070  1.00  0.00    -0.391 OA
HETATM   88  H   LIG     1       7.979  -7.616  -4.854  1.00  0.00     0.210 HD
ENDBRANCH  83  87
ENDBRANCH  79  83
BRANCH  80  89
HETATM   89  O   LIG     1       5.736  -6.352  -1.126  1.00  0.00    -0.390 OA
HETATM   90  H   LIG     1       4.887  -5.857  -1.248  1.00  0.00     0.210 HD
ENDBRANCH  80  89
BRANCH  81  91
HETATM   91  O   LIG     1       3.773  -7.329  -3.051  1.00  0.00    -0.390 OA
HETATM   92  H   LIG     1       3.479  -6.571  -2.467  1.00  0.00     0.210 HD
ENDBRANCH  81  91
BRANCH  82  93
HETATM   93  O   LIG     1       4.692  -6.147  -5.752  1.00  0.00    -0.388 OA
HETATM   94  H   LIG     1       3.861  -6.655  -5.648  1.00  0.00     0.210 HD
ENDBRANCH  82  93
ENDBRANCH  76  77
ENDBRANCH   4  76
TORSDOF 38
