REMARK WARNING: 32 MAX_TORS EXCEEDED!!!
REMARK  129 active torsions:
REMARK  status: ('A' for Active; 'I' for Inactive)
REMARK    1  A    between atoms: C_1  and  C_7 
REMARK    2  A    between atoms: C_2  and  O_33 
REMARK    3  A    between atoms: C_3  and  O_32 
REMARK    4  A    between atoms: C_4  and  N_31 
REMARK    5  A    between atoms: C_5  and  O_30 
REMARK    6  A    between atoms: C_7  and  O_8 
REMARK    7  A    between atoms: O_8  and  C_9 
REMARK    8  A    between atoms: C_11  and  C_15 
REMARK    9  A    between atoms: C_12  and  O_36 
REMARK   10  A    between atoms: C_13  and  O_35 
REMARK   11  A    between atoms: C_14  and  N_34 
REMARK   12  A    between atoms: C_15  and  O_16 
REMARK   13  A    between atoms: O_16  and  C_17 
REMARK   14  A    between atoms: C_17  and  C_50 
REMARK   15  A    between atoms: C_19  and  C_38 
REMARK   16  A    between atoms: C_20  and  O_37 
REMARK   17  A    between atoms: C_21  and  O_23 
REMARK   18  A    between atoms: O_23  and  C_24 
REMARK   19  A    between atoms: C_24  and  C_54 
REMARK   20  A    between atoms: C_26  and  C_41 
REMARK   21  A    between atoms: C_27  and  O_40 
REMARK   22  A    between atoms: C_28  and  O_39 
REMARK   23  A    between atoms: O_30  and  P_42 
REMARK       I    between atoms: N_31  and  C_62 
REMARK   24  A    between atoms: O_32  and  C_78 
REMARK       I    between atoms: N_34  and  C_92 
REMARK   25  A    between atoms: O_35  and  C_106 
REMARK   26  A    between atoms: O_36  and  P_45 
REMARK   27  A    between atoms: C_38  and  O_49 
REMARK   28  A    between atoms: C_38  and  C_47 
REMARK   29  A    between atoms: C_41  and  O_58 
REMARK   30  A    between atoms: C_41  and  C_53 
REMARK   31  A    between atoms: C_47  and  O_48 
REMARK   32  A    between atoms: C_53  and  O_57 
REMARK   33  A    between atoms: C_62  and  C_63 
REMARK   34  A    between atoms: C_63  and  C_64 
REMARK   35  A    between atoms: C_64  and  O_77 
REMARK   36  A    between atoms: C_64  and  C_65 
REMARK   37  A    between atoms: C_65  and  C_66 
REMARK   38  A    between atoms: C_66  and  C_67 
REMARK   39  A    between atoms: C_67  and  C_68 
REMARK   40  A    between atoms: C_68  and  C_69 
REMARK   41  A    between atoms: C_69  and  C_70 
REMARK   42  A    between atoms: C_70  and  C_71 
REMARK   43  A    between atoms: C_71  and  C_72 
REMARK   44  A    between atoms: C_72  and  C_73 
REMARK   45  A    between atoms: C_73  and  C_74 
REMARK   46  A    between atoms: O_77  and  C_132 
REMARK   47  A    between atoms: C_78  and  C_79 
REMARK   48  A    between atoms: C_79  and  C_80 
REMARK   49  A    between atoms: C_80  and  O_131 
REMARK   50  A    between atoms: C_80  and  C_81 
REMARK   51  A    between atoms: C_81  and  C_82 
REMARK   52  A    between atoms: C_82  and  C_83 
REMARK   53  A    between atoms: C_83  and  C_84 
REMARK   54  A    between atoms: C_84  and  C_85 
REMARK   55  A    between atoms: C_85  and  C_86 
REMARK   56  A    between atoms: C_86  and  C_87 
REMARK   57  A    between atoms: C_87  and  C_88 
REMARK   58  A    between atoms: C_88  and  C_89 
REMARK   59  A    between atoms: C_89  and  C_90 
REMARK   60  A    between atoms: C_92  and  C_93 
REMARK   61  A    between atoms: C_93  and  C_94 
REMARK   62  A    between atoms: C_94  and  O_129 
REMARK   63  A    between atoms: C_94  and  C_95 
REMARK   64  A    between atoms: C_95  and  C_96 
REMARK   65  A    between atoms: C_96  and  C_97 
REMARK   66  A    between atoms: C_97  and  C_98 
REMARK   67  A    between atoms: C_98  and  C_99 
REMARK   68  A    between atoms: C_99  and  C_100 
REMARK   69  A    between atoms: C_100  and  C_101 
REMARK   70  A    between atoms: C_101  and  C_102 
REMARK   71  A    between atoms: C_102  and  C_103 
REMARK   72  A    between atoms: C_103  and  C_104 
REMARK   73  A    between atoms: C_106  and  C_107 
REMARK   74  A    between atoms: C_107  and  C_108 
REMARK   75  A    between atoms: C_108  and  O_127 
REMARK   76  A    between atoms: C_108  and  C_109 
REMARK   77  A    between atoms: C_109  and  C_110 
REMARK   78  A    between atoms: C_110  and  C_111 
REMARK   79  A    between atoms: C_111  and  C_112 
REMARK   80  A    between atoms: C_112  and  C_113 
REMARK   81  A    between atoms: C_113  and  C_114 
REMARK   82  A    between atoms: C_114  and  C_115 
REMARK   83  A    between atoms: C_115  and  C_116 
REMARK   84  A    between atoms: C_116  and  C_117 
REMARK   85  A    between atoms: C_117  and  C_118 
REMARK   86  A    between atoms: C_118  and  C_119 
REMARK   87  A    between atoms: C_119  and  C_120 
REMARK   88  A    between atoms: C_120  and  C_121 
REMARK   89  A    between atoms: C_121  and  C_122 
REMARK   90  A    between atoms: C_122  and  C_123 
REMARK   91  A    between atoms: C_123  and  C_124 
REMARK   92  A    between atoms: O_127  and  C_148 
REMARK   93  A    between atoms: O_129  and  C_162 
REMARK   94  A    between atoms: C_132  and  C_133 
REMARK   95  A    between atoms: C_133  and  C_134 
REMARK   96  A    between atoms: C_134  and  C_135 
REMARK   97  A    between atoms: C_135  and  C_136 
REMARK   98  A    between atoms: C_136  and  C_137 
REMARK   99  A    between atoms: C_137  and  C_138 
REMARK  100  A    between atoms: C_138  and  C_139 
REMARK  101  A    between atoms: C_139  and  C_140 
REMARK  102  A    between atoms: C_140  and  C_141 
REMARK  103  A    between atoms: C_141  and  C_142 
REMARK  104  A    between atoms: C_142  and  C_143 
REMARK  105  A    between atoms: C_143  and  C_144 
REMARK  106  A    between atoms: C_144  and  C_145 
REMARK  107  A    between atoms: C_145  and  C_146 
REMARK  108  A    between atoms: C_148  and  C_149 
REMARK  109  A    between atoms: C_149  and  C_150 
REMARK  110  A    between atoms: C_150  and  C_151 
REMARK  111  A    between atoms: C_151  and  C_152 
REMARK  112  A    between atoms: C_152  and  C_153 
REMARK  113  A    between atoms: C_153  and  C_154 
REMARK  114  A    between atoms: C_154  and  C_155 
REMARK  115  A    between atoms: C_155  and  C_156 
REMARK  116  A    between atoms: C_156  and  C_157 
REMARK  117  A    between atoms: C_157  and  C_158 
REMARK  118  A    between atoms: C_158  and  C_159 
REMARK  119  A    between atoms: C_159  and  C_160 
REMARK  120  A    between atoms: C_162  and  C_163 
REMARK  121  A    between atoms: C_163  and  C_164 
REMARK  122  A    between atoms: C_164  and  C_165 
REMARK  123  A    between atoms: C_165  and  C_166 
REMARK  124  A    between atoms: C_166  and  C_167 
REMARK  125  A    between atoms: C_167  and  C_168 
REMARK  126  A    between atoms: C_168  and  C_169 
REMARK  127  A    between atoms: C_169  and  C_170 
REMARK  128  A    between atoms: C_170  and  C_171 
REMARK  129  A    between atoms: C_171  and  C_172 
ROOT
HETATM    1  C   LIG     1       6.007   3.466  -7.731  1.00  0.00     0.280 C 
HETATM    2  O   LIG     1       4.863   3.174  -6.881  1.00  0.00    -0.349 OA
HETATM    3  C   LIG     1       3.700   3.101  -7.751  1.00  0.00     0.180 C 
HETATM    4  C   LIG     1       3.959   1.916  -8.769  1.00  0.00     0.198 C 
HETATM    5  C   LIG     1       5.367   1.154  -8.743  1.00  0.00     0.186 C 
HETATM    6  C   LIG     1       6.595   2.088  -8.224  1.00  0.00     0.150 C 
ENDROOT
BRANCH   1   7
HETATM    7  O   LIG     1       6.914   4.317  -7.004  1.00  0.00    -0.357 OA
BRANCH   7   8
HETATM    8  C   LIG     1       8.004   4.898  -7.721  1.00  0.00     0.205 C 
BRANCH   8   9
HETATM    9  C   LIG     1       7.977   5.991  -8.861  1.00  0.00     0.180 C 
HETATM   10  C   LIG     1       7.385   5.769 -10.264  1.00  0.00     0.181 C 
HETATM   11  C   LIG     1       7.619   7.009 -11.164  1.00  0.00     0.190 C 
HETATM   12  C   LIG     1       7.015   8.339 -10.597  1.00  0.00     0.172 C 
HETATM   13  C   LIG     1       6.850   8.169  -8.991  1.00  0.00     0.299 C 
HETATM   14  O   LIG     1       7.960   7.377  -8.436  1.00  0.00    -0.348 OA
BRANCH  10  15
HETATM   15  O   LIG     1       6.048   5.351 -10.242  1.00  0.00    -0.390 OA
HETATM   16  H   LIG     1       5.363   6.071 -10.187  1.00  0.00     0.210 HD
ENDBRANCH  10  15
BRANCH  11  17
HETATM   17  O   LIG     1       9.094   7.039 -11.454  1.00  0.00    -0.311 OA
BRANCH  17  18
HETATM   18  C   LIG     1       9.964   7.580 -10.579  1.00  0.00     0.261 C 
HETATM   19  O   LIG     1       9.742   8.520  -9.819  1.00  0.00    -0.265 OA
BRANCH  18  20
HETATM   20  C   LIG     1      11.348   6.966 -10.595  1.00  0.00     0.142 C 
BRANCH  20  21
HETATM   21  C   LIG     1      11.488   5.467 -10.848  1.00  0.00     0.127 C 
BRANCH  21  22
HETATM   22  O   LIG     1      12.648   5.002 -10.123  1.00  0.00    -0.395 OA
HETATM   23  H   LIG     1      12.509   4.039 -10.049  1.00  0.00     0.210 HD
ENDBRANCH  21  22
BRANCH  21  24
HETATM   24  C   LIG     1      11.663   5.040 -12.313  1.00  0.00     0.032 C 
BRANCH  24  25
HETATM   25  C   LIG     1      12.743   5.768 -13.139  1.00  0.00     0.002 C 
BRANCH  25  26
HETATM   26  C   LIG     1      14.084   5.047 -13.325  1.00  0.00     0.000 C 
BRANCH  26  27
HETATM   27  C   LIG     1      15.101   5.069 -12.180  1.00  0.00     0.000 C 
BRANCH  27  28
HETATM   28  C   LIG     1      15.704   6.445 -11.848  1.00  0.00     0.000 C 
BRANCH  28  29
HETATM   29  C   LIG     1      16.939   6.273 -10.945  1.00  0.00     0.000 C 
BRANCH  29  30
HETATM   30  C   LIG     1      17.589   7.572 -10.457  1.00  0.00     0.000 C 
BRANCH  30  31
HETATM   31  C   LIG     1      18.139   8.510 -11.535  1.00  0.00     0.000 C 
BRANCH  31  32
HETATM   32  C   LIG     1      19.329   7.947 -12.319  1.00  0.00    -0.000 C 
BRANCH  32  33
HETATM   33  C   LIG     1      19.775   8.933 -13.404  1.00  0.00    -0.005 C 
HETATM   34  C   LIG     1      21.055   8.493 -14.098  1.00  0.00     0.005 C 
ENDBRANCH  32  33
ENDBRANCH  31  32
ENDBRANCH  30  31
ENDBRANCH  29  30
ENDBRANCH  28  29
ENDBRANCH  27  28
ENDBRANCH  26  27
ENDBRANCH  25  26
ENDBRANCH  24  25
ENDBRANCH  21  24
ENDBRANCH  20  21
ENDBRANCH  18  20
ENDBRANCH  17  18
ENDBRANCH  11  17
BRANCH  12  35
HETATM   35  N   LIG     1       5.838   8.850 -11.405  1.00  0.00    -0.349 N 
HETATM   36  C   LIG     1       5.701   9.942 -12.256  1.00  0.00     0.220 C 
HETATM   37  O   LIG     1       6.634  10.666 -12.612  1.00  0.00    -0.274 OA
HETATM   38  H   LIG     1       4.955   8.435 -11.054  1.00  0.00     0.163 HD
BRANCH  36  39
HETATM   39  C   LIG     1       4.284  10.053 -12.915  1.00  0.00     0.135 C 
BRANCH  39  40
HETATM   40  C   LIG     1       3.633  11.411 -13.428  1.00  0.00     0.140 C 
BRANCH  40  41
HETATM   41  O   LIG     1       3.897  12.537 -12.558  1.00  0.00    -0.316 OA
BRANCH  41  42
HETATM   42  C   LIG     1       4.831  13.437 -12.988  1.00  0.00     0.259 C 
HETATM   43  O   LIG     1       5.306  13.508 -14.119  1.00  0.00    -0.265 OA
BRANCH  42  44
HETATM   44  C   LIG     1       5.225  14.439 -11.920  1.00  0.00     0.111 C 
BRANCH  44  45
HETATM   45  C   LIG     1       4.680  15.865 -12.103  1.00  0.00     0.010 C 
BRANCH  45  46
HETATM   46  C   LIG     1       5.315  16.762 -13.200  1.00  0.00     0.000 C 
BRANCH  46  47
HETATM   47  C   LIG     1       4.882  18.230 -12.971  1.00  0.00     0.000 C 
BRANCH  47  48
HETATM   48  C   LIG     1       5.319  19.327 -13.956  1.00  0.00     0.000 C 
BRANCH  48  49
HETATM   49  C   LIG     1       5.175  19.133 -15.468  1.00  0.00     0.000 C 
BRANCH  49  50
HETATM   50  C   LIG     1       3.752  19.196 -16.041  1.00  0.00     0.000 C 
BRANCH  50  51
HETATM   51  C   LIG     1       2.927  17.927 -15.866  1.00  0.00     0.000 C 
BRANCH  51  52
HETATM   52  C   LIG     1       3.505  16.728 -16.631  1.00  0.00     0.000 C 
BRANCH  52  53
HETATM   53  C   LIG     1       2.848  15.446 -16.149  1.00  0.00     0.000 C 
BRANCH  53  54
HETATM   54  C   LIG     1       3.623  14.167 -16.481  1.00  0.00     0.000 C 
BRANCH  54  55
HETATM   55  C   LIG     1       3.338  13.570 -17.854  1.00  0.00     0.000 C 
BRANCH  55  56
HETATM   56  C   LIG     1       3.989  12.190 -18.082  1.00  0.00    -0.000 C 
BRANCH  56  57
HETATM   57  C   LIG     1       3.462  11.043 -17.203  1.00  0.00    -0.005 C 
HETATM   58  C   LIG     1       2.396  10.158 -17.842  1.00  0.00     0.005 C 
ENDBRANCH  56  57
ENDBRANCH  55  56
ENDBRANCH  54  55
ENDBRANCH  53  54
ENDBRANCH  52  53
ENDBRANCH  51  52
ENDBRANCH  50  51
ENDBRANCH  49  50
ENDBRANCH  48  49
ENDBRANCH  47  48
ENDBRANCH  46  47
ENDBRANCH  45  46
ENDBRANCH  44  45
ENDBRANCH  42  44
ENDBRANCH  41  42
ENDBRANCH  40  41
BRANCH  40  59
HETATM   59  C   LIG     1       2.066  11.175 -13.659  1.00  0.00     0.033 C 
BRANCH  59  60
HETATM   60  C   LIG     1       0.952  12.268 -13.691  1.00  0.00     0.002 C 
BRANCH  60  61
HETATM   61  C   LIG     1       0.489  13.100 -14.922  1.00  0.00     0.000 C 
BRANCH  61  62
HETATM   62  C   LIG     1       0.056  12.440 -16.256  1.00  0.00     0.000 C 
BRANCH  62  63
HETATM   63  C   LIG     1      -0.458  13.470 -17.314  1.00  0.00     0.000 C 
BRANCH  63  64
HETATM   64  C   LIG     1      -0.169  13.141 -18.800  1.00  0.00     0.000 C 
BRANCH  64  65
HETATM   65  C   LIG     1      -1.296  12.525 -19.632  1.00  0.00     0.000 C 
BRANCH  65  66
HETATM   66  C   LIG     1      -1.646  11.094 -19.230  1.00  0.00     0.000 C 
BRANCH  66  67
HETATM   67  C   LIG     1      -2.667  10.471 -20.192  1.00  0.00    -0.000 C 
BRANCH  67  68
HETATM   68  C   LIG     1      -2.141   9.489 -21.250  1.00  0.00    -0.005 C 
HETATM   69  C   LIG     1      -0.764   9.761 -21.833  1.00  0.00     0.005 C 
ENDBRANCH  67  68
ENDBRANCH  66  67
ENDBRANCH  65  66
ENDBRANCH  64  65
ENDBRANCH  63  64
ENDBRANCH  62  63
ENDBRANCH  61  62
ENDBRANCH  60  61
ENDBRANCH  59  60
ENDBRANCH  40  59
ENDBRANCH  39  40
ENDBRANCH  36  39
ENDBRANCH  12  35
BRANCH  13  70
HETATM   70  O   LIG     1       5.705   7.667  -8.362  1.00  0.00    -0.249 OA
BRANCH  70  71
HETATM   71  P   LIG     1       4.239   8.058  -8.894  1.00  0.00     0.424 P 
HETATM   72  O   LIG     1       3.306   7.701  -7.756  1.00  0.00    -0.617 OA
HETATM   73  O   LIG     1       4.165   7.221 -10.156  1.00  0.00    -0.617 OA
HETATM   74  O   LIG     1       4.318   9.544  -9.205  1.00  0.00    -0.617 OA
ENDBRANCH  70  71
ENDBRANCH  13  70
ENDBRANCH   8   9
ENDBRANCH   7   8
ENDBRANCH   1   7
BRANCH   6  75
HETATM   75  N   LIG     1       7.604   2.383  -9.333  1.00  0.00    -0.251 NA
HETATM   76  C   LIG     1       8.495   1.647 -10.047  1.00  0.00     0.200 C 
HETATM   77  O   LIG     1       9.440   2.201 -10.629  1.00  0.00    -0.280 OA
HETATM   78  H   LIG     1       7.040   2.846 -10.096  1.00  0.00     0.131 HD
BRANCH  76  79
HETATM   79  C   LIG     1       8.460   0.153  -9.963  1.00  0.00     0.129 C 
BRANCH  79  80
HETATM   80  C   LIG     1       8.248  -0.636 -11.268  1.00  0.00     0.140 C 
BRANCH  80  81
HETATM   81  O   LIG     1       6.831  -0.657 -11.802  1.00  0.00    -0.316 OA
BRANCH  81  82
HETATM   82  C   LIG     1       6.269   0.009 -12.938  1.00  0.00     0.259 C 
HETATM   83  O   LIG     1       7.053   0.352 -13.848  1.00  0.00    -0.265 OA
BRANCH  82  84
HETATM   84  C   LIG     1       4.691  -0.458 -13.314  1.00  0.00     0.111 C 
BRANCH  84  85
HETATM   85  C   LIG     1       3.224   0.205 -13.533  1.00  0.00     0.010 C 
BRANCH  85  86
HETATM   86  C   LIG     1       2.017   0.726 -12.591  1.00  0.00     0.000 C 
BRANCH  86  87
HETATM   87  C   LIG     1       1.201   0.110 -11.416  1.00  0.00     0.000 C 
BRANCH  87  88
HETATM   88  C   LIG     1       1.812  -0.260 -10.066  1.00  0.00     0.000 C 
BRANCH  88  89
HETATM   89  C   LIG     1       1.361  -1.569  -9.402  1.00  0.00     0.000 C 
BRANCH  89  90
HETATM   90  C   LIG     1       2.000  -2.800 -10.030  1.00  0.00     0.000 C 
BRANCH  90  91
HETATM   91  C   LIG     1       1.686  -3.003 -11.492  1.00  0.00     0.000 C 
BRANCH  91  92
HETATM   92  C   LIG     1       0.243  -3.335 -11.803  1.00  0.00    -0.000 C 
BRANCH  92  93
HETATM   93  C   LIG     1      -0.135  -2.882 -13.212  1.00  0.00    -0.005 C 
HETATM   94  C   LIG     1      -1.439  -3.516 -13.641  1.00  0.00     0.005 C 
ENDBRANCH  92  93
ENDBRANCH  91  92
ENDBRANCH  90  91
ENDBRANCH  89  90
ENDBRANCH  88  89
ENDBRANCH  87  88
ENDBRANCH  86  87
ENDBRANCH  85  86
ENDBRANCH  84  85
ENDBRANCH  82  84
ENDBRANCH  81  82
ENDBRANCH  80  81
BRANCH  80  95
HETATM   95  C   LIG     1       8.800  -2.140 -10.939  1.00  0.00     0.033 C 
BRANCH  95  96
HETATM   96  C   LIG     1       9.069  -2.794  -9.457  1.00  0.00     0.002 C 
BRANCH  96  97
HETATM   97  C   LIG     1       7.925  -3.110  -8.440  1.00  0.00     0.000 C 
BRANCH  97  98
HETATM   98  C   LIG     1       7.987  -4.311  -7.417  1.00  0.00     0.000 C 
BRANCH  98  99
HETATM   99  C   LIG     1       8.427  -4.001  -5.970  1.00  0.00     0.000 C 
BRANCH  99 100
HETATM  100  C   LIG     1       7.724  -4.785  -4.807  1.00  0.00     0.000 C 
BRANCH 100 101
HETATM  101  C   LIG     1       7.995  -6.298  -4.692  1.00  0.00     0.000 C 
BRANCH 101 102
HETATM  102  C   LIG     1       7.926  -6.864  -3.249  1.00  0.00     0.000 C 
BRANCH 102 103
HETATM  103  C   LIG     1       6.562  -6.917  -2.540  1.00  0.00    -0.000 C 
BRANCH 103 104
HETATM  104  C   LIG     1       5.582  -7.930  -3.139  1.00  0.00    -0.005 C 
HETATM  105  C   LIG     1       4.317  -8.071  -2.297  1.00  0.00     0.005 C 
ENDBRANCH 103 104
ENDBRANCH 102 103
ENDBRANCH 101 102
ENDBRANCH 100 101
ENDBRANCH  99 100
ENDBRANCH  98  99
ENDBRANCH  97  98
ENDBRANCH  96  97
ENDBRANCH  95  96
ENDBRANCH  80  95
ENDBRANCH  79  80
ENDBRANCH  76  79
ENDBRANCH   6  75
BRANCH   3 106
HETATM  106  C   LIG     1       2.331   3.111  -6.930  1.00  0.00     0.207 C 
BRANCH 106 107
HETATM  107  O   LIG     1       1.100   3.223  -7.702  1.00  0.00    -0.344 OA
BRANCH 107 108
HETATM  108  C   LIG     1      -0.177   3.472  -7.042  1.00  0.00     0.258 C 
HETATM  109  O   LIG     1      -1.211   3.947  -7.990  1.00  0.00    -0.336 OA
HETATM  110  C   LIG     1      -1.401   3.103  -9.141  1.00  0.00     0.187 C 
HETATM  111  C   LIG     1      -1.301   1.595  -8.806  1.00  0.00     0.179 C 
HETATM  112  C   LIG     1      -1.375   1.202  -7.324  1.00  0.00     0.162 C 
HETATM  113  C   LIG     1      -0.759   2.212  -6.366  1.00  0.00     0.115 C 
BRANCH 110 114
HETATM  114  C   LIG     1      -2.646   3.454 -10.016  1.00  0.00     0.173 C 
BRANCH 114 115
HETATM  115  O   LIG     1      -3.905   3.453  -9.320  1.00  0.00    -0.391 OA
HETATM  116  H   LIG     1      -4.136   2.499  -9.232  1.00  0.00     0.210 HD
ENDBRANCH 114 115
BRANCH 114 117
HETATM  117  C   LIG     1      -2.522   4.787 -10.780  1.00  0.00     0.198 C 
BRANCH 117 118
HETATM  118  O   LIG     1      -3.602   4.910 -11.751  1.00  0.00    -0.398 OA
HETATM  119  H   LIG     1      -3.867   3.999 -11.957  1.00  0.00     0.209 HD
ENDBRANCH 117 118
ENDBRANCH 114 117
ENDBRANCH 110 114
BRANCH 111 120
HETATM  120  O   LIG     1      -1.941   0.670  -9.693  1.00  0.00    -0.390 OA
HETATM  121  H   LIG     1      -2.895   0.628  -9.425  1.00  0.00     0.210 HD
ENDBRANCH 111 120
BRANCH 112 122
HETATM  122  O   LIG     1      -2.496   0.476  -6.805  1.00  0.00    -0.338 OA
BRANCH 122 123
HETATM  123  C   LIG     1      -3.842   0.912  -6.582  1.00  0.00     0.259 C 
HETATM  124  O   LIG     1      -4.382  -0.168  -5.817  1.00  0.00    -0.336 OA
HETATM  125  C   LIG     1      -4.729  -0.001  -4.461  1.00  0.00     0.187 C 
HETATM  126  C   LIG     1      -3.883   1.068  -3.783  1.00  0.00     0.178 C 
HETATM  127  C   LIG     1      -4.015   2.414  -4.477  1.00  0.00     0.155 C 
HETATM  128  C   LIG     1      -4.120   2.312  -6.001  1.00  0.00     0.115 C 
BRANCH 125 129
HETATM  129  C   LIG     1      -6.264   0.021  -4.397  1.00  0.00     0.173 C 
BRANCH 129 130
HETATM  130  O   LIG     1      -6.843   1.018  -5.234  1.00  0.00    -0.391 OA
HETATM  131  H   LIG     1      -6.532   0.827  -6.168  1.00  0.00     0.210 HD
ENDBRANCH 129 130
BRANCH 129 132
HETATM  132  C   LIG     1      -6.852   0.170  -2.993  1.00  0.00     0.198 C 
BRANCH 132 133
HETATM  133  O   LIG     1      -8.275  -0.026  -3.054  1.00  0.00    -0.398 OA
HETATM  134  H   LIG     1      -8.517   0.481  -3.861  1.00  0.00     0.209 HD
ENDBRANCH 132 133
ENDBRANCH 129 132
ENDBRANCH 125 129
BRANCH 126 135
HETATM  135  O   LIG     1      -4.168   1.180  -2.376  1.00  0.00    -0.390 OA
HETATM  136  H   LIG     1      -3.755   0.406  -1.959  1.00  0.00     0.210 HD
ENDBRANCH 126 135
BRANCH 127 137
HETATM  137  O   LIG     1      -5.134   3.128  -3.914  1.00  0.00    -0.393 OA
HETATM  138  H   LIG     1      -5.004   3.052  -2.949  1.00  0.00     0.210 HD
ENDBRANCH 127 137
BRANCH 123 139
HETATM  139  C   LIG     1      -4.784   0.778  -7.826  1.00  0.00     0.239 C 
HETATM  140  O   LIG     1      -5.985   0.445  -7.545  1.00  0.00    -0.644 OA
HETATM  141  O   LIG     1      -4.296   0.951  -8.971  1.00  0.00    -0.644 OA
ENDBRANCH 123 139
ENDBRANCH 122 123
ENDBRANCH 112 122
BRANCH 108 142
HETATM  142  C   LIG     1      -0.127   4.436  -5.725  1.00  0.00     0.239 C 
HETATM  143  O   LIG     1       0.534   3.971  -4.729  1.00  0.00    -0.644 OA
HETATM  144  O   LIG     1      -0.953   5.403  -5.682  1.00  0.00    -0.644 OA
ENDBRANCH 108 142
ENDBRANCH 107 108
ENDBRANCH 106 107
ENDBRANCH   3 106
BRANCH   5 145
HETATM  145  O   LIG     1       5.680  -0.326  -8.849  1.00  0.00    -0.311 OA
BRANCH 145 146
HETATM  146  C   LIG     1       5.059  -1.560  -8.986  1.00  0.00     0.261 C 
HETATM  147  O   LIG     1       4.600  -2.171  -8.022  1.00  0.00    -0.265 OA
BRANCH 146 148
HETATM  148  C   LIG     1       5.433  -2.274 -10.347  1.00  0.00     0.143 C 
BRANCH 148 149
HETATM  149  C   LIG     1       5.479  -3.699 -11.078  1.00  0.00     0.141 C 
BRANCH 149 150
HETATM  150  O   LIG     1       4.501  -3.730 -12.156  1.00  0.00    -0.316 OA
BRANCH 150 151
HETATM  151  C   LIG     1       4.828  -3.726 -13.498  1.00  0.00     0.259 C 
HETATM  152  O   LIG     1       5.894  -4.072 -13.991  1.00  0.00    -0.265 OA
BRANCH 151 153
HETATM  153  C   LIG     1       3.534  -3.473 -14.268  1.00  0.00     0.111 C 
BRANCH 153 154
HETATM  154  C   LIG     1       3.530  -2.884 -15.682  1.00  0.00     0.010 C 
BRANCH 154 155
HETATM  155  C   LIG     1       2.712  -3.746 -16.648  1.00  0.00     0.000 C 
BRANCH 155 156
HETATM  156  C   LIG     1       1.810  -2.992 -17.642  1.00  0.00     0.000 C 
BRANCH 156 157
HETATM  157  C   LIG     1       2.435  -1.822 -18.411  1.00  0.00     0.000 C 
BRANCH 157 158
HETATM  158  C   LIG     1       2.194  -1.838 -19.929  1.00  0.00     0.000 C 
BRANCH 158 159
HETATM  159  C   LIG     1       2.558  -3.104 -20.722  1.00  0.00     0.000 C 
BRANCH 159 160
HETATM  160  C   LIG     1       4.047  -3.458 -20.824  1.00  0.00     0.000 C 
BRANCH 160 161
HETATM  161  C   LIG     1       4.640  -3.983 -19.522  1.00  0.00     0.000 C 
BRANCH 161 162
HETATM  162  C   LIG     1       6.092  -4.434 -19.610  1.00  0.00     0.000 C 
BRANCH 162 163
HETATM  163  C   LIG     1       6.244  -5.815 -20.240  1.00  0.00    -0.000 C 
BRANCH 163 164
HETATM  164  C   LIG     1       7.674  -6.345 -20.127  1.00  0.00    -0.005 C 
HETATM  165  C   LIG     1       8.672  -5.540 -20.945  1.00  0.00     0.005 C 
ENDBRANCH 163 164
ENDBRANCH 162 163
ENDBRANCH 161 162
ENDBRANCH 160 161
ENDBRANCH 159 160
ENDBRANCH 158 159
ENDBRANCH 157 158
ENDBRANCH 156 157
ENDBRANCH 155 156
ENDBRANCH 154 155
ENDBRANCH 153 154
ENDBRANCH 151 153
ENDBRANCH 150 151
ENDBRANCH 149 150
BRANCH 149 166
HETATM  166  C   LIG     1       5.412  -4.988 -10.234  1.00  0.00     0.033 C 
BRANCH 166 167
HETATM  167  C   LIG     1       4.843  -6.278 -10.865  1.00  0.00     0.002 C 
BRANCH 167 168
HETATM  168  C   LIG     1       5.490  -6.901 -12.113  1.00  0.00     0.000 C 
BRANCH 168 169
HETATM  169  C   LIG     1       6.972  -7.286 -12.015  1.00  0.00     0.000 C 
BRANCH 169 170
HETATM  170  C   LIG     1       7.425  -8.196 -13.176  1.00  0.00     0.000 C 
BRANCH 170 171
HETATM  171  C   LIG     1       7.320  -7.589 -14.581  1.00  0.00     0.000 C 
BRANCH 171 172
HETATM  172  C   LIG     1       8.411  -6.580 -14.976  1.00  0.00     0.000 C 
BRANCH 172 173
HETATM  173  C   LIG     1       9.877  -7.054 -14.995  1.00  0.00     0.000 C 
BRANCH 173 174
HETATM  174  C   LIG     1      10.340  -7.859 -16.229  1.00  0.00     0.000 C 
BRANCH 174 175
HETATM  175  C   LIG     1       9.570  -9.156 -16.396  1.00  0.00     0.000 C 
BRANCH 175 176
HETATM  176  C   LIG     1      10.064 -10.131 -17.470  1.00  0.00     0.000 C 
BRANCH 176 177
HETATM  177  C   LIG     1       9.079 -11.306 -17.463  1.00  0.00     0.000 C 
BRANCH 177 178
HETATM  178  C   LIG     1       9.283 -12.375 -18.533  1.00  0.00     0.000 C 
BRANCH 178 179
HETATM  179  C   LIG     1       8.116 -13.367 -18.428  1.00  0.00     0.000 C 
BRANCH 179 180
HETATM  180  C   LIG     1       8.129 -14.508 -19.440  1.00  0.00    -0.000 C 
BRANCH 180 181
HETATM  181  C   LIG     1       9.271 -15.496 -19.219  1.00  0.00    -0.005 C 
HETATM  182  C   LIG     1       9.061 -16.763 -20.034  1.00  0.00     0.005 C 
ENDBRANCH 180 181
ENDBRANCH 179 180
ENDBRANCH 178 179
ENDBRANCH 177 178
ENDBRANCH 176 177
ENDBRANCH 175 176
ENDBRANCH 174 175
ENDBRANCH 173 174
ENDBRANCH 172 173
ENDBRANCH 171 172
ENDBRANCH 170 171
ENDBRANCH 169 170
ENDBRANCH 168 169
ENDBRANCH 167 168
ENDBRANCH 166 167
ENDBRANCH 149 166
ENDBRANCH 148 149
ENDBRANCH 146 148
ENDBRANCH 145 146
ENDBRANCH   5 145
BRANCH   4 183
HETATM  183  O   LIG     1       3.726   2.555 -10.056  1.00  0.00    -0.272 OA
BRANCH 183 184
HETATM  184  P   LIG     1       4.564   2.138 -11.388  1.00  0.00     0.422 P 
HETATM  185  O   LIG     1       3.970   2.804 -12.601  1.00  0.00    -0.617 OA
HETATM  186  O   LIG     1       6.018   2.523 -11.188  1.00  0.00    -0.617 OA
HETATM  187  O   LIG     1       4.419   0.630 -11.292  1.00  0.00    -0.617 OA
ENDBRANCH 183 184
ENDBRANCH   4 183
TORSDOF 129
