REMARK WARNING: 32 MAX_TORS EXCEEDED!!!
REMARK  43 active torsions:
REMARK  status: ('A' for Active; 'I' for Inactive)
REMARK    1  A    between atoms: C_1  and  C_7 
REMARK    2  A    between atoms: C_2  and  O_33 
REMARK    3  A    between atoms: C_3  and  O_32 
REMARK    4  A    between atoms: C_4  and  N_31 
REMARK    5  A    between atoms: C_5  and  O_30 
REMARK    6  A    between atoms: C_7  and  O_8 
REMARK    7  A    between atoms: O_8  and  C_9 
REMARK    8  A    between atoms: C_11  and  C_15 
REMARK    9  A    between atoms: C_12  and  O_36 
REMARK   10  A    between atoms: C_13  and  O_35 
REMARK   11  A    between atoms: C_14  and  N_34 
REMARK   12  A    between atoms: C_15  and  O_16 
REMARK   13  A    between atoms: O_16  and  C_17 
REMARK   14  A    between atoms: C_17  and  C_50 
REMARK   15  A    between atoms: C_19  and  C_38 
REMARK   16  A    between atoms: C_20  and  O_37 
REMARK   17  A    between atoms: C_21  and  O_23 
REMARK   18  A    between atoms: O_23  and  C_24 
REMARK   19  A    between atoms: C_24  and  C_54 
REMARK   20  A    between atoms: C_26  and  C_41 
REMARK   21  A    between atoms: C_27  and  O_40 
REMARK   22  A    between atoms: C_28  and  O_39 
REMARK   23  A    between atoms: O_30  and  P_42 
REMARK       I    between atoms: N_34  and  C_62 
REMARK   24  A    between atoms: O_36  and  P_45 
REMARK   25  A    between atoms: C_38  and  O_49 
REMARK   26  A    between atoms: C_38  and  C_47 
REMARK   27  A    between atoms: C_41  and  O_58 
REMARK   28  A    between atoms: C_41  and  C_53 
REMARK   29  A    between atoms: C_47  and  O_48 
REMARK   30  A    between atoms: C_53  and  O_57 
REMARK   31  A    between atoms: C_62  and  C_63 
REMARK   32  A    between atoms: C_63  and  C_64 
REMARK   33  A    between atoms: C_64  and  O_77 
REMARK   34  A    between atoms: C_64  and  C_65 
REMARK   35  A    between atoms: C_65  and  C_66 
REMARK   36  A    between atoms: C_66  and  C_67 
REMARK   37  A    between atoms: C_67  and  C_68 
REMARK   38  A    between atoms: C_68  and  C_69 
REMARK   39  A    between atoms: C_69  and  C_70 
REMARK   40  A    between atoms: C_70  and  C_71 
REMARK   41  A    between atoms: C_71  and  C_72 
REMARK   42  A    between atoms: C_72  and  C_73 
REMARK   43  A    between atoms: C_73  and  C_74 
ROOT
HETATM    1  C   LIG     1       6.329   2.234  -5.616  1.00  0.00     0.285 C 
HETATM    2  O   LIG     1       5.263   1.366  -5.996  1.00  0.00    -0.349 OA
HETATM    3  C   LIG     1       4.424   1.732  -7.100  1.00  0.00     0.180 C 
HETATM    4  C   LIG     1       5.246   2.226  -8.302  1.00  0.00     0.197 C 
HETATM    5  C   LIG     1       6.218   3.368  -7.903  1.00  0.00     0.177 C 
HETATM    6  C   LIG     1       6.392   3.583  -6.396  1.00  0.00     0.170 C 
ENDROOT
BRANCH   3   7
HETATM    7  C   LIG     1       3.548   0.482  -7.472  1.00  0.00     0.207 C 
BRANCH   7   8
HETATM    8  O   LIG     1       2.955  -0.182  -6.337  1.00  0.00    -0.344 OA
BRANCH   8   9
HETATM    9  C   LIG     1       1.578   0.108  -5.994  1.00  0.00     0.258 C 
HETATM   10  O   LIG     1       1.118  -0.928  -5.066  1.00  0.00    -0.336 OA
HETATM   11  C   LIG     1       2.008  -1.209  -3.974  1.00  0.00     0.187 C 
HETATM   12  C   LIG     1       2.692   0.088  -3.484  1.00  0.00     0.179 C 
HETATM   13  C   LIG     1       1.836   1.361  -3.732  1.00  0.00     0.162 C 
HETATM   14  C   LIG     1       1.406   1.432  -5.224  1.00  0.00     0.115 C 
BRANCH  11  15
HETATM   15  C   LIG     1       1.158  -2.095  -3.019  1.00  0.00     0.173 C 
BRANCH  15  16
HETATM   16  O   LIG     1      -0.067  -1.455  -2.622  1.00  0.00    -0.391 OA
HETATM   17  H   LIG     1      -0.277  -0.867  -3.383  1.00  0.00     0.210 HD
ENDBRANCH  15  16
BRANCH  15  18
HETATM   18  C   LIG     1       1.842  -2.681  -1.783  1.00  0.00     0.198 C 
BRANCH  18  19
HETATM   19  O   LIG     1       2.806  -3.685  -2.105  1.00  0.00    -0.398 OA
HETATM   20  H   LIG     1       3.475  -3.255  -2.670  1.00  0.00     0.209 HD
ENDBRANCH  18  19
ENDBRANCH  15  18
ENDBRANCH  11  15
BRANCH  12  21
HETATM   21  O   LIG     1       3.308  -0.018  -2.202  1.00  0.00    -0.390 OA
HETATM   22  H   LIG     1       3.780   0.826  -2.049  1.00  0.00     0.210 HD
ENDBRANCH  12  21
BRANCH  13  23
HETATM   23  O   LIG     1       0.630   1.487  -2.931  1.00  0.00    -0.338 OA
BRANCH  23  24
HETATM   24  C   LIG     1       0.731   1.990  -1.560  1.00  0.00     0.259 C 
HETATM   25  O   LIG     1      -0.500   2.743  -1.250  1.00  0.00    -0.336 OA
HETATM   26  C   LIG     1      -1.109   2.505   0.036  1.00  0.00     0.187 C 
HETATM   27  C   LIG     1      -0.073   2.286   1.155  1.00  0.00     0.178 C 
HETATM   28  C   LIG     1       0.748   1.039   0.830  1.00  0.00     0.155 C 
HETATM   29  C   LIG     1       0.772   0.748  -0.660  1.00  0.00     0.115 C 
BRANCH  26  30
HETATM   30  C   LIG     1      -2.098   3.654   0.357  1.00  0.00     0.173 C 
BRANCH  30  31
HETATM   31  O   LIG     1      -1.464   4.920   0.613  1.00  0.00    -0.391 OA
HETATM   32  H   LIG     1      -0.501   4.772   0.468  1.00  0.00     0.210 HD
ENDBRANCH  30  31
BRANCH  30  33
HETATM   33  C   LIG     1      -2.947   3.341   1.601  1.00  0.00     0.198 C 
BRANCH  33  34
HETATM   34  O   LIG     1      -3.963   4.338   1.764  1.00  0.00    -0.398 OA
HETATM   35  H   LIG     1      -3.508   5.168   1.515  1.00  0.00     0.209 HD
ENDBRANCH  33  34
ENDBRANCH  30  33
ENDBRANCH  26  30
BRANCH  27  36
HETATM   36  O   LIG     1       0.719   3.462   1.358  1.00  0.00    -0.390 OA
HETATM   37  H   LIG     1       1.604   3.298   0.954  1.00  0.00     0.210 HD
ENDBRANCH  27  36
BRANCH  28  38
HETATM   38  O   LIG     1       2.055   1.095   1.403  1.00  0.00    -0.393 OA
HETATM   39  H   LIG     1       2.618   1.589   0.744  1.00  0.00     0.210 HD
ENDBRANCH  28  38
BRANCH  24  40
HETATM   40  C   LIG     1       1.960   2.999  -1.362  1.00  0.00     0.239 C 
HETATM   41  O   LIG     1       2.794   2.649  -0.461  1.00  0.00    -0.644 OA
HETATM   42  O   LIG     1       1.955   4.082  -2.009  1.00  0.00    -0.644 OA
ENDBRANCH  24  40
ENDBRANCH  23  24
ENDBRANCH  13  23
BRANCH   9  43
HETATM   43  C   LIG     1       0.588  -0.011  -7.273  1.00  0.00     0.239 C 
HETATM   44  O   LIG     1       0.314  -1.192  -7.667  1.00  0.00    -0.644 OA
HETATM   45  O   LIG     1       0.113   1.080  -7.713  1.00  0.00    -0.644 OA
ENDBRANCH   9  43
ENDBRANCH   8   9
ENDBRANCH   7   8
ENDBRANCH   3   7
BRANCH   4  46
HETATM   46  O   LIG     1       4.371   2.512  -9.389  1.00  0.00    -0.272 OA
BRANCH  46  47
HETATM   47  P   LIG     1       4.718   3.711 -10.433  1.00  0.00     0.422 P 
HETATM   48  O   LIG     1       4.382   4.947  -9.614  1.00  0.00    -0.617 OA
HETATM   49  O   LIG     1       3.809   3.463 -11.622  1.00  0.00    -0.617 OA
HETATM   50  O   LIG     1       6.201   3.510 -10.730  1.00  0.00    -0.617 OA
ENDBRANCH  46  47
ENDBRANCH   4  46
BRANCH   1  51
HETATM   51  O   LIG     1       7.591   1.515  -5.583  1.00  0.00    -0.356 OA
BRANCH  51  52
HETATM   52  C   LIG     1       7.781   0.823  -4.331  1.00  0.00     0.205 C 
BRANCH  52  53
HETATM   53  C   LIG     1       8.990  -0.164  -4.300  1.00  0.00     0.179 C 
HETATM   54  C   LIG     1       9.018  -0.952  -2.957  1.00  0.00     0.180 C 
HETATM   55  C   LIG     1       9.983  -0.414  -1.897  1.00  0.00     0.184 C 
HETATM   56  C   LIG     1      11.373  -0.108  -2.446  1.00  0.00     0.269 C 
HETATM   57  C   LIG     1      11.408  -0.165  -3.999  1.00  0.00     0.306 C 
HETATM   58  O   LIG     1      10.225   0.556  -4.501  1.00  0.00    -0.348 OA
BRANCH  54  59
HETATM   59  O   LIG     1       9.439  -2.298  -3.195  1.00  0.00    -0.390 OA
HETATM   60  H   LIG     1      10.391  -2.254  -3.476  1.00  0.00     0.210 HD
ENDBRANCH  54  59
BRANCH  55  61
HETATM   61  O   LIG     1       9.477   0.804  -1.338  1.00  0.00    -0.391 OA
HETATM   62  H   LIG     1       9.593   1.436  -2.073  1.00  0.00     0.210 HD
ENDBRANCH  55  61
BRANCH  56  63
HETATM   63  N   LIG     1      12.417  -0.873  -1.728  1.00  0.00    -0.068 N 
HETATM   64  H   LIG     1      12.273  -1.925  -1.859  1.00  0.00     0.275 HD
HETATM   65  H   LIG     1      12.692  -0.691  -0.771  1.00  0.00     0.275 HD
HETATM   66  H   LIG     1      13.266  -0.834  -2.363  1.00  0.00     0.275 HD
ENDBRANCH  56  63
BRANCH  57  67
HETATM   67  O   LIG     1      11.579  -1.447  -4.579  1.00  0.00    -0.249 OA
BRANCH  67  68
HETATM   68  P   LIG     1      12.878  -2.293  -4.066  1.00  0.00     0.424 P 
HETATM   69  O   LIG     1      13.844  -1.209  -3.597  1.00  0.00    -0.617 OA
HETATM   70  O   LIG     1      13.321  -3.204  -5.175  1.00  0.00    -0.617 OA
HETATM   71  O   LIG     1      12.294  -2.942  -2.813  1.00  0.00    -0.617 OA
ENDBRANCH  67  68
ENDBRANCH  57  67
ENDBRANCH  52  53
ENDBRANCH  51  52
ENDBRANCH   1  51
BRANCH   5  72
HETATM   72  O   LIG     1       7.487   3.115  -8.549  1.00  0.00    -0.391 OA
HETATM   73  H   LIG     1       7.201   3.206  -9.512  1.00  0.00     0.210 HD
ENDBRANCH   5  72
BRANCH   6  74
HETATM   74  N   LIG     1       5.355   4.540  -5.851  1.00  0.00    -0.349 N 
HETATM   75  C   LIG     1       5.260   5.889  -6.170  1.00  0.00     0.220 C 
HETATM   76  O   LIG     1       6.147   6.525  -6.742  1.00  0.00    -0.274 OA
HETATM   77  H   LIG     1       4.507   4.099  -5.521  1.00  0.00     0.163 HD
BRANCH  75  78
HETATM   78  C   LIG     1       4.077   6.597  -5.515  1.00  0.00     0.134 C 
BRANCH  78  79
HETATM   79  C   LIG     1       2.930   7.144  -6.391  1.00  0.00     0.127 C 
BRANCH  79  80
HETATM   80  O   LIG     1       3.416   7.925  -7.479  1.00  0.00    -0.395 OA
HETATM   81  H   LIG     1       3.822   7.275  -8.108  1.00  0.00     0.210 HD
ENDBRANCH  79  80
BRANCH  79  82
HETATM   82  C   LIG     1       2.043   8.054  -5.489  1.00  0.00     0.032 C 
BRANCH  82  83
HETATM   83  C   LIG     1       0.816   8.727  -6.140  1.00  0.00     0.002 C 
BRANCH  83  84
HETATM   84  C   LIG     1       0.090   9.642  -5.124  1.00  0.00     0.000 C 
BRANCH  84  85
HETATM   85  C   LIG     1      -1.150  10.358  -5.693  1.00  0.00     0.000 C 
BRANCH  85  86
HETATM   86  C   LIG     1      -1.814  11.278  -4.648  1.00  0.00     0.000 C 
BRANCH  86  87
HETATM   87  C   LIG     1      -3.074  11.986  -5.180  1.00  0.00     0.000 C 
BRANCH  87  88
HETATM   88  C   LIG     1      -3.717  12.881  -4.107  1.00  0.00     0.000 C 
BRANCH  88  89
HETATM   89  C   LIG     1      -5.067  13.491  -4.510  1.00  0.00     0.000 C 
BRANCH  89  90
HETATM   90  C   LIG     1      -4.969  14.539  -5.622  1.00  0.00    -0.000 C 
BRANCH  90  91
HETATM   91  C   LIG     1      -6.278  15.300  -5.871  1.00  0.00    -0.005 C 
HETATM   92  C   LIG     1      -7.438  14.411  -6.299  1.00  0.00     0.005 C 
ENDBRANCH  90  91
ENDBRANCH  89  90
ENDBRANCH  88  89
ENDBRANCH  87  88
ENDBRANCH  86  87
ENDBRANCH  85  86
ENDBRANCH  84  85
ENDBRANCH  83  84
ENDBRANCH  82  83
ENDBRANCH  79  82
ENDBRANCH  78  79
ENDBRANCH  75  78
ENDBRANCH   6  74
TORSDOF 43
