REMARK WARNING: 32 MAX_TORS EXCEEDED!!!
REMARK  42 active torsions:
REMARK  status: ('A' for Active; 'I' for Inactive)
REMARK    1  A    between atoms: C_1  and  C_7 
REMARK    2  A    between atoms: C_2  and  O_33 
REMARK    3  A    between atoms: C_3  and  O_32 
REMARK    4  A    between atoms: C_4  and  N_31 
REMARK    5  A    between atoms: C_5  and  O_30 
REMARK    6  A    between atoms: C_7  and  O_8 
REMARK    7  A    between atoms: O_8  and  C_9 
REMARK    8  A    between atoms: C_11  and  C_15 
REMARK    9  A    between atoms: C_12  and  O_35 
REMARK   10  A    between atoms: C_13  and  O_34 
REMARK   11  A    between atoms: C_15  and  O_16 
REMARK   12  A    between atoms: O_16  and  C_17 
REMARK   13  A    between atoms: C_17  and  C_49 
REMARK   14  A    between atoms: C_19  and  C_37 
REMARK   15  A    between atoms: C_20  and  O_36 
REMARK   16  A    between atoms: C_21  and  O_23 
REMARK   17  A    between atoms: O_23  and  C_24 
REMARK   18  A    between atoms: C_24  and  C_53 
REMARK   19  A    between atoms: C_26  and  C_40 
REMARK   20  A    between atoms: C_27  and  O_39 
REMARK   21  A    between atoms: C_28  and  O_38 
REMARK   22  A    between atoms: O_30  and  P_41 
REMARK       I    between atoms: N_31  and  C_61 
REMARK   23  A    between atoms: O_35  and  P_44 
REMARK   24  A    between atoms: C_37  and  O_48 
REMARK   25  A    between atoms: C_37  and  C_46 
REMARK   26  A    between atoms: C_40  and  O_57 
REMARK   27  A    between atoms: C_40  and  C_52 
REMARK   28  A    between atoms: C_46  and  O_47 
REMARK   29  A    between atoms: C_52  and  O_56 
REMARK   30  A    between atoms: C_61  and  C_62 
REMARK   31  A    between atoms: C_62  and  C_63 
REMARK   32  A    between atoms: C_63  and  O_76 
REMARK   33  A    between atoms: C_63  and  C_64 
REMARK   34  A    between atoms: C_64  and  C_65 
REMARK   35  A    between atoms: C_65  and  C_66 
REMARK   36  A    between atoms: C_66  and  C_67 
REMARK   37  A    between atoms: C_67  and  C_68 
REMARK   38  A    between atoms: C_68  and  C_69 
REMARK   39  A    between atoms: C_69  and  C_70 
REMARK   40  A    between atoms: C_70  and  C_71 
REMARK   41  A    between atoms: C_71  and  C_72 
REMARK   42  A    between atoms: C_72  and  C_73 
ROOT
HETATM    1  C   LIG     1       7.773   1.956  -8.540  1.00  0.00     0.262 C 
HETATM    2  O   LIG     1       6.363   1.627  -8.619  1.00  0.00    -0.351 OA
HETATM    3  C   LIG     1       5.823   1.222  -7.283  1.00  0.00     0.180 C 
HETATM    4  C   LIG     1       6.537   1.966  -6.105  1.00  0.00     0.195 C 
HETATM    5  C   LIG     1       6.858   3.360  -6.649  1.00  0.00     0.155 C 
HETATM    6  C   LIG     1       7.938   3.217  -7.702  1.00  0.00     0.095 C 
ENDROOT
BRANCH   3   7
HETATM    7  C   LIG     1       4.258   1.458  -7.279  1.00  0.00     0.207 C 
BRANCH   7   8
HETATM    8  O   LIG     1       3.942   2.846  -7.221  1.00  0.00    -0.344 OA
BRANCH   8   9
HETATM    9  C   LIG     1       2.601   3.375  -7.402  1.00  0.00     0.258 C 
HETATM   10  O   LIG     1       2.924   4.727  -7.840  1.00  0.00    -0.336 OA
HETATM   11  C   LIG     1       1.992   5.543  -8.539  1.00  0.00     0.187 C 
HETATM   12  C   LIG     1       1.096   4.757  -9.503  1.00  0.00     0.179 C 
HETATM   13  C   LIG     1       0.579   3.379  -9.020  1.00  0.00     0.162 C 
HETATM   14  C   LIG     1       1.754   2.594  -8.424  1.00  0.00     0.115 C 
BRANCH  11  15
HETATM   15  C   LIG     1       1.514   6.774  -7.700  1.00  0.00     0.173 C 
BRANCH  15  16
HETATM   16  O   LIG     1       0.587   6.509  -6.645  1.00  0.00    -0.391 OA
HETATM   17  H   LIG     1       0.994   5.773  -6.116  1.00  0.00     0.210 HD
ENDBRANCH  15  16
BRANCH  15  18
HETATM   18  C   LIG     1       0.945   7.957  -8.523  1.00  0.00     0.198 C 
BRANCH  18  19
HETATM   19  O   LIG     1       1.856   8.527  -9.468  1.00  0.00    -0.398 OA
HETATM   20  H   LIG     1       2.737   8.493  -9.050  1.00  0.00     0.209 HD
ENDBRANCH  18  19
ENDBRANCH  15  18
ENDBRANCH  11  15
BRANCH  12  21
HETATM   21  O   LIG     1       0.092   5.556 -10.142  1.00  0.00    -0.390 OA
HETATM   22  H   LIG     1       0.108   5.310 -11.083  1.00  0.00     0.210 HD
ENDBRANCH  12  21
BRANCH  13  23
HETATM   23  O   LIG     1      -0.553   3.508  -8.168  1.00  0.00    -0.338 OA
BRANCH  23  24
HETATM   24  C   LIG     1      -1.588   2.472  -8.132  1.00  0.00     0.259 C 
HETATM   25  O   LIG     1      -1.502   1.612  -6.980  1.00  0.00    -0.336 OA
HETATM   26  C   LIG     1      -1.780   2.154  -5.679  1.00  0.00     0.187 C 
HETATM   27  C   LIG     1      -2.140   3.647  -5.600  1.00  0.00     0.178 C 
HETATM   28  C   LIG     1      -2.865   4.211  -6.828  1.00  0.00     0.155 C 
HETATM   29  C   LIG     1      -2.888   3.271  -8.024  1.00  0.00     0.115 C 
BRANCH  26  30
HETATM   30  C   LIG     1      -2.755   1.212  -4.916  1.00  0.00     0.173 C 
BRANCH  30  31
HETATM   31  O   LIG     1      -2.244  -0.131  -4.819  1.00  0.00    -0.391 OA
HETATM   32  H   LIG     1      -1.234  -0.034  -4.933  1.00  0.00     0.210 HD
ENDBRANCH  30  31
BRANCH  30  33
HETATM   33  C   LIG     1      -4.168   1.116  -5.523  1.00  0.00     0.198 C 
BRANCH  33  34
HETATM   34  O   LIG     1      -5.032   2.176  -5.138  1.00  0.00    -0.398 OA
HETATM   35  H   LIG     1      -4.490   2.985  -5.039  1.00  0.00     0.209 HD
ENDBRANCH  33  34
ENDBRANCH  30  33
ENDBRANCH  26  30
BRANCH  27  36
HETATM   36  O   LIG     1      -2.915   3.946  -4.413  1.00  0.00    -0.390 OA
HETATM   37  H   LIG     1      -3.294   4.822  -4.608  1.00  0.00     0.210 HD
ENDBRANCH  27  36
BRANCH  28  38
HETATM   38  O   LIG     1      -4.217   4.598  -6.466  1.00  0.00    -0.393 OA
HETATM   39  H   LIG     1      -4.742   4.501  -7.278  1.00  0.00     0.210 HD
ENDBRANCH  28  38
BRANCH  24  40
HETATM   40  C   LIG     1      -1.753   1.495  -9.465  1.00  0.00     0.239 C 
HETATM   41  O   LIG     1      -2.924   1.420  -9.976  1.00  0.00    -0.644 OA
HETATM   42  O   LIG     1      -0.717   0.897  -9.882  1.00  0.00    -0.644 OA
ENDBRANCH  24  40
ENDBRANCH  23  24
ENDBRANCH  13  23
BRANCH   9  43
HETATM   43  C   LIG     1       1.787   3.379  -6.020  1.00  0.00     0.239 C 
HETATM   44  O   LIG     1       1.384   4.573  -5.657  1.00  0.00    -0.644 OA
HETATM   45  O   LIG     1       1.481   2.303  -5.484  1.00  0.00    -0.644 OA
ENDBRANCH   9  43
ENDBRANCH   8   9
ENDBRANCH   7   8
ENDBRANCH   3   7
BRANCH   4  46
HETATM   46  O   LIG     1       7.799   1.318  -5.816  1.00  0.00    -0.272 OA
BRANCH  46  47
HETATM   47  P   LIG     1       7.928   0.293  -4.568  1.00  0.00     0.422 P 
HETATM   48  O   LIG     1       6.767  -0.680  -4.760  1.00  0.00    -0.617 OA
HETATM   49  O   LIG     1       7.805   1.164  -3.343  1.00  0.00    -0.617 OA
HETATM   50  O   LIG     1       9.317  -0.332  -4.758  1.00  0.00    -0.617 OA
ENDBRANCH  46  47
ENDBRANCH   4  46
BRANCH   1  51
HETATM   51  O   LIG     1       8.359   2.203  -9.847  1.00  0.00    -0.359 OA
BRANCH  51  52
HETATM   52  C   LIG     1       9.799   2.303  -9.807  1.00  0.00     0.205 C 
BRANCH  52  53
HETATM   53  C   LIG     1      10.427   3.691  -9.485  1.00  0.00     0.179 C 
HETATM   54  C   LIG     1      10.093   4.745 -10.541  1.00  0.00     0.179 C 
HETATM   55  C   LIG     1      10.699   6.096 -10.127  1.00  0.00     0.172 C 
HETATM   56  C   LIG     1      12.227   5.971 -10.037  1.00  0.00     0.150 C 
HETATM   57  C   LIG     1      12.572   4.764  -9.089  1.00  0.00     0.294 C 
HETATM   58  O   LIG     1      11.861   3.547  -9.474  1.00  0.00    -0.349 OA
BRANCH  54  59
HETATM   59  O   LIG     1       8.710   4.977 -10.829  1.00  0.00    -0.390 OA
HETATM   60  H   LIG     1       8.364   5.514 -10.090  1.00  0.00     0.210 HD
ENDBRANCH  54  59
BRANCH  55  61
HETATM   61  O   LIG     1      10.248   7.019 -11.151  1.00  0.00    -0.391 OA
HETATM   62  H   LIG     1       9.295   6.781 -11.220  1.00  0.00     0.210 HD
ENDBRANCH  55  61
BRANCH  56  63
HETATM   63  N   LIG     1      12.861   7.295  -9.838  1.00  0.00    -0.251 NA
HETATM   64  C   LIG     1      14.168   7.644  -9.679  1.00  0.00     0.200 C 
HETATM   65  O   LIG     1      14.517   8.805  -9.885  1.00  0.00    -0.280 OA
HETATM   66  H   LIG     1      12.389   7.709  -9.000  1.00  0.00     0.131 HD
BRANCH  64  67
HETATM   67  C   LIG     1      15.153   6.536  -9.333  1.00  0.00     0.128 C 
BRANCH  67  68
HETATM   68  C   LIG     1      16.370   6.961  -8.516  1.00  0.00     0.126 C 
BRANCH  68  69
HETATM   69  O   LIG     1      15.932   7.367  -7.196  1.00  0.00    -0.395 OA
HETATM   70  H   LIG     1      15.015   7.035  -6.994  1.00  0.00     0.210 HD
ENDBRANCH  68  69
BRANCH  68  71
HETATM   71  C   LIG     1      17.214   8.013  -9.269  1.00  0.00     0.032 C 
BRANCH  71  72
HETATM   72  C   LIG     1      18.741   7.899  -9.071  1.00  0.00     0.002 C 
BRANCH  72  73
HETATM   73  C   LIG     1      19.498   8.803 -10.063  1.00  0.00     0.000 C 
BRANCH  73  74
HETATM   74  C   LIG     1      21.008   8.954  -9.827  1.00  0.00     0.000 C 
BRANCH  74  75
HETATM   75  C   LIG     1      21.863   7.691 -10.023  1.00  0.00     0.000 C 
BRANCH  75  76
HETATM   76  C   LIG     1      21.949   6.824  -8.767  1.00  0.00     0.000 C 
BRANCH  76  77
HETATM   77  C   LIG     1      23.032   5.739  -8.806  1.00  0.00     0.000 C 
BRANCH  77  78
HETATM   78  C   LIG     1      22.650   4.465  -9.569  1.00  0.00     0.000 C 
BRANCH  78  79
HETATM   79  C   LIG     1      22.936   4.458 -11.073  1.00  0.00    -0.000 C 
BRANCH  79  80
HETATM   80  C   LIG     1      24.427   4.531 -11.408  1.00  0.00    -0.005 C 
HETATM   81  C   LIG     1      24.672   4.341 -12.897  1.00  0.00     0.005 C 
ENDBRANCH  79  80
ENDBRANCH  78  79
ENDBRANCH  77  78
ENDBRANCH  76  77
ENDBRANCH  75  76
ENDBRANCH  74  75
ENDBRANCH  73  74
ENDBRANCH  72  73
ENDBRANCH  71  72
ENDBRANCH  68  71
ENDBRANCH  67  68
ENDBRANCH  64  67
ENDBRANCH  56  63
BRANCH  57  82
HETATM   82  O   LIG     1      12.771   4.911  -7.731  1.00  0.00    -0.250 OA
BRANCH  82  83
HETATM   83  P   LIG     1      12.375   6.123  -6.746  1.00  0.00     0.424 P 
HETATM   84  O   LIG     1      13.600   6.234  -5.831  1.00  0.00    -0.617 OA
HETATM   85  O   LIG     1      11.040   5.660  -6.197  1.00  0.00    -0.617 OA
HETATM   86  O   LIG     1      12.202   7.376  -7.581  1.00  0.00    -0.617 OA
ENDBRANCH  82  83
ENDBRANCH  57  82
ENDBRANCH  52  53
ENDBRANCH  51  52
ENDBRANCH   1  51
BRANCH   5  87
HETATM   87  O   LIG     1       7.267   4.335  -5.687  1.00  0.00    -0.393 OA
HETATM   88  H   LIG     1       8.215   4.173  -5.503  1.00  0.00     0.210 HD
ENDBRANCH   5  87
TORSDOF 42
