REMARK WARNING: 32 MAX_TORS EXCEEDED!!!
REMARK  56 active torsions:
REMARK  status: ('A' for Active; 'I' for Inactive)
REMARK    1  A    between atoms: C_1  and  C_7 
REMARK    2  A    between atoms: C_2  and  O_33 
REMARK    3  A    between atoms: C_3  and  O_32 
REMARK    4  A    between atoms: C_4  and  N_31 
REMARK    5  A    between atoms: C_5  and  O_30 
REMARK    6  A    between atoms: C_7  and  O_8 
REMARK    7  A    between atoms: O_8  and  C_9 
REMARK    8  A    between atoms: C_11  and  C_15 
REMARK    9  A    between atoms: C_12  and  O_36 
REMARK   10  A    between atoms: C_13  and  O_35 
REMARK   11  A    between atoms: C_14  and  N_34 
REMARK   12  A    between atoms: C_15  and  O_16 
REMARK   13  A    between atoms: O_16  and  C_17 
REMARK   14  A    between atoms: C_17  and  C_50 
REMARK   15  A    between atoms: C_19  and  C_38 
REMARK   16  A    between atoms: C_20  and  O_37 
REMARK   17  A    between atoms: C_21  and  O_23 
REMARK   18  A    between atoms: O_23  and  C_24 
REMARK   19  A    between atoms: C_24  and  C_54 
REMARK   20  A    between atoms: C_26  and  C_41 
REMARK   21  A    between atoms: C_27  and  O_40 
REMARK   22  A    between atoms: C_28  and  O_39 
REMARK   23  A    between atoms: O_30  and  P_42 
REMARK       I    between atoms: N_31  and  C_76 
REMARK       I    between atoms: N_34  and  C_62 
REMARK   24  A    between atoms: O_36  and  P_45 
REMARK   25  A    between atoms: C_38  and  O_49 
REMARK   26  A    between atoms: C_38  and  C_47 
REMARK   27  A    between atoms: C_41  and  O_58 
REMARK   28  A    between atoms: C_41  and  C_53 
REMARK   29  A    between atoms: C_47  and  O_48 
REMARK   30  A    between atoms: C_53  and  O_57 
REMARK   31  A    between atoms: C_62  and  C_63 
REMARK   32  A    between atoms: C_63  and  C_64 
REMARK   33  A    between atoms: C_64  and  O_93 
REMARK   34  A    between atoms: C_64  and  C_65 
REMARK   35  A    between atoms: C_65  and  C_66 
REMARK   36  A    between atoms: C_66  and  C_67 
REMARK   37  A    between atoms: C_67  and  C_68 
REMARK   38  A    between atoms: C_68  and  C_69 
REMARK   39  A    between atoms: C_69  and  C_70 
REMARK   40  A    between atoms: C_70  and  C_71 
REMARK   41  A    between atoms: C_71  and  C_72 
REMARK   42  A    between atoms: C_72  and  C_73 
REMARK   43  A    between atoms: C_73  and  C_74 
REMARK   44  A    between atoms: C_76  and  C_77 
REMARK   45  A    between atoms: C_77  and  C_78 
REMARK   46  A    between atoms: C_78  and  O_92 
REMARK   47  A    between atoms: C_78  and  C_79 
REMARK   48  A    between atoms: C_79  and  C_80 
REMARK   49  A    between atoms: C_80  and  C_81 
REMARK   50  A    between atoms: C_81  and  C_82 
REMARK   51  A    between atoms: C_82  and  C_83 
REMARK   52  A    between atoms: C_83  and  C_84 
REMARK   53  A    between atoms: C_84  and  C_85 
REMARK   54  A    between atoms: C_85  and  C_86 
REMARK   55  A    between atoms: C_86  and  C_87 
REMARK   56  A    between atoms: C_87  and  C_88 
ROOT
HETATM    1  C   LIG     1       6.186  -3.270 -11.708  1.00  0.00     0.285 C 
HETATM    2  O   LIG     1       5.026  -3.743 -11.010  1.00  0.00    -0.349 OA
HETATM    3  C   LIG     1       5.027  -5.140 -10.628  1.00  0.00     0.180 C 
HETATM    4  C   LIG     1       6.323  -5.560  -9.913  1.00  0.00     0.197 C 
HETATM    5  C   LIG     1       7.179  -4.331  -9.629  1.00  0.00     0.177 C 
HETATM    6  C   LIG     1       7.508  -3.672 -10.987  1.00  0.00     0.170 C 
ENDROOT
BRANCH   3   7
HETATM    7  C   LIG     1       3.863  -5.311  -9.641  1.00  0.00     0.207 C 
BRANCH   7   8
HETATM    8  O   LIG     1       2.571  -5.109 -10.203  1.00  0.00    -0.344 OA
BRANCH   8   9
HETATM    9  C   LIG     1       1.912  -6.253 -10.808  1.00  0.00     0.258 C 
HETATM   10  O   LIG     1       2.571  -6.613 -12.011  1.00  0.00    -0.336 OA
HETATM   11  C   LIG     1       3.163  -7.885 -12.219  1.00  0.00     0.187 C 
HETATM   12  C   LIG     1       2.657  -9.082 -11.394  1.00  0.00     0.179 C 
HETATM   13  C   LIG     1       1.741  -8.785 -10.194  1.00  0.00     0.162 C 
HETATM   14  C   LIG     1       1.583  -7.335  -9.768  1.00  0.00     0.115 C 
BRANCH  11  15
HETATM   15  C   LIG     1       3.109  -8.137 -13.753  1.00  0.00     0.173 C 
BRANCH  15  16
HETATM   16  O   LIG     1       3.811  -7.098 -14.466  1.00  0.00    -0.391 OA
HETATM   17  H   LIG     1       3.332  -6.289 -14.175  1.00  0.00     0.210 HD
ENDBRANCH  15  16
BRANCH  15  18
HETATM   18  C   LIG     1       1.681  -8.184 -14.326  1.00  0.00     0.198 C 
BRANCH  18  19
HETATM   19  O   LIG     1       1.134  -6.887 -14.595  1.00  0.00    -0.398 OA
HETATM   20  H   LIG     1       0.907  -6.493 -13.703  1.00  0.00     0.209 HD
ENDBRANCH  18  19
ENDBRANCH  15  18
ENDBRANCH  11  15
BRANCH  12  21
HETATM   21  O   LIG     1       2.118 -10.175 -12.179  1.00  0.00    -0.390 OA
HETATM   22  H   LIG     1       1.378 -10.490 -11.626  1.00  0.00     0.210 HD
ENDBRANCH  12  21
BRANCH  13  23
HETATM   23  O   LIG     1       0.644  -9.716 -10.055  1.00  0.00    -0.338 OA
BRANCH  23  24
HETATM   24  C   LIG     1      -0.691  -9.466 -10.563  1.00  0.00     0.259 C 
HETATM   25  O   LIG     1      -0.666  -9.069 -11.936  1.00  0.00    -0.336 OA
HETATM   26  C   LIG     1      -1.543  -9.609 -12.928  1.00  0.00     0.187 C 
HETATM   27  C   LIG     1      -2.260 -10.936 -12.614  1.00  0.00     0.178 C 
HETATM   28  C   LIG     1      -2.612 -11.117 -11.154  1.00  0.00     0.155 C 
HETATM   29  C   LIG     1      -1.394 -10.827 -10.303  1.00  0.00     0.115 C 
BRANCH  26  30
HETATM   30  C   LIG     1      -2.367  -8.527 -13.691  1.00  0.00     0.173 C 
BRANCH  30  31
HETATM   31  O   LIG     1      -1.539  -7.943 -14.737  1.00  0.00    -0.391 OA
HETATM   32  H   LIG     1      -0.821  -7.454 -14.273  1.00  0.00     0.210 HD
ENDBRANCH  30  31
BRANCH  30  33
HETATM   33  C   LIG     1      -2.955  -7.384 -12.865  1.00  0.00     0.198 C 
BRANCH  33  34
HETATM   34  O   LIG     1      -3.481  -6.383 -13.769  1.00  0.00    -0.398 OA
HETATM   35  H   LIG     1      -2.653  -5.999 -14.142  1.00  0.00     0.209 HD
ENDBRANCH  33  34
ENDBRANCH  30  33
ENDBRANCH  26  30
BRANCH  27  36
HETATM   36  O   LIG     1      -3.437 -11.181 -13.400  1.00  0.00    -0.390 OA
HETATM   37  H   LIG     1      -4.143 -10.740 -12.879  1.00  0.00     0.210 HD
ENDBRANCH  27  36
BRANCH  28  38
HETATM   38  O   LIG     1      -3.814 -10.403 -10.860  1.00  0.00    -0.393 OA
HETATM   39  H   LIG     1      -3.554  -9.490 -10.552  1.00  0.00     0.210 HD
ENDBRANCH  28  38
BRANCH  24  40
HETATM   40  C   LIG     1      -1.616  -8.573  -9.606  1.00  0.00     0.239 C 
HETATM   41  O   LIG     1      -2.761  -8.297 -10.085  1.00  0.00    -0.644 OA
HETATM   42  O   LIG     1      -1.273  -8.506  -8.380  1.00  0.00    -0.644 OA
ENDBRANCH  24  40
ENDBRANCH  23  24
ENDBRANCH  13  23
BRANCH   9  43
HETATM   43  C   LIG     1       0.431  -5.713 -11.260  1.00  0.00     0.239 C 
HETATM   44  O   LIG     1      -0.221  -5.016 -10.442  1.00  0.00    -0.644 OA
HETATM   45  O   LIG     1       0.082  -6.037 -12.441  1.00  0.00    -0.644 OA
ENDBRANCH   9  43
ENDBRANCH   8   9
ENDBRANCH   7   8
ENDBRANCH   3   7
BRANCH   4  46
HETATM   46  O   LIG     1       7.054  -6.412 -10.790  1.00  0.00    -0.272 OA
BRANCH  46  47
HETATM   47  P   LIG     1       7.494  -7.878 -10.261  1.00  0.00     0.422 P 
HETATM   48  O   LIG     1       6.180  -8.634 -10.231  1.00  0.00    -0.617 OA
HETATM   49  O   LIG     1       8.107  -7.638  -8.904  1.00  0.00    -0.617 OA
HETATM   50  O   LIG     1       8.483  -8.336 -11.325  1.00  0.00    -0.617 OA
ENDBRANCH  46  47
ENDBRANCH   4  46
BRANCH   1  51
HETATM   51  O   LIG     1       6.040  -1.842 -11.646  1.00  0.00    -0.356 OA
BRANCH  51  52
HETATM   52  C   LIG     1       6.608  -1.062 -12.696  1.00  0.00     0.205 C 
BRANCH  52  53
HETATM   53  C   LIG     1       7.891  -0.291 -12.284  1.00  0.00     0.180 C 
HETATM   54  C   LIG     1       9.141  -1.171 -12.399  1.00  0.00     0.180 C 
HETATM   55  C   LIG     1      10.114  -1.152 -11.191  1.00  0.00     0.177 C 
HETATM   56  C   LIG     1       9.759  -0.464  -9.834  1.00  0.00     0.171 C 
HETATM   57  C   LIG     1       9.030   0.835 -10.477  1.00  0.00     0.299 C 
HETATM   58  O   LIG     1       7.761   0.302 -10.989  1.00  0.00    -0.348 OA
BRANCH  54  59
HETATM   59  O   LIG     1       9.891  -0.744 -13.578  1.00  0.00    -0.390 OA
HETATM   60  H   LIG     1      10.020   0.231 -13.458  1.00  0.00     0.210 HD
ENDBRANCH  54  59
BRANCH  55  61
HETATM   61  O   LIG     1      10.620  -2.413 -10.895  1.00  0.00    -0.391 OA
HETATM   62  H   LIG     1      10.009  -2.925 -10.320  1.00  0.00     0.210 HD
ENDBRANCH  55  61
BRANCH  56  63
HETATM   63  N   LIG     1      11.215  -0.696  -8.882  1.00  0.00    -0.349 N 
HETATM   64  C   LIG     1      12.093  -0.293  -7.777  1.00  0.00     0.220 C 
HETATM   65  O   LIG     1      11.897   0.376  -6.756  1.00  0.00    -0.274 OA
HETATM   66  H   LIG     1      11.427  -1.621  -9.188  1.00  0.00     0.163 HD
BRANCH  64  67
HETATM   67  C   LIG     1      13.601  -0.532  -7.773  1.00  0.00     0.134 C 
BRANCH  67  68
HETATM   68  C   LIG     1      13.900  -1.903  -7.334  1.00  0.00     0.127 C 
BRANCH  68  69
HETATM   69  O   LIG     1      14.991  -1.920  -6.391  1.00  0.00    -0.395 OA
HETATM   70  H   LIG     1      14.675  -1.382  -5.642  1.00  0.00     0.210 HD
ENDBRANCH  68  69
BRANCH  68  71
HETATM   71  C   LIG     1      14.242  -2.715  -8.561  1.00  0.00     0.032 C 
BRANCH  71  72
HETATM   72  C   LIG     1      13.389  -2.403  -9.801  1.00  0.00     0.002 C 
BRANCH  72  73
HETATM   73  C   LIG     1      13.284  -0.947 -10.543  1.00  0.00     0.000 C 
BRANCH  73  74
HETATM   74  C   LIG     1      12.704   0.672 -10.248  1.00  0.00     0.000 C 
BRANCH  74  75
HETATM   75  C   LIG     1      11.687   1.685  -9.186  1.00  0.00     0.000 C 
BRANCH  75  76
HETATM   76  C   LIG     1      10.378   1.607  -7.945  1.00  0.00     0.000 C 
BRANCH  76  77
HETATM   77  C   LIG     1       9.488   0.368  -7.034  1.00  0.00     0.000 C 
BRANCH  77  78
HETATM   78  C   LIG     1       9.930  -0.944  -6.061  1.00  0.00     0.000 C 
BRANCH  78  79
HETATM   79  C   LIG     1      10.151  -2.384  -6.665  1.00  0.00    -0.000 C 
BRANCH  79  80
HETATM   80  C   LIG     1      10.434  -3.619  -5.765  1.00  0.00    -0.005 C 
HETATM   81  C   LIG     1      11.764  -3.808  -5.034  1.00  0.00     0.005 C 
ENDBRANCH  79  80
ENDBRANCH  78  79
ENDBRANCH  77  78
ENDBRANCH  76  77
ENDBRANCH  75  76
ENDBRANCH  74  75
ENDBRANCH  73  74
ENDBRANCH  72  73
ENDBRANCH  71  72
ENDBRANCH  68  71
ENDBRANCH  67  68
ENDBRANCH  64  67
ENDBRANCH  56  63
BRANCH  57  82
HETATM   82  O   LIG     1       9.820   1.426 -11.503  1.00  0.00    -0.249 OA
BRANCH  82  83
HETATM   83  P   LIG     1       9.629   2.933 -12.053  1.00  0.00     0.424 P 
HETATM   84  O   LIG     1       9.133   3.746 -10.850  1.00  0.00    -0.617 OA
HETATM   85  O   LIG     1       8.666   2.813 -13.196  1.00  0.00    -0.617 OA
HETATM   86  O   LIG     1      11.043   3.308 -12.495  1.00  0.00    -0.617 OA
ENDBRANCH  82  83
ENDBRANCH  57  82
ENDBRANCH  52  53
ENDBRANCH  51  52
ENDBRANCH   1  51
BRANCH   5  87
HETATM   87  O   LIG     1       6.523  -3.378  -8.767  1.00  0.00    -0.391 OA
HETATM   88  H   LIG     1       5.766  -3.015  -9.275  1.00  0.00     0.210 HD
ENDBRANCH   5  87
BRANCH   6  89
HETATM   89  N   LIG     1       8.456  -4.401 -11.873  1.00  0.00    -0.349 N 
HETATM   90  C   LIG     1       9.687  -4.869 -11.424  1.00  0.00     0.220 C 
HETATM   91  O   LIG     1      10.067  -4.717 -10.254  1.00  0.00    -0.274 OA
HETATM   92  H   LIG     1       8.031  -5.042 -12.526  1.00  0.00     0.163 HD
BRANCH  90  93
HETATM   93  C   LIG     1      10.638  -5.353 -12.514  1.00  0.00     0.134 C 
BRANCH  93  94
HETATM   94  C   LIG     1      11.955  -4.532 -12.442  1.00  0.00     0.127 C 
BRANCH  94  95
HETATM   95  O   LIG     1      11.963  -3.552 -13.492  1.00  0.00    -0.395 OA
HETATM   96  H   LIG     1      11.379  -2.828 -13.181  1.00  0.00     0.210 HD
ENDBRANCH  94  95
BRANCH  94  97
HETATM   97  C   LIG     1      13.275  -5.325 -12.419  1.00  0.00     0.032 C 
BRANCH  97  98
HETATM   98  C   LIG     1      14.412  -4.668 -13.215  1.00  0.00     0.002 C 
BRANCH  98  99
HETATM   99  C   LIG     1      15.843  -5.081 -12.853  1.00  0.00     0.000 C 
BRANCH  99 100
HETATM  100  C   LIG     1      16.131  -6.584 -12.840  1.00  0.00     0.000 C 
BRANCH 100 101
HETATM  101  C   LIG     1      15.997  -7.195 -11.444  1.00  0.00     0.000 C 
BRANCH 101 102
HETATM  102  C   LIG     1      16.595  -8.598 -11.334  1.00  0.00     0.000 C 
BRANCH 102 103
HETATM  103  C   LIG     1      15.943  -9.635 -12.250  1.00  0.00     0.000 C 
BRANCH 103 104
HETATM  104  C   LIG     1      16.618 -10.994 -12.055  1.00  0.00     0.000 C 
BRANCH 104 105
HETATM  105  C   LIG     1      16.083 -12.064 -13.007  1.00  0.00    -0.000 C 
BRANCH 105 106
HETATM  106  C   LIG     1      16.980 -13.303 -12.958  1.00  0.00    -0.005 C 
HETATM  107  C   LIG     1      16.429 -14.465 -13.773  1.00  0.00     0.005 C 
ENDBRANCH 105 106
ENDBRANCH 104 105
ENDBRANCH 103 104
ENDBRANCH 102 103
ENDBRANCH 101 102
ENDBRANCH 100 101
ENDBRANCH  99 100
ENDBRANCH  98  99
ENDBRANCH  97  98
ENDBRANCH  94  97
ENDBRANCH  93  94
ENDBRANCH  90  93
ENDBRANCH   6  89
TORSDOF 56
