REMARK WARNING: 32 MAX_TORS EXCEEDED!!!
REMARK  90 active torsions:
REMARK  status: ('A' for Active; 'I' for Inactive)
REMARK    1  A    between atoms: C_1  and  C_7 
REMARK    2  A    between atoms: C_2  and  O_33 
REMARK    3  A    between atoms: C_3  and  O_32 
REMARK    4  A    between atoms: C_4  and  N_31 
REMARK    5  A    between atoms: C_5  and  O_30 
REMARK    6  A    between atoms: C_7  and  O_8 
REMARK    7  A    between atoms: O_8  and  C_9 
REMARK    8  A    between atoms: C_11  and  C_15 
REMARK    9  A    between atoms: C_12  and  O_36 
REMARK   10  A    between atoms: C_13  and  O_35 
REMARK   11  A    between atoms: C_14  and  N_34 
REMARK   12  A    between atoms: C_15  and  O_16 
REMARK   13  A    between atoms: O_16  and  C_17 
REMARK   14  A    between atoms: C_17  and  C_50 
REMARK   15  A    between atoms: C_19  and  C_38 
REMARK   16  A    between atoms: C_20  and  O_37 
REMARK   17  A    between atoms: C_21  and  O_23 
REMARK   18  A    between atoms: O_23  and  C_24 
REMARK   19  A    between atoms: C_24  and  C_54 
REMARK   20  A    between atoms: C_26  and  C_41 
REMARK   21  A    between atoms: C_27  and  O_40 
REMARK   22  A    between atoms: C_28  and  O_39 
REMARK   23  A    between atoms: O_30  and  P_42 
REMARK       I    between atoms: N_31  and  C_62 
REMARK   24  A    between atoms: O_32  and  C_78 
REMARK       I    between atoms: N_34  and  C_92 
REMARK   25  A    between atoms: O_35  and  C_106 
REMARK   26  A    between atoms: O_36  and  P_45 
REMARK   27  A    between atoms: C_38  and  C_47 
REMARK   28  A    between atoms: C_38  and  O_49 
REMARK   29  A    between atoms: C_41  and  C_53 
REMARK   30  A    between atoms: C_41  and  O_58 
REMARK   31  A    between atoms: C_47  and  O_48 
REMARK   32  A    between atoms: C_53  and  O_57 
REMARK   33  A    between atoms: C_62  and  C_63 
REMARK   34  A    between atoms: C_63  and  C_64 
REMARK   35  A    between atoms: C_64  and  C_65 
REMARK   36  A    between atoms: C_64  and  O_77 
REMARK   37  A    between atoms: C_65  and  C_66 
REMARK   38  A    between atoms: C_66  and  C_67 
REMARK   39  A    between atoms: C_67  and  C_68 
REMARK   40  A    between atoms: C_68  and  C_69 
REMARK   41  A    between atoms: C_69  and  C_70 
REMARK   42  A    between atoms: C_70  and  C_71 
REMARK   43  A    between atoms: C_71  and  C_72 
REMARK   44  A    between atoms: C_72  and  C_73 
REMARK   45  A    between atoms: C_73  and  C_74 
REMARK   46  A    between atoms: C_78  and  C_79 
REMARK   47  A    between atoms: C_79  and  C_80 
REMARK   48  A    between atoms: C_80  and  C_81 
REMARK   49  A    between atoms: C_80  and  O_131 
REMARK   50  A    between atoms: C_81  and  C_82 
REMARK   51  A    between atoms: C_82  and  C_83 
REMARK   52  A    between atoms: C_83  and  C_84 
REMARK   53  A    between atoms: C_84  and  C_85 
REMARK   54  A    between atoms: C_85  and  C_86 
REMARK   55  A    between atoms: C_86  and  C_87 
REMARK   56  A    between atoms: C_87  and  C_88 
REMARK   57  A    between atoms: C_88  and  C_89 
REMARK   58  A    between atoms: C_89  and  C_90 
REMARK   59  A    between atoms: C_92  and  C_93 
REMARK   60  A    between atoms: C_93  and  C_94 
REMARK   61  A    between atoms: C_94  and  C_95 
REMARK   62  A    between atoms: C_94  and  O_129 
REMARK   63  A    between atoms: C_95  and  C_96 
REMARK   64  A    between atoms: C_96  and  C_97 
REMARK   65  A    between atoms: C_97  and  C_98 
REMARK   66  A    between atoms: C_98  and  C_99 
REMARK   67  A    between atoms: C_99  and  C_100 
REMARK   68  A    between atoms: C_100  and  C_101 
REMARK   69  A    between atoms: C_101  and  C_102 
REMARK   70  A    between atoms: C_102  and  C_103 
REMARK   71  A    between atoms: C_103  and  C_104 
REMARK   72  A    between atoms: C_106  and  C_107 
REMARK   73  A    between atoms: C_107  and  C_108 
REMARK   74  A    between atoms: C_108  and  C_109 
REMARK   75  A    between atoms: C_108  and  O_127 
REMARK   76  A    between atoms: C_109  and  C_110 
REMARK   77  A    between atoms: C_110  and  C_111 
REMARK   78  A    between atoms: C_111  and  C_112 
REMARK   79  A    between atoms: C_112  and  C_113 
REMARK   80  A    between atoms: C_113  and  C_114 
REMARK   81  A    between atoms: C_114  and  C_115 
REMARK   82  A    between atoms: C_115  and  C_116 
REMARK   83  A    between atoms: C_116  and  C_117 
REMARK   84  A    between atoms: C_117  and  C_118 
REMARK   85  A    between atoms: C_118  and  C_119 
REMARK   86  A    between atoms: C_119  and  C_120 
REMARK   87  A    between atoms: C_120  and  C_121 
REMARK   88  A    between atoms: C_121  and  C_122 
REMARK   89  A    between atoms: C_122  and  C_123 
REMARK   90  A    between atoms: C_123  and  C_124 
ROOT
HETATM    1  C   LIG     1       9.034  13.205  -0.556  1.00  0.00     0.285 C 
HETATM    2  O   LIG     1       8.325  13.530  -1.759  1.00  0.00    -0.349 OA
HETATM    3  C   LIG     1       7.034  14.115  -1.384  1.00  0.00     0.180 C 
HETATM    4  C   LIG     1       6.335  13.199  -0.317  1.00  0.00     0.198 C 
HETATM    5  C   LIG     1       6.980  11.759  -0.313  1.00  0.00     0.191 C 
HETATM    6  C   LIG     1       8.459  11.871   0.109  1.00  0.00     0.171 C 
ENDROOT
BRANCH   1   7
HETATM    7  O   LIG     1      10.478  13.200  -0.618  1.00  0.00    -0.356 OA
BRANCH   7   8
HETATM    8  C   LIG     1      11.109  12.969  -1.885  1.00  0.00     0.205 C 
BRANCH   8   9
HETATM    9  C   LIG     1      11.992  11.689  -1.837  1.00  0.00     0.180 C 
HETATM   10  C   LIG     1      11.142  10.516  -1.337  1.00  0.00     0.181 C 
HETATM   11  C   LIG     1      11.801   9.328  -0.568  1.00  0.00     0.190 C 
HETATM   12  C   LIG     1      13.136   9.746   0.125  1.00  0.00     0.172 C 
HETATM   13  C   LIG     1      13.897  10.730  -0.806  1.00  0.00     0.299 C 
HETATM   14  O   LIG     1      13.085  11.921  -0.942  1.00  0.00    -0.348 OA
BRANCH  10  15
HETATM   15  O   LIG     1      10.021  10.280  -2.205  1.00  0.00    -0.390 OA
HETATM   16  H   LIG     1      10.387   9.951  -3.049  1.00  0.00     0.210 HD
ENDBRANCH  10  15
BRANCH  11  17
HETATM   17  O   LIG     1      11.742   7.952  -1.041  1.00  0.00    -0.311 OA
BRANCH  17  18
HETATM   18  C   LIG     1      11.454   7.647  -2.328  1.00  0.00     0.261 C 
HETATM   19  O   LIG     1      11.825   8.305  -3.293  1.00  0.00    -0.265 OA
BRANCH  18  20
HETATM   20  C   LIG     1      10.312   6.632  -2.398  1.00  0.00     0.142 C 
BRANCH  20  21
HETATM   21  C   LIG     1      10.647   5.147  -2.385  1.00  0.00     0.127 C 
BRANCH  21  22
HETATM   22  C   LIG     1      11.231   4.653  -1.062  1.00  0.00     0.032 C 
BRANCH  22  23
HETATM   23  C   LIG     1      11.618   3.166  -1.103  1.00  0.00     0.002 C 
BRANCH  23  24
HETATM   24  C   LIG     1      12.390   2.689   0.131  1.00  0.00     0.000 C 
BRANCH  24  25
HETATM   25  C   LIG     1      13.702   3.423   0.438  1.00  0.00     0.000 C 
BRANCH  25  26
HETATM   26  C   LIG     1      14.953   2.950  -0.308  1.00  0.00     0.000 C 
BRANCH  26  27
HETATM   27  C   LIG     1      14.991   3.054  -1.836  1.00  0.00     0.000 C 
BRANCH  27  28
HETATM   28  C   LIG     1      14.768   4.461  -2.401  1.00  0.00     0.000 C 
BRANCH  28  29
HETATM   29  C   LIG     1      15.207   4.640  -3.864  1.00  0.00     0.000 C 
BRANCH  29  30
HETATM   30  C   LIG     1      14.266   4.165  -4.981  1.00  0.00    -0.000 C 
BRANCH  30  31
HETATM   31  C   LIG     1      13.838   2.699  -4.992  1.00  0.00    -0.005 C 
HETATM   32  C   LIG     1      14.998   1.738  -5.185  1.00  0.00     0.005 C 
ENDBRANCH  30  31
ENDBRANCH  29  30
ENDBRANCH  28  29
ENDBRANCH  27  28
ENDBRANCH  26  27
ENDBRANCH  25  26
ENDBRANCH  24  25
ENDBRANCH  23  24
ENDBRANCH  22  23
ENDBRANCH  21  22
BRANCH  21  33
HETATM   33  O   LIG     1      11.491   4.793  -3.476  1.00  0.00    -0.395 OA
HETATM   34  H   LIG     1      11.430   5.485  -4.155  1.00  0.00     0.210 HD
ENDBRANCH  21  33
ENDBRANCH  20  21
ENDBRANCH  18  20
ENDBRANCH  17  18
ENDBRANCH  11  17
BRANCH  12  35
HETATM   35  N   LIG     1      12.839  10.418   1.446  1.00  0.00    -0.349 N 
HETATM   36  C   LIG     1      12.773   9.761   2.650  1.00  0.00     0.220 C 
HETATM   37  O   LIG     1      12.698   8.534   2.740  1.00  0.00    -0.274 OA
HETATM   38  H   LIG     1      12.580  11.407   1.403  1.00  0.00     0.163 HD
BRANCH  36  39
HETATM   39  C   LIG     1      12.875  10.648   3.897  1.00  0.00     0.134 C 
BRANCH  39  40
HETATM   40  C   LIG     1      12.150  10.005   5.106  1.00  0.00     0.127 C 
BRANCH  40  41
HETATM   41  C   LIG     1      12.015  10.957   6.319  1.00  0.00     0.032 C 
BRANCH  41  42
HETATM   42  C   LIG     1      11.135  10.398   7.483  1.00  0.00     0.002 C 
BRANCH  42  43
HETATM   43  C   LIG     1      11.019  11.403   8.658  1.00  0.00     0.000 C 
BRANCH  43  44
HETATM   44  C   LIG     1      10.770  10.802  10.073  1.00  0.00     0.000 C 
BRANCH  44  45
HETATM   45  C   LIG     1      10.912  11.785  11.291  1.00  0.00     0.000 C 
BRANCH  45  46
HETATM   46  C   LIG     1      12.138  11.609  12.252  1.00  0.00     0.000 C 
BRANCH  46  47
HETATM   47  C   LIG     1      12.865  12.908  12.717  1.00  0.00     0.000 C 
BRANCH  47  48
HETATM   48  C   LIG     1      14.309  13.172  12.224  1.00  0.00     0.000 C 
BRANCH  48  49
HETATM   49  C   LIG     1      14.483  13.724  10.811  1.00  0.00    -0.000 C 
BRANCH  49  50
HETATM   50  C   LIG     1      13.854  12.860   9.745  1.00  0.00    -0.005 C 
HETATM   51  C   LIG     1      14.332  11.417   9.706  1.00  0.00     0.005 C 
ENDBRANCH  49  50
ENDBRANCH  48  49
ENDBRANCH  47  48
ENDBRANCH  46  47
ENDBRANCH  45  46
ENDBRANCH  44  45
ENDBRANCH  43  44
ENDBRANCH  42  43
ENDBRANCH  41  42
ENDBRANCH  40  41
BRANCH  40  52
HETATM   52  O   LIG     1      12.874   8.839   5.526  1.00  0.00    -0.395 OA
HETATM   53  H   LIG     1      13.000   8.324   4.693  1.00  0.00     0.210 HD
ENDBRANCH  40  52
ENDBRANCH  39  40
ENDBRANCH  36  39
ENDBRANCH  12  35
BRANCH  13  54
HETATM   54  O   LIG     1      15.146  11.097  -0.264  1.00  0.00    -0.249 OA
BRANCH  54  55
HETATM   55  P   LIG     1      16.392  10.212  -0.863  1.00  0.00     0.424 P 
HETATM   56  O   LIG     1      16.027   8.780  -0.494  1.00  0.00    -0.617 OA
HETATM   57  O   LIG     1      17.618  10.766  -0.153  1.00  0.00    -0.617 OA
HETATM   58  O   LIG     1      16.339  10.469  -2.369  1.00  0.00    -0.617 OA
ENDBRANCH  54  55
ENDBRANCH  13  54
ENDBRANCH   8   9
ENDBRANCH   7   8
ENDBRANCH   1   7
BRANCH   6  59
HETATM   59  N   LIG     1       9.081  11.837   1.481  1.00  0.00    -0.349 N 
HETATM   60  C   LIG     1       9.027  11.312   2.710  1.00  0.00     0.220 C 
HETATM   61  O   LIG     1      10.101  11.333   3.333  1.00  0.00    -0.274 OA
HETATM   62  H   LIG     1      10.056  12.127   1.368  1.00  0.00     0.163 HD
BRANCH  60  63
HETATM   63  C   LIG     1       7.814  10.732   3.362  1.00  0.00     0.134 C 
BRANCH  63  64
HETATM   64  C   LIG     1       7.007  11.681   4.293  1.00  0.00     0.127 C 
BRANCH  64  65
HETATM   65  C   LIG     1       5.936  12.610   3.641  1.00  0.00     0.032 C 
BRANCH  65  66
HETATM   66  C   LIG     1       5.058  11.760   2.744  1.00  0.00     0.002 C 
BRANCH  66  67
HETATM   67  C   LIG     1       3.777  11.887   1.918  1.00  0.00     0.000 C 
BRANCH  67  68
HETATM   68  C   LIG     1       3.136  13.167   1.421  1.00  0.00     0.000 C 
BRANCH  68  69
HETATM   69  C   LIG     1       1.856  12.852   0.612  1.00  0.00     0.000 C 
BRANCH  69  70
HETATM   70  C   LIG     1       0.686  13.785   0.939  1.00  0.00     0.000 C 
BRANCH  70  71
HETATM   71  C   LIG     1       0.431  13.987   2.439  1.00  0.00     0.000 C 
BRANCH  71  72
HETATM   72  C   LIG     1       0.448  12.682   3.248  1.00  0.00     0.000 C 
BRANCH  72  73
HETATM   73  C   LIG     1       0.498  12.936   4.754  1.00  0.00    -0.000 C 
BRANCH  73  74
HETATM   74  C   LIG     1       0.423  11.628   5.551  1.00  0.00    -0.005 C 
HETATM   75  C   LIG     1       1.747  10.879   5.637  1.00  0.00     0.005 C 
ENDBRANCH  73  74
ENDBRANCH  72  73
ENDBRANCH  71  72
ENDBRANCH  70  71
ENDBRANCH  69  70
ENDBRANCH  68  69
ENDBRANCH  67  68
ENDBRANCH  66  67
ENDBRANCH  65  66
ENDBRANCH  64  65
BRANCH  64  76
HETATM   76  O   LIG     1       7.861  12.485   5.101  1.00  0.00    -0.395 OA
HETATM   77  H   LIG     1       7.917  13.350   4.628  1.00  0.00     0.210 HD
ENDBRANCH  64  76
ENDBRANCH  63  64
ENDBRANCH  60  63
ENDBRANCH   6  59
BRANCH   3  78
HETATM   78  C   LIG     1       6.111  14.279  -2.615  1.00  0.00     0.207 C 
BRANCH  78  79
HETATM   79  O   LIG     1       6.627  15.234  -3.548  1.00  0.00    -0.344 OA
BRANCH  79  80
HETATM   80  C   LIG     1       5.883  15.442  -4.770  1.00  0.00     0.258 C 
HETATM   81  O   LIG     1       4.566  15.942  -4.508  1.00  0.00    -0.336 OA
HETATM   82  C   LIG     1       3.500  15.529  -5.365  1.00  0.00     0.187 C 
HETATM   83  C   LIG     1       3.416  14.010  -5.287  1.00  0.00     0.179 C 
HETATM   84  C   LIG     1       4.656  13.342  -5.908  1.00  0.00     0.162 C 
HETATM   85  C   LIG     1       5.944  14.162  -5.633  1.00  0.00     0.115 C 
BRANCH  82  86
HETATM   86  C   LIG     1       3.243  16.259  -6.738  1.00  0.00     0.173 C 
BRANCH  86  87
HETATM   87  C   LIG     1       3.877  15.873  -8.091  1.00  0.00     0.198 C 
BRANCH  87  88
HETATM   88  O   LIG     1       5.287  15.973  -8.197  1.00  0.00    -0.398 OA
HETATM   89  H   LIG     1       5.579  16.707  -7.606  1.00  0.00     0.209 HD
ENDBRANCH  87  88
ENDBRANCH  86  87
BRANCH  86  90
HETATM   90  O   LIG     1       3.393  17.686  -6.556  1.00  0.00    -0.391 OA
HETATM   91  H   LIG     1       4.361  17.785  -6.336  1.00  0.00     0.210 HD
ENDBRANCH  86  90
ENDBRANCH  82  86
BRANCH  83  92
HETATM   92  O   LIG     1       2.165  13.512  -5.782  1.00  0.00    -0.390 OA
HETATM   93  H   LIG     1       1.480  13.926  -5.233  1.00  0.00     0.210 HD
ENDBRANCH  83  92
BRANCH  84  94
HETATM   94  O   LIG     1       4.379  13.105  -7.299  1.00  0.00    -0.338 OA
BRANCH  94  95
HETATM   95  C   LIG     1       5.134  12.124  -8.057  1.00  0.00     0.259 C 
HETATM   96  O   LIG     1       5.249  10.882  -7.311  1.00  0.00    -0.336 OA
HETATM   97  C   LIG     1       6.252   9.951  -7.728  1.00  0.00     0.187 C 
HETATM   98  C   LIG     1       7.648  10.586  -7.942  1.00  0.00     0.178 C 
HETATM   99  C   LIG     1       7.593  12.072  -7.614  1.00  0.00     0.155 C 
HETATM  100  C   LIG     1       6.497  12.703  -8.455  1.00  0.00     0.115 C 
BRANCH  97 101
HETATM  101  C   LIG     1       5.846   9.057  -8.901  1.00  0.00     0.173 C 
BRANCH 101 102
HETATM  102  C   LIG     1       4.583   8.235  -8.659  1.00  0.00     0.198 C 
BRANCH 102 103
HETATM  103  O   LIG     1       4.296   7.523  -9.868  1.00  0.00    -0.398 OA
HETATM  104  H   LIG     1       5.188   7.355 -10.233  1.00  0.00     0.209 HD
ENDBRANCH 102 103
ENDBRANCH 101 102
BRANCH 101 105
HETATM  105  O   LIG     1       6.899   8.127  -9.182  1.00  0.00    -0.391 OA
HETATM  106  H   LIG     1       7.672   8.724  -9.332  1.00  0.00     0.210 HD
ENDBRANCH 101 105
ENDBRANCH  97 101
BRANCH  98 107
HETATM  107  O   LIG     1       8.143  10.430  -9.295  1.00  0.00    -0.390 OA
HETATM  108  H   LIG     1       8.615  11.271  -9.467  1.00  0.00     0.210 HD
ENDBRANCH  98 107
BRANCH  99 109
HETATM  109  O   LIG     1       8.856  12.666  -7.929  1.00  0.00    -0.393 OA
HETATM  110  H   LIG     1       8.894  13.483  -7.386  1.00  0.00     0.210 HD
ENDBRANCH  99 109
BRANCH  95 111
HETATM  111  C   LIG     1       4.319  11.899  -9.464  1.00  0.00     0.239 C 
HETATM  112  O   LIG     1       3.978  10.703  -9.743  1.00  0.00    -0.644 OA
HETATM  113  O   LIG     1       4.151  12.941 -10.175  1.00  0.00    -0.644 OA
ENDBRANCH  95 111
ENDBRANCH  94  95
ENDBRANCH  84  94
BRANCH  80 114
HETATM  114  C   LIG     1       6.685  16.625  -5.587  1.00  0.00     0.239 C 
HETATM  115  O   LIG     1       5.945  17.443  -6.243  1.00  0.00    -0.644 OA
HETATM  116  O   LIG     1       7.949  16.563  -5.624  1.00  0.00    -0.644 OA
ENDBRANCH  80 114
ENDBRANCH  79  80
ENDBRANCH  78  79
ENDBRANCH   3  78
BRANCH   5 117
HETATM  117  O   LIG     1       6.190  10.709   0.369  1.00  0.00    -0.311 OA
BRANCH 117 118
HETATM  118  C   LIG     1       6.097   9.348   0.179  1.00  0.00     0.261 C 
HETATM  119  O   LIG     1       6.695   8.703  -0.602  1.00  0.00    -0.265 OA
BRANCH 118 120
HETATM  120  C   LIG     1       4.931   8.819   1.096  1.00  0.00     0.142 C 
BRANCH 120 121
HETATM  121  C   LIG     1       4.869   7.348   1.555  1.00  0.00     0.127 C 
BRANCH 121 122
HETATM  122  C   LIG     1       3.571   6.542   1.235  1.00  0.00     0.032 C 
BRANCH 122 123
HETATM  123  C   LIG     1       2.171   7.078   1.612  1.00  0.00     0.002 C 
BRANCH 123 124
HETATM  124  C   LIG     1       1.695   7.141   3.079  1.00  0.00     0.000 C 
BRANCH 124 125
HETATM  125  C   LIG     1       1.166   5.853   3.761  1.00  0.00     0.000 C 
BRANCH 125 126
HETATM  126  C   LIG     1       2.246   4.891   4.273  1.00  0.00     0.000 C 
BRANCH 126 127
HETATM  127  C   LIG     1       1.854   4.084   5.535  1.00  0.00     0.000 C 
BRANCH 127 128
HETATM  128  C   LIG     1       0.676   3.105   5.433  1.00  0.00     0.000 C 
BRANCH 128 129
HETATM  129  C   LIG     1       0.910   1.808   4.637  1.00  0.00     0.000 C 
BRANCH 129 130
HETATM  130  C   LIG     1       1.790   0.766   5.352  1.00  0.00     0.000 C 
BRANCH 130 131
HETATM  131  C   LIG     1       1.937  -0.559   4.571  1.00  0.00     0.000 C 
BRANCH 131 132
HETATM  132  C   LIG     1       0.685  -1.458   4.519  1.00  0.00     0.000 C 
BRANCH 132 133
HETATM  133  C   LIG     1       0.527  -2.372   5.745  1.00  0.00     0.000 C 
BRANCH 133 134
HETATM  134  C   LIG     1      -0.888  -2.942   5.933  1.00  0.00     0.000 C 
BRANCH 134 135
HETATM  135  C   LIG     1      -1.465  -3.801   4.800  1.00  0.00     0.000 C 
BRANCH 135 136
HETATM  136  C   LIG     1      -0.975  -5.251   4.690  1.00  0.00    -0.000 C 
BRANCH 136 137
HETATM  137  C   LIG     1      -1.160  -6.088   5.959  1.00  0.00    -0.005 C 
HETATM  138  C   LIG     1      -1.105  -7.583   5.666  1.00  0.00     0.005 C 
ENDBRANCH 136 137
ENDBRANCH 135 136
ENDBRANCH 134 135
ENDBRANCH 133 134
ENDBRANCH 132 133
ENDBRANCH 131 132
ENDBRANCH 130 131
ENDBRANCH 129 130
ENDBRANCH 128 129
ENDBRANCH 127 128
ENDBRANCH 126 127
ENDBRANCH 125 126
ENDBRANCH 124 125
ENDBRANCH 123 124
ENDBRANCH 122 123
ENDBRANCH 121 122
BRANCH 121 139
HETATM  139  O   LIG     1       5.054   7.246   2.975  1.00  0.00    -0.395 OA
HETATM  140  H   LIG     1       4.540   7.952   3.399  1.00  0.00     0.210 HD
ENDBRANCH 121 139
ENDBRANCH 120 121
ENDBRANCH 118 120
ENDBRANCH 117 118
ENDBRANCH   5 117
BRANCH   4 141
HETATM  141  O   LIG     1       6.494  13.759   0.984  1.00  0.00    -0.272 OA
BRANCH 141 142
HETATM  142  P   LIG     1       5.908  15.258   1.316  1.00  0.00     0.422 P 
HETATM  143  O   LIG     1       5.142  15.643   0.053  1.00  0.00    -0.617 OA
HETATM  144  O   LIG     1       7.166  16.045   1.601  1.00  0.00    -0.617 OA
HETATM  145  O   LIG     1       5.016  15.089   2.542  1.00  0.00    -0.617 OA
ENDBRANCH 141 142
ENDBRANCH   4 141
TORSDOF 90
