pdbs/aod5-77.pdb
 OpenBabel07211515343D

 31 33  0  0  1  0  0  0  0  0999 V2000
   -5.8480   -0.5760   -0.5180 C   0  0  0  0  0  0  0  0  0  0  0  0
   -5.9600    0.7340   -0.8760 O   0  0  0  0  0  0  0  0  0  0  0  0
   -4.9770    1.5210   -0.2590 C   0  0  0  0  0  0  0  0  0  0  0  0
   -3.5540    1.0790   -0.2530 C   0  0  2  0  0  0  0  0  0  0  0  0
   -3.3960   -0.1910    0.1390 C   0  0  0  0  0  0  0  0  0  0  0  0
   -4.6380   -1.0030    0.3280 C   0  0  1  0  0  0  0  0  0  0  0  0
   -1.2060    1.3190   -0.3740 N   0  0  0  0  0  0  0  0  0  0  0  0
   -0.9510    0.0310    0.0120 C   0  0  0  0  0  0  0  0  0  0  0  0
   -1.9850   -0.7810    0.2620 C   0  0  0  0  0  0  0  0  0  0  0  0
    0.4850   -0.1910    0.1190 C   0  0  0  0  0  0  0  0  0  0  0  0
    1.0980    1.0030   -0.2350 C   0  0  0  0  0  0  0  0  0  0  0  0
    0.0330    2.0080   -0.5400 C   0  0  0  0  0  0  0  0  0  0  0  0
    2.4660    1.0910   -0.2520 C   0  0  0  0  0  0  0  0  0  0  0  0
    3.1810   -0.0540    0.1100 C   0  0  0  0  0  0  0  0  0  0  0  0
    2.4730   -1.2280    0.4830 C   0  0  0  0  0  0  0  0  0  0  0  0
    1.1220   -1.3080    0.4900 N   0  0  0  0  0  0  0  0  0  0  0  0
    4.5850   -0.0400    0.1000 C   0  0  1  0  0  0  0  0  0  0  0  0
    5.3680   -1.1560    0.4330 C   0  0  0  0  0  0  0  0  0  0  0  0
    4.6320   -2.2840    0.8140 C   0  0  0  0  0  0  0  0  0  0  0  0
    3.2330   -2.3240    0.8420 C   0  0  0  0  0  0  0  0  0  0  0  0
   -6.6810   -1.4030   -0.8970 O   0  0  0  0  0  0  0  0  0  0  0  0
   -5.0010   -0.9870    1.5860 O   0  0  0  0  0  0  0  0  0  0  0  0
   -2.5450    3.1430   -0.8100 O   0  0  0  0  0  0  0  0  0  0  0  0
   -2.3910    1.9660   -0.5050 C   0  0  0  0  0  0  0  0  0  0  0  0
    6.6400   -1.1350    0.3880 O   0  0  0  0  0  0  0  0  0  0  0  0
    5.3330    1.1710   -0.3870 C   0  0  0  0  0  0  0  0  0  0  0  0
    5.3740    2.6620    0.4430 N   0  0  0  0  0  0  0  0  0  0  0  0
    5.3340    1.1750   -0.3800 C   0  0  0  0  0  0  0  0  0  0  0  0
    5.3340    1.1740   -0.3810 C   0  0  0  0  0  0  0  0  0  0  0  0
   -4.3230   -2.4520   -0.0740 C   0  0  0  0  0  0  0  0  0  0  0  0
   -3.2390   -3.2500    0.6570 C   0  0  0  0  0  0  0  0  0  0  0  0
  1  6  1  0  0  0  0
  2  1  1  0  0  0  0
  2  3  1  0  0  0  0
  3  4  1  0  0  0  0
  4 24  1  1  0  0  0
  4  5  1  0  0  0  0
  5  9  2  0  0  0  0
  5  6  1  0  0  0  0
  6 30  1  6  0  0  0
  6 22  1  0  0  0  0
  7  8  1  0  0  0  0
  8 10  2  0  0  0  0
  8  9  1  0  0  0  0
 10 16  1  0  0  0  0
 11 10  1  0  0  0  0
 12  7  1  0  0  0  0
 12 11  2  0  0  0  0
 13 11  1  0  0  0  0
 13 14  2  0  0  0  0
 14 15  1  0  0  0  0
 15 16  2  0  0  0  0
 15 20  1  0  0  0  0
 17 26  1  6  0  0  0
 17 14  1  0  0  0  0
 17 18  1  0  0  0  0
 18 19  1  0  0  0  0
 19 20  2  0  0  0  0
 21  1  2  0  0  0  0
 23 24  2  0  0  0  0
 24  7  1  0  0  0  0
 25 18  2  0  0  0  0
 28 27  1  0  0  0  0
 30 31  1  0  0  0  0
M  END
