pdbs/aod5-40.pdb
 OpenBabel07211515343D

 45 49  0  0  1  0  0  0  0  0999 V2000
   -2.9580   -1.3590    0.5260 O   0  0  0  0  0  0  0  0  0  0  0  0
   -3.5310    0.2830   -4.3300 O   0  0  0  0  0  0  0  0  0  0  0  0
   -1.2010    0.8610   -3.0990 C   0  0  0  0  0  0  0  0  0  0  0  0
   -0.0580    1.1000   -2.4220 C   0  0  0  0  0  0  0  0  0  0  0  0
    2.0170    2.5870   -2.1530 C   0  0  2  0  0  0  0  0  0  0  0  0
    1.0220    1.9280   -3.1030 C   0  0  0  0  0  0  0  0  0  0  0  0
   -2.2110    0.1790   -2.5000 C   0  0  0  0  0  0  0  0  0  0  0  0
   -3.3710   -0.0710   -3.1780 C   0  0  0  0  0  0  0  0  0  0  0  0
   -4.3820   -0.7390   -2.5500 C   0  0  0  0  0  0  0  0  0  0  0  0
   -5.5220   -0.9620   -3.2350 C   0  0  0  0  0  0  0  0  0  0  0  0
   -6.5480   -1.6090   -2.6790 C   0  0  0  0  0  0  0  0  0  0  0  0
    2.5460    1.4820   -1.2500 C   0  0  0  0  0  0  0  0  0  0  0  0
    0.1090    0.6390   -1.1720 C   0  0  0  0  0  0  0  0  0  0  0  0
   -2.0730   -0.2580   -1.2280 C   0  0  0  0  0  0  0  0  0  0  0  0
   -4.2680   -1.1780   -1.2790 C   0  0  0  0  0  0  0  0  0  0  0  0
   -6.4270   -2.0370   -1.4210 C   0  0  0  0  0  0  0  0  0  0  0  0
    1.4280    0.8560   -0.4160 C   0  0  1  0  0  0  0  0  0  0  0  0
   -0.9100   -0.0120   -0.5670 C   0  0  0  0  0  0  0  0  0  0  0  0
   -3.0930   -0.9440   -0.6090 C   0  0  0  0  0  0  0  0  0  0  0  0
   -5.3090   -1.8440   -0.6910 C   0  0  0  0  0  0  0  0  0  0  0  0
    1.8910   -0.3870    0.0780 O   0  0  0  0  0  0  0  0  0  0  0  0
    2.7120   -0.3220    1.2260 C   0  0  1  0  0  0  0  0  0  0  0  0
    1.8240   -0.0970    2.3030 O   0  0  0  0  0  0  0  0  0  0  0  0
    2.4560   -0.1180    3.5570 C   0  0  1  0  0  0  0  0  0  0  0  0
    1.4010    0.1780    4.6220 C   0  0  0  0  0  0  0  0  0  0  0  0
    3.1210   -1.4660    3.7860 C   0  0  1  0  0  0  0  0  0  0  0  0
    4.1490   -1.7160    2.6920 C   0  0  2  0  0  0  0  0  0  0  0  0
    3.4240   -1.6660    1.3510 C   0  0  0  0  0  0  0  0  0  0  0  0
    3.8090   -1.5270    5.0080 O   0  0  0  0  0  0  0  0  0  0  0  0
    4.1230   -0.6700    5.3030 H   0  0  0  0  0  0  0  0  0  0  0  0
    4.6940   -3.1030    2.9100 N   0  0  0  0  0  0  0  0  0  0  0  0
    3.9080   -3.7910    2.8980 H   0  0  0  0  0  0  0  0  0  0  0  0
    5.1810   -3.1470    3.8340 H   0  0  0  0  0  0  0  0  0  0  0  0
    5.3700   -3.3340    2.1480 H   0  0  0  0  0  0  0  0  0  0  0  0
    1.3980    3.7120   -1.3120 C   0  0  0  0  0  0  0  0  0  0  0  0
    0.2120    3.7560   -1.0770 O   0  0  0  0  0  0  0  0  0  0  0  0
    2.3350    4.7720   -0.7570 C   0  0  0  0  0  0  0  0  0  0  0  0
    3.0890    3.0880   -2.9250 O   0  0  0  0  0  0  0  0  0  0  0  0
    2.7680    3.5820   -3.6830 H   0  0  0  0  0  0  0  0  0  0  0  0
   -0.7110   -0.3770    0.7350 O   0  0  0  0  0  0  0  0  0  0  0  0
    0.1000    0.0170    1.0830 H   0  0  0  0  0  0  0  0  0  0  0  0
   -1.2570    1.3830   -4.3640 O   0  0  0  0  0  0  0  0  0  0  0  0
   -2.1410    1.5830   -4.6950 H   0  0  0  0  0  0  0  0  0  0  0  0
   -5.2460   -2.3090    0.6060 O   0  0  0  0  0  0  0  0  0  0  0  0
   -6.3390   -2.9780    1.1920 C   0  0  0  0  0  0  0  0  0  0  0  0
  2  8  2  0  0  0  0
  3  7  2  0  0  0  0
  3  4  1  0  0  0  0
  4 13  2  0  0  0  0
  5 38  1  6  0  0  0
  5 35  1  0  0  0  0
  5 12  1  0  0  0  0
  6  4  1  0  0  0  0
  6  5  1  0  0  0  0
  7 14  1  0  0  0  0
  8  9  1  0  0  0  0
  8  7  1  0  0  0  0
  9 15  2  0  0  0  0
 10 11  2  0  0  0  0
 10  9  1  0  0  0  0
 11 16  1  0  0  0  0
 12 17  1  0  0  0  0
 13 18  1  0  0  0  0
 13 17  1  0  0  0  0
 14 19  1  0  0  0  0
 14 18  2  0  0  0  0
 15 20  1  0  0  0  0
 15 19  1  0  0  0  0
 16 20  2  0  0  0  0
 17 21  1  6  0  0  0
 18 40  1  0  0  0  0
 19  1  2  0  0  0  0
 20 44  1  0  0  0  0
 22 21  1  1  0  0  0
 22 28  1  0  0  0  0
 22 23  1  0  0  0  0
 23 24  1  0  0  0  0
 24 26  1  0  0  0  0
 24 25  1  6  0  0  0
 26 29  1  1  0  0  0
 27 31  1  6  0  0  0
 27 26  1  0  0  0  0
 28 27  1  0  0  0  0
 29 30  1  0  0  0  0
 31 33  1  0  0  0  0
 32 31  1  0  0  0  0
 34 31  1  0  0  0  0
 35 36  2  0  0  0  0
 35 37  1  0  0  0  0
 39 38  1  0  0  0  0
 40 41  1  0  0  0  0
 42  3  1  0  0  0  0
 43 42  1  0  0  0  0
 44 45  1  0  0  0  0
M  END
