pdbs/aod5-7.pdb
 OpenBabel07211515343D

 28 31  0  0  0  0  0  0  0  0999 V2000
   -1.5930    0.0850   -1.0150 C   0  0  0  0  0  0  0  0  0  0  0  0
   -0.8590    0.1960   -2.2060 C   0  0  0  0  0  0  0  0  0  0  0  0
    0.5440    0.2150   -2.0980 C   0  0  0  0  0  0  0  0  0  0  0  0
    1.1260    0.1250   -0.8320 C   0  0  0  0  0  0  0  0  0  0  0  0
    0.4400    0.0170    0.3680 C   0  0  0  0  0  0  0  0  0  0  0  0
   -0.9530   -0.0170    0.2340 C   0  0  0  0  0  0  0  0  0  0  0  0
    2.7060    0.3250   -2.4360 N   0  0  0  0  0  0  0  0  0  0  0  0
    2.4480    0.1900   -1.1310 C   0  0  0  0  0  0  0  0  0  0  0  0
    1.4980    0.3080   -3.0570 N   0  0  0  0  0  0  0  0  0  0  0  0
   -3.3640   -0.0710   -1.1620 S   0  0  0  0  0  0  0  0  0  0  0  0
   -3.9520    0.9040    0.2080 C   0  0  0  0  0  0  0  0  0  0  0  0
   -4.3360    0.3530    1.4400 C   0  0  0  0  0  0  0  0  0  0  0  0
   -4.8270    1.1640    2.4670 C   0  0  0  0  0  0  0  0  0  0  0  0
   -4.9620    2.5330    2.2610 C   0  0  0  0  0  0  0  0  0  0  0  0
   -4.5990    3.0910    1.0380 C   0  0  0  0  0  0  0  0  0  0  0  0
   -4.1000    2.2800    0.0190 C   0  0  0  0  0  0  0  0  0  0  0  0
   -4.2100   -1.0830    1.7350 C   0  0  0  0  0  0  0  0  0  0  0  0
   -3.1720   -1.4850    2.2470 O   0  0  0  0  0  0  0  0  0  0  0  0
   -5.2770   -1.8040    1.4070 N   0  0  0  0  0  0  0  0  0  0  0  0
   -5.1310   -3.2230    1.1310 C   0  0  0  0  0  0  0  0  0  0  0  0
    3.5120    0.3320   -0.0850 C   0  0  0  0  0  0  0  0  0  0  0  0
    4.4270    1.2900   -0.2230 C   0  0  0  0  0  0  0  0  0  0  0  0
    5.3500    1.6350    0.9110 C   0  0  0  0  0  0  0  0  0  0  0  0
    4.8850    1.4790    2.2080 C   0  0  0  0  0  0  0  0  0  0  0  0
    5.7020    1.9010    3.2500 C   0  0  0  0  0  0  0  0  0  0  0  0
    6.9420    2.4620    2.9780 C   0  0  0  0  0  0  0  0  0  0  0  0
    7.3170    2.5750    1.6510 C   0  0  0  0  0  0  0  0  0  0  0  0
    6.5530    2.1760    0.6110 N   0  0  0  0  0  0  0  0  0  0  0  0
  1  6  1  0  0  0  0
  2  3  1  0  0  0  0
  2  1  2  0  0  0  0
  3  4  1  0  0  0  0
  4  5  1  0  0  0  0
  6  5  2  0  0  0  0
  7  8  1  0  0  0  0
  8  4  2  0  0  0  0
  8 21  1  0  0  0  0
  9  7  1  0  0  0  0
  9  3  2  0  0  0  0
 10  1  1  0  0  0  0
 10 11  1  0  0  0  0
 11 12  1  0  0  0  0
 12 17  1  0  0  0  0
 12 13  2  0  0  0  0
 14 13  1  0  0  0  0
 15 14  2  0  0  0  0
 16 11  2  0  0  0  0
 16 15  1  0  0  0  0
 17 18  2  0  0  0  0
 19 17  1  0  0  0  0
 20 19  1  0  0  0  0
 22 21  2  0  0  0  0
 22 23  1  0  0  0  0
 23 24  1  0  0  0  0
 24 25  2  0  0  0  0
 26 25  1  0  0  0  0
 27 26  2  0  0  0  0
 28 23  2  0  0  0  0
 28 27  1  0  0  0  0
M  END
