pdbs/aod5-90.pdb
 OpenBabel07211515343D

 26 30  0  0  1  0  0  0  0  0999 V2000
    4.5780   -1.3980    0.3630 C   0  0  0  0  0  0  0  0  0  0  0  0
    5.4570   -0.1500    0.4320 C   0  0  2  0  0  0  0  0  0  0  0  0
    4.9830    0.9990   -0.4590 C   0  0  0  0  0  0  0  0  0  0  0  0
    3.4840    1.1380   -0.6420 C   0  0  1  0  0  0  0  0  0  0  0  0
    2.6640   -0.0890   -0.8780 C   0  0  1  0  0  0  0  0  0  0  0  0
    3.0800   -1.1470    0.1630 C   0  0  0  0  0  0  0  0  0  0  0  0
    3.1540    1.8660    0.4270 C   0  0  0  0  0  0  0  0  0  0  0  0
    1.8170    1.5120    1.0670 C   0  0  0  0  0  0  0  0  0  0  0  0
    0.6640    1.1910    0.1080 C   0  0  1  0  0  0  0  0  0  0  0  0
    1.1520    0.1000   -0.8470 C   0  0  2  0  0  0  0  0  0  0  0  0
   -0.5840    0.9620    0.9540 C   0  0  2  0  0  0  0  0  0  0  0  0
   -1.5550   -0.1960    0.6550 C   0  0  2  0  0  0  0  0  0  0  0  0
   -0.9870   -1.1910   -0.3420 C   0  0  0  0  0  0  0  0  0  0  0  0
    0.5210   -1.2280   -0.4570 C   0  0  0  0  0  0  0  0  0  0  0  0
   -1.4720    2.2040    0.7820 C   0  0  0  0  0  0  0  0  0  0  0  0
   -2.8070    1.7670    0.2140 C   0  0  0  0  0  0  0  0  0  0  0  0
   -2.8000    0.4420    0.1140 C   0  0  0  0  0  0  0  0  0  0  0  0
   -4.0150   -0.3170   -0.0630 C   0  0  0  0  0  0  0  0  0  0  0  0
   -4.6470   -0.9400    1.0010 C   0  0  0  0  0  0  0  0  0  0  0  0
   -5.8200   -1.6040    0.8980 N   0  0  0  0  0  0  0  0  0  0  0  0
   -6.3910   -1.6290   -0.3260 C   0  0  0  0  0  0  0  0  0  0  0  0
   -5.8460   -1.0310   -1.4510 C   0  0  0  0  0  0  0  0  0  0  0  0
   -4.6370   -0.3630   -1.3050 C   0  0  0  0  0  0  0  0  0  0  0  0
    3.0770   -0.7400   -2.2070 C   0  0  0  0  0  0  0  0  0  0  0  0
   -1.8860   -0.9000    1.9740 C   0  0  0  0  0  0  0  0  0  0  0  0
    6.7900   -0.2810    0.7070 O   0  0  0  0  0  0  0  0  0  0  0  0
  1  2  1  0  0  0  0
  2 26  1  6  0  0  0
  3  2  1  0  0  0  0
  4  3  1  1  0  0  0
  4  7  1  0  0  0  0
  5 24  1  6  0  0  0
  5 10  1  0  0  0  0
  5  4  1  0  0  0  0
  5  6  1  0  0  0  0
  6  1  1  0  0  0  0
  7  8  1  0  0  0  0
  9 11  1  0  0  0  0
  9  8  1  1  0  0  0
 10 14  1  1  0  0  0
 10  9  1  0  0  0  0
 11 15  1  6  0  0  0
 12 11  1  0  0  0  0
 12 25  1  1  0  0  0
 13 12  1  0  0  0  0
 14 13  1  0  0  0  0
 16 15  1  0  0  0  0
 17 16  2  0  0  0  0
 17 12  1  0  0  0  0
 18 17  1  0  0  0  0
 18 19  2  0  0  0  0
 20 19  1  0  0  0  0
 21 20  2  0  0  0  0
 22 23  2  0  0  0  0
 22 21  1  0  0  0  0
 23 18  1  0  0  0  0
M  END
