pdbs/aod5-39.pdb
 OpenBabel07211515343D

 42 46  0  0  1  0  0  0  0  0999 V2000
    1.1150    0.2120    1.2360 C   0  0  1  0  0  0  0  0  0  0  0  0
   -0.1690    0.1650    2.0240 C   0  0  0  0  0  0  0  0  0  0  0  0
    1.3530    1.5180    0.4700 C   0  0  0  0  0  0  0  0  0  0  0  0
   -0.7430    1.3830    2.3700 C   0  0  0  0  0  0  0  0  0  0  0  0
   -0.7890   -1.0290    2.4070 C   0  0  0  0  0  0  0  0  0  0  0  0
    1.2230    2.8490    1.2330 C   0  0  1  0  0  0  0  0  0  0  0  0
   -1.9410    1.4060    3.0750 C   0  0  0  0  0  0  0  0  0  0  0  0
   -0.1760    2.6930    1.8700 C   0  0  0  0  0  0  0  0  0  0  0  0
   -1.9930   -1.0170    3.1350 C   0  0  0  0  0  0  0  0  0  0  0  0
   -2.5760    0.2180    3.4690 C   0  0  0  0  0  0  0  0  0  0  0  0
   -2.6610   -2.2840    3.5490 C   0  0  0  0  0  0  0  0  0  0  0  0
   -3.8570    0.2620    4.2150 C   0  0  0  0  0  0  0  0  0  0  0  0
   -2.1800   -3.3820    3.2960 O   0  0  0  0  0  0  0  0  0  0  0  0
   -3.9320   -2.2160    4.2900 C   0  0  0  0  0  0  0  0  0  0  0  0
   -4.3930    1.3240    4.5100 O   0  0  0  0  0  0  0  0  0  0  0  0
   -4.5060   -0.9930    4.6060 C   0  0  0  0  0  0  0  0  0  0  0  0
   -4.5610   -3.3980    4.6850 C   0  0  0  0  0  0  0  0  0  0  0  0
   -5.7090   -0.9400    5.3130 C   0  0  0  0  0  0  0  0  0  0  0  0
   -5.7590   -3.3480    5.3950 C   0  0  0  0  0  0  0  0  0  0  0  0
   -6.3340   -2.1190    5.7090 C   0  0  0  0  0  0  0  0  0  0  0  0
    2.2350   -0.4620    1.7190 O   0  0  0  0  0  0  0  0  0  0  0  0
    2.8220   -1.4800    0.9750 C   0  0  1  0  0  0  0  0  0  0  0  0
    2.1790   -1.9380   -0.3290 C   0  0  0  0  0  0  0  0  0  0  0  0
    2.5040   -3.3660   -0.7410 C   0  0  2  0  0  0  0  0  0  0  0  0
    3.7490   -3.9870   -0.0900 C   0  0  1  0  0  0  0  0  0  0  0  0
    4.3680   -3.2150    1.0940 C   0  0  2  0  0  0  0  0  0  0  0  0
    4.1510   -1.8360    1.2090 O   0  0  0  0  0  0  0  0  0  0  0  0
    5.5330   -3.8380    1.8710 C   0  0  0  0  0  0  0  0  0  0  0  0
    1.9400   -3.8950   -1.9730 N   0  0  0  0  0  0  0  0  0  0  0  0
    2.4080   -3.7160   -2.8610 H   0  0  0  0  0  0  0  0  0  0  0  0
    0.9470   -3.7570   -2.1600 H   0  0  0  0  0  0  0  0  0  0  0  0
    3.9420   -5.3710   -0.1700 O   0  0  0  0  0  0  0  0  0  0  0  0
    4.6710   -5.5660    0.4420 H   0  0  0  0  0  0  0  0  0  0  0  0
   -0.2090   -2.2040    2.0150 O   0  0  0  0  0  0  0  0  0  0  0  0
    0.7470   -2.1250    2.1780 H   0  0  0  0  0  0  0  0  0  0  0  0
    2.2910    2.9920    2.2800 C   0  0  0  0  0  0  0  0  0  0  0  0
    1.8990    2.8210    3.7210 C   0  0  0  0  0  0  0  0  0  0  0  0
    3.4310    3.3630    2.0290 O   0  0  0  0  0  0  0  0  0  0  0  0
    1.2160    3.9430    0.3450 O   0  0  0  0  0  0  0  0  0  0  0  0
    2.1110    4.3180    0.3060 H   0  0  0  0  0  0  0  0  0  0  0  0
   -2.4210    2.6550    3.3580 O   0  0  0  0  0  0  0  0  0  0  0  0
   -3.3850    2.6000    3.4690 H   0  0  0  0  0  0  0  0  0  0  0  0
  1 21  1  1  0  0  0
  1  2  1  0  0  0  0
  2  4  2  0  0  0  0
  2  5  1  0  0  0  0
  3  6  1  0  0  0  0
  3  1  1  0  0  0  0
  4  7  1  0  0  0  0
  5  9  2  0  0  0  0
  6 39  1  6  0  0  0
  6  8  1  0  0  0  0
  6 36  1  0  0  0  0
  7 41  1  0  0  0  0
  7 10  2  0  0  0  0
  8  4  1  0  0  0  0
  9 10  1  0  0  0  0
  9 11  1  0  0  0  0
 10 12  1  0  0  0  0
 11 14  1  0  0  0  0
 12 15  2  0  0  0  0
 12 16  1  0  0  0  0
 13 11  2  0  0  0  0
 14 16  2  0  0  0  0
 14 17  1  0  0  0  0
 16 18  1  0  0  0  0
 17 19  2  0  0  0  0
 18 20  2  0  0  0  0
 19 20  1  0  0  0  0
 22 27  1  0  0  0  0
 22 21  1  6  0  0  0
 23 22  1  0  0  0  0
 24 29  1  6  0  0  0
 24 23  1  0  0  0  0
 24 25  1  0  0  0  0
 25 32  1  1  0  0  0
 25 26  1  0  0  0  0
 26 27  1  0  0  0  0
 26 28  1  6  0  0  0
 30 29  1  0  0  0  0
 31 29  1  0  0  0  0
 32 33  1  0  0  0  0
 34 35  1  0  0  0  0
 34  5  1  0  0  0  0
 36 37  1  0  0  0  0
 38 36  2  0  0  0  0
 40 39  1  0  0  0  0
 41 42  1  0  0  0  0
M  END
