pdbs/aod5-19.pdb
 OpenBabel07211515343D

 33 36  0  0  0  0  0  0  0  0999 V2000
    0.4050   -0.3590   -0.2970 C   0  0  0  0  0  0  0  0  0  0  0  0
    0.9760   -1.0740   -1.1100 O   0  0  0  0  0  0  0  0  0  0  0  0
   -0.3930    0.7830   -0.6620 C   0  0  0  0  0  0  0  0  0  0  0  0
    0.1000    1.9740   -1.1730 C   0  0  0  0  0  0  0  0  0  0  0  0
   -0.8410    2.9400   -1.4640 N   0  0  0  0  0  0  0  0  0  0  0  0
   -2.0090    2.2840   -1.1030 C   0  0  0  0  0  0  0  0  0  0  0  0
   -3.2070    2.8910   -1.2380 N   0  0  0  0  0  0  0  0  0  0  0  0
   -1.8110    0.9820   -0.6100 C   0  0  0  0  0  0  0  0  0  0  0  0
   -4.2480    2.1240   -0.8440 C   0  0  0  0  0  0  0  0  0  0  0  0
   -4.1910    0.8300   -0.3350 C   0  0  0  0  0  0  0  0  0  0  0  0
   -2.9320    0.2390   -0.2160 C   0  0  0  0  0  0  0  0  0  0  0  0
   -5.3950    0.1180    0.0610 C   0  0  0  0  0  0  0  0  0  0  0  0
   -6.0080   -0.7850   -0.8150 C   0  0  0  0  0  0  0  0  0  0  0  0
   -5.9540    0.3110    1.3300 C   0  0  0  0  0  0  0  0  0  0  0  0
   -7.1510   -1.4850   -0.4330 C   0  0  0  0  0  0  0  0  0  0  0  0
   -7.6890   -1.2790    0.8320 C   0  0  0  0  0  0  0  0  0  0  0  0
   -7.0990   -0.3830    1.7170 C   0  0  0  0  0  0  0  0  0  0  0  0
   -9.0800   -2.1590    1.3140 Cl  0  0  0  0  0  0  0  0  0  0  0  0
    0.5240   -0.6340    1.1380 C   0  0  0  0  0  0  0  0  0  0  0  0
    1.4240    0.0840    1.9170 C   0  0  0  0  0  0  0  0  0  0  0  0
    1.5030   -0.1470    3.2840 C   0  0  0  0  0  0  0  0  0  0  0  0
    2.2230    1.0050    1.3620 F   0  0  0  0  0  0  0  0  0  0  0  0
    0.6750   -1.1100    3.8610 C   0  0  0  0  0  0  0  0  0  0  0  0
   -0.2190   -1.8750    3.0940 C   0  0  0  0  0  0  0  0  0  0  0  0
   -0.2800   -1.6130    1.7200 C   0  0  0  0  0  0  0  0  0  0  0  0
   -1.1330   -2.3110    0.9510 F   0  0  0  0  0  0  0  0  0  0  0  0
   -1.0300   -2.7860    3.6640 N   0  0  0  0  0  0  0  0  0  0  0  0
   -0.3690   -4.1310    4.2010 S   0  0  0  0  0  0  0  0  0  0  0  0
    0.7300   -4.6580    3.3950 O   0  0  0  0  0  0  0  0  0  0  0  0
   -1.3410   -5.1350    4.6220 O   0  0  0  0  0  0  0  0  0  0  0  0
    0.4140   -3.6070    5.7250 C   0  0  0  0  0  0  0  0  0  0  0  0
   -0.2270   -2.5070    6.5810 C   0  0  0  0  0  0  0  0  0  0  0  0
   -1.2250   -2.8740    7.6840 C   0  0  0  0  0  0  0  0  0  0  0  0
  1 19  1  0  0  0  0
  2  1  2  0  0  0  0
  3  8  1  0  0  0  0
  3  1  1  0  0  0  0
  4  3  2  0  0  0  0
  5  4  1  0  0  0  0
  5  6  1  0  0  0  0
  6  8  1  0  0  0  0
  7  6  2  0  0  0  0
  7  9  1  0  0  0  0
  8 11  2  0  0  0  0
  9 10  2  0  0  0  0
 10 11  1  0  0  0  0
 10 12  1  0  0  0  0
 12 14  2  0  0  0  0
 13 15  2  0  0  0  0
 13 12  1  0  0  0  0
 14 17  1  0  0  0  0
 15 16  1  0  0  0  0
 16 18  1  0  0  0  0
 16 17  2  0  0  0  0
 19 25  2  0  0  0  0
 19 20  1  0  0  0  0
 20 21  2  0  0  0  0
 21 23  1  0  0  0  0
 22 20  1  0  0  0  0
 24 27  1  0  0  0  0
 24 23  2  0  0  0  0
 25 24  1  0  0  0  0
 26 25  1  0  0  0  0
 27 28  1  0  0  0  0
 28 30  2  0  0  0  0
 28 31  1  0  0  0  0
 29 28  2  0  0  0  0
 31 32  1  0  0  0  0
 32 33  1  0  0  0  0
M  END
