pdbs/aod5-108.pdb
 OpenBabel07211515343D

 68 71  0  0  1  0  0  0  0  0999 V2000
   -2.3420    1.5390   -2.3020 C   0  0  2  0  0  0  0  0  0  0  0  0
   -2.6020    2.4210   -1.0720 C   0  0  0  0  0  0  0  0  0  0  0  0
   -1.0120    1.1000   -2.3030 O   0  0  0  0  0  0  0  0  0  0  0  0
   -1.6220    3.5620   -0.8110 C   0  0  0  0  0  0  0  0  0  0  0  0
   -1.8210    4.3360    0.4930 C   0  0  1  0  0  0  0  0  0  0  0  0
   -0.7380    3.8440   -1.5870 O   0  0  0  0  0  0  0  0  0  0  0  0
   -1.7780    3.3840    1.6680 C   0  0  0  0  0  0  0  0  0  0  0  0
   -2.8100    2.9400    2.4130 C   0  0  0  0  0  0  0  0  0  0  0  0
   -0.7870    5.4560    0.7080 C   0  0  0  0  0  0  0  0  0  0  0  0
   -2.5010    2.0030    3.5700 C   0  0  2  0  0  0  0  0  0  0  0  0
   -3.6340    1.3660    4.3830 C   0  0  2  0  0  0  0  0  0  0  0  0
   -4.2410    3.3540    2.1650 C   0  0  0  0  0  0  0  0  0  0  0  0
   -4.3960    0.2530    3.6360 C   0  0  0  0  0  0  0  0  0  0  0  0
   -4.0910   -0.0390    2.5010 O   0  0  0  0  0  0  0  0  0  0  0  0
   -5.5710   -0.4220    4.3570 C   0  0  1  0  0  0  0  0  0  0  0  0
   -6.1570   -1.6750    3.6620 C   0  0  0  0  0  0  0  0  0  0  0  0
   -0.6030   -0.1750   -2.0410 C   0  0  0  0  0  0  0  0  0  0  0  0
    0.3620   -0.6730   -2.5840 O   0  0  0  0  0  0  0  0  0  0  0  0
   -1.2970   -0.9280   -0.8920 C   0  0  2  0  0  0  0  0  0  0  0  0
   -0.6800   -0.4400    0.4440 C   0  0  0  0  0  0  0  0  0  0  0  0
   -0.9870   -1.4470    1.5600 C   0  0  0  0  0  0  0  0  0  0  0  0
   -0.3540   -2.8120    1.2440 C   0  0  0  0  0  0  0  0  0  0  0  0
   -0.0430   -2.9370   -0.2550 C   0  0  0  0  0  0  0  0  0  0  0  0
   -1.1560   -2.3920   -1.0300 N   0  0  0  0  0  0  0  0  0  0  0  0
   -2.0270   -3.2110   -1.7190 C   0  0  0  0  0  0  0  0  0  0  0  0
   -2.0390   -4.3990   -1.4720 O   0  0  0  0  0  0  0  0  0  0  0  0
   -2.8800   -2.7330   -2.6600 C   0  0  0  0  0  0  0  0  0  0  0  0
   -2.8520   -1.5960   -3.0760 O   0  0  0  0  0  0  0  0  0  0  0  0
   -4.0120   -3.6030   -3.2550 C   0  0  1  0  0  0  0  0  0  0  0  0
   -3.5100   -4.6480   -4.2460 C   0  0  1  0  0  0  0  0  0  0  0  0
   -4.6750   -5.5500   -4.6840 C   0  0  0  0  0  0  0  0  0  0  0  0
   -5.3750   -6.1120   -3.4400 C   0  0  0  0  0  0  0  0  0  0  0  0
   -5.8160   -4.9810   -2.5120 C   0  0  2  0  0  0  0  0  0  0  0  0
   -4.7290   -4.1660   -2.1780 O   0  0  0  0  0  0  0  0  0  0  0  0
   -6.3760   -5.4970   -1.1780 C   0  0  0  0  0  0  0  0  0  0  0  0
   -7.8260   -6.0030   -1.2030 C   0  0  1  0  0  0  0  0  0  0  0  0
   -8.1740   -6.7100    0.1050 C   0  0  2  0  0  0  0  0  0  0  0  0
   -7.9370   -6.1050    1.2850 C   0  0  0  0  0  0  0  0  0  0  0  0
   -8.1380   -6.5790    2.5240 C   0  0  0  0  0  0  0  0  0  0  0  0
   -7.8140   -6.0160    3.7040 C   0  0  0  0  0  0  0  0  0  0  0  0
   -7.0600   -4.9560    4.0540 C   0  0  0  0  0  0  0  0  0  0  0  0
   -6.2740   -4.1470    3.3240 C   0  0  0  0  0  0  0  0  0  0  0  0
   -5.4440   -3.0200    3.9160 C   0  0  1  0  0  0  0  0  0  0  0  0
   -8.7190   -8.1100   -0.0690 C   0  0  0  0  0  0  0  0  0  0  0  0
   -4.0200   -3.0700    3.3420 C   0  0  0  0  0  0  0  0  0  0  0  0
   -5.3210   -0.6830    5.8530 C   0  0  0  0  0  0  0  0  0  0  0  0
   -2.8120   -4.0130   -5.4610 C   0  0  0  0  0  0  0  0  0  0  0  0
   -2.6570    2.2290   -3.6540 C   0  0  2  0  0  0  0  0  0  0  0  0
   -4.1560    2.5770   -3.7780 C   0  0  0  0  0  0  0  0  0  0  0  0
   -2.2490    1.3530   -4.8660 C   0  0  0  0  0  0  0  0  0  0  0  0
   -0.8330    1.6120   -5.4250 C   0  0  1  0  0  0  0  0  0  0  0  0
   -0.2020    0.3580   -6.0610 C   0  0  0  0  0  0  0  0  0  0  0  0
   -0.8020   -0.0340   -7.4160 C   0  0  2  0  0  0  0  0  0  0  0  0
   -0.7560    1.1490   -8.3790 C   0  0  1  0  0  0  0  0  0  0  0  0
   -1.3890    2.4110   -7.7950 C   0  0  0  0  0  0  0  0  0  0  0  0
   -0.7970    2.7810   -6.4270 C   0  0  0  0  0  0  0  0  0  0  0  0
   -2.1160   -0.4850   -7.2170 O   0  0  0  0  0  0  0  0  0  0  0  0
   -2.5700   -1.3790   -8.2110 C   0  0  0  0  0  0  0  0  0  0  0  0
    0.5860    1.4210   -8.7160 O   0  0  0  0  0  0  0  0  0  0  0  0
    0.6180    2.1440   -9.3460 H   0  0  0  0  0  0  0  0  0  0  0  0
   -1.5950    2.6500    4.4470 O   0  0  0  0  0  0  0  0  0  0  0  0
   -0.9370    3.1140    3.9270 H   0  0  0  0  0  0  0  0  0  0  0  0
   -4.5740    2.2910    4.8870 O   0  0  0  0  0  0  0  0  0  0  0  0
   -4.0920    3.1830    5.8650 C   0  0  0  0  0  0  0  0  0  0  0  0
   -4.9370   -2.7300   -3.9070 O   0  0  0  0  0  0  0  0  0  0  0  0
   -4.5720   -1.8450   -3.9730 H   0  0  0  0  0  0  0  0  0  0  0  0
   -8.6730   -4.9020   -1.4550 O   0  0  0  0  0  0  0  0  0  0  0  0
  -10.0270   -5.2660   -1.6130 C   0  0  0  0  0  0  0  0  0  0  0  0
  1  3  1  6  0  0  0
  1  2  1  0  0  0  0
  2  4  1  0  0  0  0
  3 17  1  0  0  0  0
  4  5  1  0  0  0  0
  5  9  1  1  0  0  0
  5  7  1  0  0  0  0
  6  4  2  0  0  0  0
  7  8  2  0  0  0  0
  8 10  1  0  0  0  0
 10 11  1  0  0  0  0
 10 61  1  1  0  0  0
 11 63  1  6  0  0  0
 12  8  1  0  0  0  0
 13 15  1  0  0  0  0
 13 11  1  0  0  0  0
 14 13  2  0  0  0  0
 15 46  1  1  0  0  0
 16 43  1  0  0  0  0
 16 15  1  0  0  0  0
 18 17  2  0  0  0  0
 19 17  1  1  0  0  0
 19 20  1  0  0  0  0
 20 21  1  0  0  0  0
 22 21  1  0  0  0  0
 23 22  1  0  0  0  0
 24 19  1  0  0  0  0
 24 23  1  0  0  0  0
 25 26  2  0  0  0  0
 25 24  1  0  0  0  0
 27 25  1  0  0  0  0
 28 27  2  0  0  0  0
 29 65  1  6  0  0  0
 29 27  1  0  0  0  0
 29 34  1  0  0  0  0
 30 47  1  6  0  0  0
 30 29  1  0  0  0  0
 31 30  1  0  0  0  0
 31 32  1  0  0  0  0
 33 32  1  1  0  0  0
 33 34  1  0  0  0  0
 33 35  1  0  0  0  0
 36 67  1  1  0  0  0
 36 35  1  0  0  0  0
 36 37  1  0  0  0  0
 37 44  1  1  0  0  0
 37 38  1  0  0  0  0
 38 39  2  0  0  0  0
 39 40  1  0  0  0  0
 40 41  1  0  0  0  0
 42 43  1  0  0  0  0
 42 41  2  0  0  0  0
 43 45  1  6  0  0  0
 48 50  1  1  0  0  0
 48  1  1  0  0  0  0
 49 48  1  0  0  0  0
 51 50  1  6  0  0  0
 52 51  1  0  0  0  0
 53 57  1  1  0  0  0
 53 52  1  0  0  0  0
 54 59  1  1  0  0  0
 54 55  1  0  0  0  0
 54 53  1  0  0  0  0
 55 56  1  0  0  0  0
 56 51  1  0  0  0  0
 58 57  1  0  0  0  0
 60 59  1  0  0  0  0
 62 61  1  0  0  0  0
 63 64  1  0  0  0  0
 66 65  1  0  0  0  0
 68 67  1  0  0  0  0
M  END
