pdbs/aod5-113.pdb
 OpenBabel07211515343D

 42 44  0  0  0  0  0  0  0  0999 V2000
    4.2770    3.1450    3.8720 C   0  0  0  0  0  0  0  0  0  0  0  0
    4.6820    1.9710    4.3880 C   0  0  0  0  0  0  0  0  0  0  0  0
    4.0600    0.8250    4.0710 C   0  0  0  0  0  0  0  0  0  0  0  0
    3.0100    0.8180    3.2320 C   0  0  0  0  0  0  0  0  0  0  0  0
    2.5860    1.9940    2.7380 C   0  0  0  0  0  0  0  0  0  0  0  0
    3.2080    3.1380    3.0550 C   0  0  0  0  0  0  0  0  0  0  0  0
    4.9970    4.4410    4.2000 C   0  0  0  0  0  0  0  0  0  0  0  0
    6.4450    4.2940    4.1160 N   0  0  0  0  0  0  0  0  0  0  0  0
    6.9500    3.9740    2.7790 C   0  0  0  0  0  0  0  0  0  0  0  0
    6.1810    4.4300    1.5200 C   0  0  0  0  0  0  0  0  0  0  0  0
    6.1530    5.8780    1.3100 N   0  0  0  0  0  0  0  0  0  0  0  0
    5.4970    6.2680    0.0610 C   0  0  0  0  0  0  0  0  0  0  0  0
    7.1450    6.2210    1.2800 H   0  0  0  0  0  0  0  0  0  0  0  0
    5.4630    7.7940   -0.1400 C   0  0  0  0  0  0  0  0  0  0  0  0
    6.8150    8.4750    0.1340 C   0  0  0  0  0  0  0  0  0  0  0  0
    6.9170    8.8400    1.5480 N   0  0  0  0  0  0  0  0  0  0  0  0
    8.2870    9.0750    2.0070 C   0  0  0  0  0  0  0  0  0  0  0  0
    6.4850    8.0740    2.1210 H   0  0  0  0  0  0  0  0  0  0  0  0
    8.2980    9.7820    3.3710 C   0  0  0  0  0  0  0  0  0  0  0  0
    7.4140    9.2140    4.3900 N   0  0  0  0  0  0  0  0  0  0  0  0
    7.7470    7.8850    4.9110 C   0  0  0  0  0  0  0  0  0  0  0  0
    6.4410    9.1880    3.9940 H   0  0  0  0  0  0  0  0  0  0  0  0
    7.0800    6.7570    4.1110 C   0  0  0  0  0  0  0  0  0  0  0  0
    7.1620    5.3800    4.7820 C   0  0  0  0  0  0  0  0  0  0  0  0
    2.3370   -0.4860    2.8490 C   0  0  0  0  0  0  0  0  0  0  0  0
    3.2270   -1.3260    2.0550 N   0  0  0  0  0  0  0  0  0  0  0  0
    3.7750   -0.6670    0.8710 C   0  0  0  0  0  0  0  0  0  0  0  0
    2.7730   -0.3080   -0.2320 C   0  0  0  0  0  0  0  0  0  0  0  0
    3.3680    0.5470   -1.3610 C   0  0  0  0  0  0  0  0  0  0  0  0
    2.3380    1.1060   -2.2420 N   0  0  0  0  0  0  0  0  0  0  0  0
    1.9450    0.3160   -3.4100 C   0  0  0  0  0  0  0  0  0  0  0  0
    1.4740    1.2950   -1.6740 H   0  0  0  0  0  0  0  0  0  0  0  0
    1.2130   -1.0010   -3.1100 C   0  0  0  0  0  0  0  0  0  0  0  0
    0.1330   -0.7950   -2.1440 N   0  0  0  0  0  0  0  0  0  0  0  0
   -0.7950   -1.9230   -2.0380 C   0  0  0  0  0  0  0  0  0  0  0  0
    0.5430   -0.6130   -1.1960 H   0  0  0  0  0  0  0  0  0  0  0  0
   -1.5960   -1.8260   -0.7280 C   0  0  0  0  0  0  0  0  0  0  0  0
   -0.9220   -2.5400    0.4590 C   0  0  0  0  0  0  0  0  0  0  0  0
    0.5040   -2.2260    0.5740 N   0  0  0  0  0  0  0  0  0  0  0  0
    1.1470   -2.8640    1.7230 C   0  0  0  0  0  0  0  0  0  0  0  0
    0.9850   -2.5630   -0.2980 H   0  0  0  0  0  0  0  0  0  0  0  0
    2.6770   -2.6580    1.7960 C   0  0  0  0  0  0  0  0  0  0  0  0
  1  7  1  0  0  0  0
  1  2  2  0  0  0  0
  3  2  1  0  0  0  0
  4  3  2  0  0  0  0
  5  6  2  0  0  0  0
  5  4  1  0  0  0  0
  6  1  1  0  0  0  0
  8  7  1  0  0  0  0
  8 24  1  0  0  0  0
  9  8  1  0  0  0  0
 10  9  1  0  0  0  0
 11 10  1  0  0  0  0
 12 11  1  0  0  0  0
 13 11  1  0  0  0  0
 14 12  1  0  0  0  0
 14 15  1  0  0  0  0
 15 16  1  0  0  0  0
 16 17  1  0  0  0  0
 16 18  1  0  0  0  0
 17 19  1  0  0  0  0
 19 20  1  0  0  0  0
 20 21  1  0  0  0  0
 22 20  1  0  0  0  0
 23 24  1  0  0  0  0
 23 21  1  0  0  0  0
 25  4  1  0  0  0  0
 26 25  1  0  0  0  0
 27 26  1  0  0  0  0
 28 27  1  0  0  0  0
 29 28  1  0  0  0  0
 30 32  1  0  0  0  0
 30 29  1  0  0  0  0
 31 33  1  0  0  0  0
 31 30  1  0  0  0  0
 33 34  1  0  0  0  0
 34 35  1  0  0  0  0
 34 36  1  0  0  0  0
 35 37  1  0  0  0  0
 37 38  1  0  0  0  0
 38 39  1  0  0  0  0
 39 40  1  0  0  0  0
 40 42  1  0  0  0  0
 41 39  1  0  0  0  0
 42 26  1  0  0  0  0
M  END
