pdbs/aod5-111.pdb
 OpenBabel07211515343D

 56 60  0  0  1  0  0  0  0  0999 V2000
    0.0790   -3.0050    2.7910 O   0  0  0  0  0  0  0  0  0  0  0  0
   -0.2740   -1.7980   -2.2110 O   0  0  0  0  0  0  0  0  0  0  0  0
   -0.1540   -2.0770   -1.0350 C   0  0  0  0  0  0  0  0  0  0  0  0
    1.0000   -1.8250   -0.3480 C   0  0  0  0  0  0  0  0  0  0  0  0
   -2.3330   -2.8970   -1.0890 C   0  0  0  0  0  0  0  0  0  0  0  0
   -3.3990   -3.4600   -0.5150 C   0  0  0  0  0  0  0  0  0  0  0  0
   -1.2070   -2.6540   -0.3870 C   0  0  0  0  0  0  0  0  0  0  0  0
    2.0580   -1.2490   -0.9760 C   0  0  0  0  0  0  0  0  0  0  0  0
    3.1700   -0.9630   -0.2710 C   0  0  0  0  0  0  0  0  0  0  0  0
    4.3280   -0.2510   -0.9430 C   0  0  0  0  0  0  0  0  0  0  0  0
    4.8800    0.8020    0.0140 C   0  0  1  0  0  0  0  0  0  0  0  0
   -3.3310   -3.7820    0.7780 C   0  0  0  0  0  0  0  0  0  0  0  0
   -1.1500   -2.9830    0.9210 C   0  0  0  0  0  0  0  0  0  0  0  0
    1.0740   -2.1370    0.9670 C   0  0  0  0  0  0  0  0  0  0  0  0
    3.2580   -1.2630    1.0330 C   0  0  0  0  0  0  0  0  0  0  0  0
    5.5220    0.0140    1.1530 C   0  0  0  0  0  0  0  0  0  0  0  0
   -2.2320   -3.5610    1.5280 C   0  0  0  0  0  0  0  0  0  0  0  0
    0.0080   -2.7190    1.6110 C   0  0  0  0  0  0  0  0  0  0  0  0
    2.2180   -1.8630    1.6500 C   0  0  0  0  0  0  0  0  0  0  0  0
    4.5130   -0.9150    1.8420 C   0  0  2  0  0  0  0  0  0  0  0  0
    5.1460   -2.1170    2.2300 O   0  0  0  0  0  0  0  0  0  0  0  0
    5.9590   -2.0040    3.3810 C   0  0  1  0  0  0  0  0  0  0  0  0
    5.0460   -2.0360    4.4560 O   0  0  0  0  0  0  0  0  0  0  0  0
    5.6710   -1.9590    5.7070 C   0  0  1  0  0  0  0  0  0  0  0  0
    4.5780   -1.9100    6.7750 C   0  0  0  0  0  0  0  0  0  0  0  0
    6.5900   -3.1590    5.8860 C   0  0  1  0  0  0  0  0  0  0  0  0
    7.6450   -3.1930    4.7820 C   0  0  2  0  0  0  0  0  0  0  0  0
    6.8980   -3.1990    3.4420 C   0  0  0  0  0  0  0  0  0  0  0  0
    7.2500   -3.1170    7.1270 O   0  0  0  0  0  0  0  0  0  0  0  0
    6.6250   -3.2410    7.8440 H   0  0  0  0  0  0  0  0  0  0  0  0
    8.5040   -4.3610    4.9890 N   0  0  0  0  0  0  0  0  0  0  0  0
    9.6660   -4.5600    4.3040 C   0  0  0  0  0  0  0  0  0  0  0  0
   10.0790   -3.7880    3.4680 O   0  0  0  0  0  0  0  0  0  0  0  0
    8.2170   -5.0400    5.6950 H   0  0  0  0  0  0  0  0  0  0  0  0
   10.4020   -5.8550    4.6930 C   0  0  0  0  0  0  0  0  0  0  0  0
   10.5410   -6.6500    3.6420 F   0  0  0  0  0  0  0  0  0  0  0  0
   11.6160   -5.5920    5.1520 F   0  0  0  0  0  0  0  0  0  0  0  0
    9.7470   -6.5290    5.6280 F   0  0  0  0  0  0  0  0  0  0  0  0
    2.3920   -2.1570    2.9730 O   0  0  0  0  0  0  0  0  0  0  0  0
    3.2920   -1.9500    3.2610 H   0  0  0  0  0  0  0  0  0  0  0  0
    5.8820    1.5420   -0.6470 O   0  0  0  0  0  0  0  0  0  0  0  0
    6.5930    0.9710   -0.9410 H   0  0  0  0  0  0  0  0  0  0  0  0
    3.7920    1.7720    0.4980 C   0  0  0  0  0  0  0  0  0  0  0  0
    3.6020    1.9790    1.6760 O   0  0  0  0  0  0  0  0  0  0  0  0
    2.9480    2.5140   -0.5430 C   0  0  0  0  0  0  0  0  0  0  0  0
    1.8270    3.1800    0.0130 O   0  0  0  0  0  0  0  0  0  0  0  0
    0.8340    2.3910    0.5170 C   0  0  0  0  0  0  0  0  0  0  0  0
    0.7990    1.1840    0.4430 O   0  0  0  0  0  0  0  0  0  0  0  0
   -0.2190    3.2410    1.2070 C   0  0  0  0  0  0  0  0  0  0  0  0
    0.1940    3.5630    2.6510 C   0  0  0  0  0  0  0  0  0  0  0  0
   -0.8720    4.3930    3.3820 C   0  0  0  0  0  0  0  0  0  0  0  0
   -0.4520    4.7200    4.8210 C   0  0  0  0  0  0  0  0  0  0  0  0
    2.1090   -0.9240   -2.3040 O   0  0  0  0  0  0  0  0  0  0  0  0
    1.4870   -1.3760   -2.8840 H   0  0  0  0  0  0  0  0  0  0  0  0
   -2.2250   -3.9180    2.8600 O   0  0  0  0  0  0  0  0  0  0  0  0
   -3.3540   -4.5130    3.4580 C   0  0  0  0  0  0  0  0  0  0  0  0
  2  3  2  0  0  0  0
  3  7  1  0  0  0  0
  3  4  1  0  0  0  0
  4 14  1  0  0  0  0
  5  6  2  0  0  0  0
  5  7  1  0  0  0  0
  6 12  1  0  0  0  0
  7 13  2  0  0  0  0
  8  4  2  0  0  0  0
  8  9  1  0  0  0  0
  9 15  2  0  0  0  0
 10  9  1  0  0  0  0
 10 11  1  0  0  0  0
 11 41  1  6  0  0  0
 11 43  1  0  0  0  0
 11 16  1  0  0  0  0
 12 17  2  0  0  0  0
 13 17  1  0  0  0  0
 13 18  1  0  0  0  0
 14 18  1  0  0  0  0
 14 19  2  0  0  0  0
 15 19  1  0  0  0  0
 15 20  1  0  0  0  0
 16 20  1  0  0  0  0
 17 55  1  0  0  0  0
 18  1  2  0  0  0  0
 19 39  1  0  0  0  0
 20 21  1  6  0  0  0
 22 21  1  1  0  0  0
 22 28  1  0  0  0  0
 22 23  1  0  0  0  0
 23 24  1  0  0  0  0
 24 26  1  0  0  0  0
 24 25  1  6  0  0  0
 26 29  1  1  0  0  0
 27 31  1  6  0  0  0
 27 26  1  0  0  0  0
 28 27  1  0  0  0  0
 29 30  1  0  0  0  0
 31 34  1  0  0  0  0
 32 35  1  0  0  0  0
 32 31  1  0  0  0  0
 33 32  2  0  0  0  0
 35 37  1  0  0  0  0
 35 38  1  0  0  0  0
 36 35  1  0  0  0  0
 39 40  1  0  0  0  0
 42 41  1  0  0  0  0
 43 44  2  0  0  0  0
 45 46  1  0  0  0  0
 45 43  1  0  0  0  0
 46 47  1  0  0  0  0
 47 49  1  0  0  0  0
 48 47  2  0  0  0  0
 49 50  1  0  0  0  0
 50 51  1  0  0  0  0
 51 52  1  0  0  0  0
 53  8  1  0  0  0  0
 54 53  1  0  0  0  0
 55 56  1  0  0  0  0
M  END
