pdbs/aod5-91.pdb
 OpenBabel07211515343D

 43 49  0  0  1  0  0  0  0  0999 V2000
   -0.5200   -0.4860   -2.9800 C   0  0  0  0  0  0  0  0  0  0  0  0
   -0.8540   -0.7180   -1.6540 C   0  0  0  0  0  0  0  0  0  0  0  0
    0.0590   -0.4350   -0.6780 C   0  0  0  0  0  0  0  0  0  0  0  0
    1.2920    0.0710   -1.0850 C   0  0  0  0  0  0  0  0  0  0  0  0
    1.5600    0.2520   -2.4760 C   0  0  0  0  0  0  0  0  0  0  0  0
    0.6500   -0.0220   -3.4310 N   0  0  0  0  0  0  0  0  0  0  0  0
    2.2410    0.4030   -0.1240 C   0  0  0  0  0  0  0  0  0  0  0  0
    3.4840    0.8670   -0.5360 C   0  0  0  0  0  0  0  0  0  0  0  0
    3.7770    1.0470   -1.8820 C   0  0  0  0  0  0  0  0  0  0  0  0
    2.8110    0.7310   -2.8360 C   0  0  0  0  0  0  0  0  0  0  0  0
   -1.6760   -0.8640   -3.7650 C   0  0  0  0  0  0  0  0  0  0  0  0
   -2.6810   -1.3170   -2.9580 N   0  0  0  0  0  0  0  0  0  0  0  0
   -2.2380   -1.2800   -1.6030 C   0  0  0  0  0  0  0  0  0  0  0  0
   -1.8500   -0.8630   -5.0850 C   0  0  0  0  0  0  0  0  0  0  0  0
   -3.1910   -1.3600   -5.6040 C   0  0  0  0  0  0  0  0  0  0  0  0
   -4.0870   -1.8910   -4.7630 C   0  0  1  0  0  0  0  0  0  0  0  0
   -3.8810   -1.8550   -3.2930 C   0  0  0  0  0  0  0  0  0  0  0  0
   -3.4990   -1.3780   -7.0590 C   0  0  1  0  0  0  0  0  0  0  0  0
   -4.4220   -2.5060   -7.5250 C   0  0  0  0  0  0  0  0  0  0  0  0
   -5.2780   -3.0650   -6.6230 O   0  0  0  0  0  0  0  0  0  0  0  0
   -5.3430   -2.3180   -5.4360 C   0  0  0  0  0  0  0  0  0  0  0  0
   -4.3470   -2.9440   -8.6730 O   0  0  0  0  0  0  0  0  0  0  0  0
   -4.0300   -0.2320   -7.4070 O   0  0  0  0  0  0  0  0  0  0  0  0
   -4.7290   -2.2760   -2.5170 O   0  0  0  0  0  0  0  0  0  0  0  0
    4.3880    1.3820    0.3990 O   0  0  0  0  0  0  0  0  0  0  0  0
    4.8870    0.4610    1.3120 C   0  0  0  0  0  0  0  0  0  0  0  0
    4.8080   -0.7590    1.2160 O   0  0  0  0  0  0  0  0  0  0  0  0
    5.5480    1.1220    2.3200 N   0  0  0  0  0  0  0  0  0  0  0  0
    5.6770    2.4860    1.8930 C   0  0  0  0  0  0  0  0  0  0  0  0
    6.8630    0.5530    2.3840 C   0  0  0  0  0  0  0  0  0  0  0  0
    6.6500    3.4060    2.6370 C   0  0  0  0  0  0  0  0  0  0  0  0
    8.0110    2.7890    2.9360 C   0  0  2  0  0  0  0  0  0  0  0  0
    7.9470    1.2870    3.1770 C   0  0  0  0  0  0  0  0  0  0  0  0
    9.0300    3.5780    3.6010 N   0  0  0  0  0  0  0  0  0  0  0  0
   10.1320    2.6940    3.9800 C   0  0  0  0  0  0  0  0  0  0  0  0
    8.5640    4.2680    4.7980 C   0  0  0  0  0  0  0  0  0  0  0  0
   11.2810    3.2830    4.8030 C   0  0  0  0  0  0  0  0  0  0  0  0
   10.8390    4.1390    5.9830 C   0  0  0  0  0  0  0  0  0  0  0  0
    9.6020    4.9740    5.6760 C   0  0  0  0  0  0  0  0  0  0  0  0
   -0.2440   -0.6860    0.7700 C   0  0  0  0  0  0  0  0  0  0  0  0
   -0.3510    0.4880    1.7480 C   0  0  0  0  0  0  0  0  0  0  0  0
   -2.1720   -1.5420   -7.8120 C   0  0  0  0  0  0  0  0  0  0  0  0
   -1.1090   -0.4390   -7.7430 C   0  0  0  0  0  0  0  0  0  0  0  0
  1  2  1  0  0  0  0
  2 13  2  0  0  0  0
  2  3  1  0  0  0  0
  3 40  1  0  0  0  0
  4  3  2  0  0  0  0
  4  7  1  0  0  0  0
  5  4  1  0  0  0  0
  6  1  1  0  0  0  0
  6  5  2  0  0  0  0
  8  7  2  0  0  0  0
  8 25  1  0  0  0  0
  9  8  1  0  0  0  0
 10  5  1  0  0  0  0
 10  9  2  0  0  0  0
 11  1  2  0  0  0  0
 11 12  1  0  0  0  0
 12 13  1  0  0  0  0
 14 11  1  0  0  0  0
 15 14  2  0  0  0  0
 16 15  1  1  0  0  0
 16 17  1  0  0  0  0
 17 12  1  0  0  0  0
 17 24  2  0  0  0  0
 18 42  1  6  0  0  0
 18 15  1  0  0  0  0
 19 18  1  0  0  0  0
 19 20  1  0  0  0  0
 20 21  1  0  0  0  0
 21 16  1  0  0  0  0
 22 19  2  0  0  0  0
 23 18  1  0  0  0  0
 25 26  1  0  0  0  0
 26 28  1  0  0  0  0
 27 26  2  0  0  0  0
 28 30  1  0  0  0  0
 29 28  1  0  0  0  0
 29 31  1  0  0  0  0
 30 33  1  0  0  0  0
 31 32  1  0  0  0  0
 32 33  1  0  0  0  0
 32 34  1  1  0  0  0
 34 35  1  0  0  0  0
 34 36  1  0  0  0  0
 35 37  1  0  0  0  0
 36 39  1  0  0  0  0
 37 38  1  0  0  0  0
 39 38  1  0  0  0  0
 40 41  1  0  0  0  0
 42 43  1  0  0  0  0
M  END
