pdbs/aod5-103.pdb
 OpenBabel07211515343D

 35 36  0  0  0  0  0  0  0  0999 V2000
    1.2670   -1.1200   -1.5280 C   0  0  0  0  0  0  0  0  0  0  0  0
    1.5620   -2.1130   -2.4750 C   0  0  0  0  0  0  0  0  0  0  0  0
    0.6290   -2.5650   -3.4010 C   0  0  0  0  0  0  0  0  0  0  0  0
   -0.6480   -2.0220   -3.4020 C   0  0  0  0  0  0  0  0  0  0  0  0
   -0.9960   -1.0390   -2.4750 C   0  0  0  0  0  0  0  0  0  0  0  0
   -0.0360   -0.5900   -1.5590 C   0  0  0  0  0  0  0  0  0  0  0  0
   -2.3540   -0.5310   -2.4800 C   0  0  0  0  0  0  0  0  0  0  0  0
   -2.6230    0.7580   -2.9140 N   0  0  0  0  0  0  0  0  0  0  0  0
   -3.9200    0.9620   -2.9020 C   0  0  0  0  0  0  0  0  0  0  0  0
   -4.8840   -0.3340   -2.3450 S   0  0  0  0  0  0  0  0  0  0  0  0
   -3.4630   -1.2760   -2.0950 C   0  0  0  0  0  0  0  0  0  0  0  0
   -3.5910   -2.6280   -1.5680 C   0  0  0  0  0  0  0  0  0  0  0  0
   -4.4560   -3.4360   -2.2220 N   0  0  0  0  0  0  0  0  0  0  0  0
   -4.6310   -4.6700   -1.7040 C   0  0  0  0  0  0  0  0  0  0  0  0
   -3.9900   -5.1540   -0.6210 N   0  0  0  0  0  0  0  0  0  0  0  0
   -3.1270   -4.3100   -0.0210 C   0  0  0  0  0  0  0  0  0  0  0  0
   -2.8940   -3.0180   -0.4410 C   0  0  0  0  0  0  0  0  0  0  0  0
   -5.6360   -5.4910   -2.2940 N   0  0  0  0  0  0  0  0  0  0  0  0
   -0.3770    0.3600   -0.6690 F   0  0  0  0  0  0  0  0  0  0  0  0
    2.1540   -0.6770   -0.6100 N   0  0  0  0  0  0  0  0  0  0  0  0
    3.5860   -1.3660   -0.4430 S   0  0  0  0  0  0  0  0  0  0  0  0
    4.3950   -1.3960   -1.6580 O   0  0  0  0  0  0  0  0  0  0  0  0
    3.5970   -2.6070    0.3290 O   0  0  0  0  0  0  0  0  0  0  0  0
    4.4910   -0.2540    0.6430 C   0  0  0  0  0  0  0  0  0  0  0  0
    3.9890   -0.0110    1.9230 C   0  0  0  0  0  0  0  0  0  0  0  0
    4.6200    0.9000    2.7640 C   0  0  0  0  0  0  0  0  0  0  0  0
    2.8820   -0.6290    2.3610 F   0  0  0  0  0  0  0  0  0  0  0  0
    5.7590    1.5700    2.3230 C   0  0  0  0  0  0  0  0  0  0  0  0
    6.2650    1.3300    1.0470 C   0  0  0  0  0  0  0  0  0  0  0  0
    5.6300    0.4200    0.2080 C   0  0  0  0  0  0  0  0  0  0  0  0
    6.1380    0.2310   -1.0170 F   0  0  0  0  0  0  0  0  0  0  0  0
   -4.5840    2.2150   -3.3470 C   0  0  0  0  0  0  0  0  0  0  0  0
   -4.5380    2.2410   -5.1940 C   0  0  0  0  0  0  0  0  0  0  0  0
   -4.5380    2.2410   -5.1940 C   0  0  0  0  0  0  0  0  0  0  0  0
   -4.5380    2.2410   -5.1940 C   0  0  0  0  0  0  0  0  0  0  0  0
  1 20  1  0  0  0  0
  2  1  2  0  0  0  0
  3  2  1  0  0  0  0
  4  3  2  0  0  0  0
  4  5  1  0  0  0  0
  5  6  2  0  0  0  0
  6  1  1  0  0  0  0
  6 19  1  0  0  0  0
  7  5  1  0  0  0  0
  7 11  2  0  0  0  0
  8  9  2  0  0  0  0
  8  7  1  0  0  0  0
  9 10  1  0  0  0  0
 10 11  1  0  0  0  0
 11 12  1  0  0  0  0
 12 17  2  0  0  0  0
 13 14  2  0  0  0  0
 13 12  1  0  0  0  0
 14 15  1  0  0  0  0
 15 16  2  0  0  0  0
 17 16  1  0  0  0  0
 18 14  1  0  0  0  0
 20 21  1  0  0  0  0
 21 23  2  0  0  0  0
 21 24  1  0  0  0  0
 22 21  2  0  0  0  0
 24 25  1  0  0  0  0
 25 27  1  0  0  0  0
 25 26  2  0  0  0  0
 28 26  1  0  0  0  0
 29 28  2  0  0  0  0
 30 24  2  0  0  0  0
 30 29  1  0  0  0  0
 31 30  1  0  0  0  0
 32  9  1  0  0  0  0
 33 32  1  0  0  0  0
M  END
