pdbs/ap.pdb
 OpenBabel07211515343D

 54 56  0  0  1  0  0  0  0  0999 V2000
    0.3790   -1.7650    2.7720 P   0  0  1  0  0  0  0  0  0  0  0  0
    0.8750   -1.4800    4.4110 O   0  0  0  0  0  0  0  0  0  0  0  0
    0.8780   -0.6880    1.8680 O   0  0  0  0  0  0  0  0  0  0  0  0
    1.1420   -3.0980    2.1010 O   0  0  0  0  0  0  0  0  0  0  0  0
    1.3390   -4.2670    2.8660 C   0  0  0  0  0  0  0  0  0  0  0  0
    2.4240   -5.1520    2.2230 C   0  0  1  0  0  0  0  0  0  0  0  0
    3.5870   -4.3900    2.0220 O   0  0  0  0  0  0  0  0  0  0  0  0
    4.4560   -4.5710    3.1240 C   0  0  2  0  0  0  0  0  0  0  0  0
    3.7850   -5.5740    4.0490 C   0  0  1  0  0  0  0  0  0  0  0  0
    2.8810   -6.3480    3.0800 C   0  0  2  0  0  0  0  0  0  0  0  0
    4.8620   -3.3430    3.8210 N   0  0  0  0  0  0  0  0  0  0  0  0
    5.9270   -3.2480    4.4940 C   0  0  0  0  0  0  0  0  0  0  0  0
    6.8970   -4.0050    4.7730 N   0  0  0  0  0  0  0  0  0  0  0  0
    5.8820   -1.9800    4.9430 C   0  0  0  0  0  0  0  0  0  0  0  0
    7.7820   -3.4680    5.4990 C   0  0  0  0  0  0  0  0  0  0  0  0
    7.8390   -2.2950    5.9690 N   0  0  0  0  0  0  0  0  0  0  0  0
    6.8820   -1.5040    5.7040 C   0  0  0  0  0  0  0  0  0  0  0  0
    4.8310   -1.4030    4.5320 N   0  0  0  0  0  0  0  0  0  0  0  0
    4.2010   -2.2630    3.8450 C   0  0  0  0  0  0  0  0  0  0  0  0
    6.8610   -0.3080    6.1220 N   0  0  0  0  0  0  0  0  0  0  0  0
    7.6480    0.0610    6.7110 H   0  0  0  0  0  0  0  0  0  0  0  0
    6.0570    0.3210    5.8800 H   0  0  0  0  0  0  0  0  0  0  0  0
    4.7180   -6.3850    4.7170 O   0  0  0  0  0  0  0  0  0  0  0  0
    4.2670   -6.9600    5.3380 H   0  0  0  0  0  0  0  0  0  0  0  0
    3.6750   -7.4250    2.2980 C   0  0  0  0  0  0  0  0  0  0  0  0
    2.7380   -8.7210    1.3710 P   0  0  0  0  0  0  0  0  0  0  0  0
    2.9420   -8.7300   -0.3540 O   0  0  0  0  0  0  0  0  0  0  0  0
    3.4170  -10.3100    1.5740 O   0  0  0  0  0  0  0  0  0  0  0  0
    1.2880   -8.8190    1.6910 O   0  0  0  0  0  0  0  0  0  0  0  0
   -1.1700   -2.2080    2.4570 O   0  0  0  0  0  0  0  0  0  0  0  0
   -2.1850   -1.0250    2.0430 P   0  0  1  0  0  0  0  0  0  0  0  0
   -3.8150   -1.4430    1.6000 O   0  0  0  0  0  0  0  0  0  0  0  0
   -2.2930    0.0690    3.0490 O   0  0  0  0  0  0  0  0  0  0  0  0
   -1.7880   -0.3690    0.5840 O   0  0  0  0  0  0  0  0  0  0  0  0
   -2.3280    0.8680    0.1920 C   0  0  0  0  0  0  0  0  0  0  0  0
   -1.7320    1.3360   -1.1560 C   0  0  0  0  0  0  0  0  0  0  0  0
   -0.2350    1.6430   -0.9340 C   0  0  0  0  0  0  0  0  0  0  0  0
   -1.8630    0.1930   -2.1890 C   0  0  0  0  0  0  0  0  0  0  0  0
   -2.5410    2.5710   -1.6570 C   0  0  1  0  0  0  0  0  0  0  0  0
   -2.4610    3.8110   -0.7470 C   0  0  0  0  0  0  0  0  0  0  0  0
   -2.2950    3.0440   -3.0910 C   0  0  0  0  0  0  0  0  0  0  0  0
   -3.4020    3.5980   -3.6790 N   0  0  0  0  0  0  0  0  0  0  0  0
   -4.2860    3.5610   -3.1710 H   0  0  0  0  0  0  0  0  0  0  0  0
   -1.2330    2.9920   -3.6590 O   0  0  0  0  0  0  0  0  0  0  0  0
   -3.3960    4.1770   -5.0280 C   0  0  0  0  0  0  0  0  0  0  0  0
   -4.3910    5.3480   -5.0590 C   0  0  0  0  0  0  0  0  0  0  0  0
   -4.4870    6.0730   -6.3920 C   0  0  0  0  0  0  0  0  0  0  0  0
   -5.2910    7.1800   -6.3640 N   0  0  0  0  0  0  0  0  0  0  0  0
   -5.7140    7.4510   -5.4760 H   0  0  0  0  0  0  0  0  0  0  0  0
   -3.9110    5.7160   -7.3900 O   0  0  0  0  0  0  0  0  0  0  0  0
   -5.4960    8.0360   -7.5370 C   0  0  0  0  0  0  0  0  0  0  0  0
   -6.6740    8.9880   -7.2720 C   0  0  0  0  0  0  0  0  0  0  0  0
   -6.9130   10.0730   -8.7190 S   0  0  0  0  0  0  0  0  0  0  0  0
   -7.9610   10.7560   -8.2240 H   0  0  0  0  0  0  0  0  0  0  0  0
  1  3  2  6  0  0  0
  1  2  1  0  0  0  0
  4  1  1  0  0  0  0
  4  5  1  0  0  0  0
  6  5  1  1  0  0  0
  6 10  1  0  0  0  0
  7  6  1  0  0  0  0
  7  8  1  0  0  0  0
  8 11  1  1  0  0  0
  8  9  1  0  0  0  0
  9 23  1  6  0  0  0
 10 25  1  6  0  0  0
 10  9  1  0  0  0  0
 11 19  1  0  0  0  0
 11 12  1  0  0  0  0
 12 13  2  0  0  0  0
 12 14  1  0  0  0  0
 13 15  1  0  0  0  0
 14 17  2  0  0  0  0
 15 16  2  0  0  0  0
 17 16  1  0  0  0  0
 17 20  1  0  0  0  0
 18 14  1  0  0  0  0
 19 18  2  0  0  0  0
 20 21  1  0  0  0  0
 22 20  1  0  0  0  0
 23 24  1  0  0  0  0
 26 28  1  0  0  0  0
 26 29  1  0  0  0  0
 26 25  1  0  0  0  0
 27 26  2  0  0  0  0
 30  1  1  0  0  0  0
 31 34  1  6  0  0  0
 31 30  1  0  0  0  0
 31 33  1  0  0  0  0
 32 31  2  0  0  0  0
 35 34  1  0  0  0  0
 36 37  1  0  0  0  0
 36 35  1  0  0  0  0
 38 36  1  0  0  0  0
 39 41  1  6  0  0  0
 39 36  1  0  0  0  0
 39 40  1  0  0  0  0
 42 43  1  0  0  0  0
 42 41  1  0  0  0  0
 44 41  2  0  0  0  0
 45 42  1  0  0  0  0
 46 45  1  0  0  0  0
 47 48  1  0  0  0  0
 47 46  1  0  0  0  0
 48 49  1  0  0  0  0
 50 47  2  0  0  0  0
 51 52  1  0  0  0  0
 51 48  1  0  0  0  0
 53 54  1  0  0  0  0
 53 52  1  0  0  0  0
M  END
