pdbs/ba.pdb
 OpenBabel07211515343D

 57 59  0  0  1  0  0  0  0  0999 V2000
    1.2150   -2.7480    3.8410 P   0  0  1  0  0  0  0  0  0  0  0  0
    1.9320   -2.6680    5.4210 O   0  0  0  0  0  0  0  0  0  0  0  0
    1.7380   -1.6520    2.9750 O   0  0  0  0  0  0  0  0  0  0  0  0
    1.8940   -4.0770    3.0670 O   0  0  0  0  0  0  0  0  0  0  0  0
    2.0840   -5.2820    3.7760 C   0  0  0  0  0  0  0  0  0  0  0  0
    3.0700   -6.2080    3.0390 C   0  0  1  0  0  0  0  0  0  0  0  0
    4.2500   -5.5100    2.7350 O   0  0  0  0  0  0  0  0  0  0  0  0
    5.1230   -5.5920    3.8470 C   0  0  2  0  0  0  0  0  0  0  0  0
    4.5320   -6.6420    4.7820 C   0  0  1  0  0  0  0  0  0  0  0  0
    3.5620   -7.4050    3.8680 C   0  0  2  0  0  0  0  0  0  0  0  0
    5.4610   -4.3050    4.4760 N   0  0  0  0  0  0  0  0  0  0  0  0
    6.2280   -4.1970    5.4750 C   0  0  0  0  0  0  0  0  0  0  0  0
    6.9080   -4.9900    6.1800 N   0  0  0  0  0  0  0  0  0  0  0  0
    6.2640   -2.8670    5.6930 C   0  0  0  0  0  0  0  0  0  0  0  0
    7.5830   -4.4220    7.0860 C   0  0  0  0  0  0  0  0  0  0  0  0
    7.7080   -3.1940    7.3650 N   0  0  0  0  0  0  0  0  0  0  0  0
    7.0410   -2.3690    6.6700 C   0  0  0  0  0  0  0  0  0  0  0  0
    5.5410   -2.2600    4.8460 N   0  0  0  0  0  0  0  0  0  0  0  0
    5.0270   -3.1670    4.1250 C   0  0  0  0  0  0  0  0  0  0  0  0
    7.1430   -1.1200    6.8570 N   0  0  0  0  0  0  0  0  0  0  0  0
    7.7730   -0.7500    7.6100 H   0  0  0  0  0  0  0  0  0  0  0  0
    6.5970   -0.4530    6.2590 H   0  0  0  0  0  0  0  0  0  0  0  0
    5.5080   -7.4840    5.3420 O   0  0  0  0  0  0  0  0  0  0  0  0
    5.0920   -8.1270    5.9180 H   0  0  0  0  0  0  0  0  0  0  0  0
    4.3040   -8.4910    3.0450 C   0  0  0  0  0  0  0  0  0  0  0  0
    3.3170   -9.7780    2.1610 P   0  0  0  0  0  0  0  0  0  0  0  0
    3.4670   -9.7930    0.4310 O   0  0  0  0  0  0  0  0  0  0  0  0
    3.9750  -11.3790    2.3410 O   0  0  0  0  0  0  0  0  0  0  0  0
    1.8740   -9.8520    2.5200 O   0  0  0  0  0  0  0  0  0  0  0  0
   -0.3780   -3.0620    3.6360 O   0  0  0  0  0  0  0  0  0  0  0  0
   -1.3230   -1.8340    3.1760 P   0  0  1  0  0  0  0  0  0  0  0  0
   -2.9970   -2.1790    2.8440 O   0  0  0  0  0  0  0  0  0  0  0  0
   -1.3340   -0.6910    4.1310 O   0  0  0  0  0  0  0  0  0  0  0  0
   -0.9800   -1.2710    1.6630 O   0  0  0  0  0  0  0  0  0  0  0  0
   -1.5140   -0.0480    1.2180 C   0  0  0  0  0  0  0  0  0  0  0  0
   -0.9360    0.3540   -0.1600 C   0  0  0  0  0  0  0  0  0  0  0  0
    0.5780    0.6020    0.0180 C   0  0  0  0  0  0  0  0  0  0  0  0
   -1.1370   -0.8130   -1.1540 C   0  0  0  0  0  0  0  0  0  0  0  0
   -1.7010    1.6050   -0.6940 C   0  0  1  0  0  0  0  0  0  0  0  0
   -1.5390    2.8810    0.1520 C   0  0  0  0  0  0  0  0  0  0  0  0
   -1.4590    1.9970   -2.1550 C   0  0  0  0  0  0  0  0  0  0  0  0
   -2.5930    2.3930   -2.8160 N   0  0  0  0  0  0  0  0  0  0  0  0
   -3.4850    2.3310   -2.3240 H   0  0  0  0  0  0  0  0  0  0  0  0
   -0.3760    2.0120   -2.6830 O   0  0  0  0  0  0  0  0  0  0  0  0
   -2.6020    2.8450   -4.2150 C   0  0  0  0  0  0  0  0  0  0  0  0
   -3.5000    4.0870   -4.3430 C   0  0  0  0  0  0  0  0  0  0  0  0
   -3.6480    4.6300   -5.7570 C   0  0  0  0  0  0  0  0  0  0  0  0
   -4.4220    5.7570   -5.8440 N   0  0  0  0  0  0  0  0  0  0  0  0
   -4.8350    6.1320   -4.9890 H   0  0  0  0  0  0  0  0  0  0  0  0
   -3.1410    4.1210   -6.7270 O   0  0  0  0  0  0  0  0  0  0  0  0
   -4.7210    6.4090   -7.1230 C   0  0  0  0  0  0  0  0  0  0  0  0
   -5.4730    7.7260   -6.8750 C   0  0  0  0  0  0  0  0  0  0  0  0
   -5.9250    8.4710   -8.4780 S   0  0  0  0  0  0  0  0  0  0  0  0
   -6.4540   10.1050   -7.8810 C   0  0  0  0  0  0  0  0  0  0  0  0
   -6.8840   10.9670   -9.0630 C   0  0  0  0  0  0  0  0  0  0  0  0
   -8.3590   10.9540   -9.4280 C   0  0  0  0  0  0  0  0  0  0  0  0
   -6.0840   11.6440   -9.6700 O   0  0  0  0  0  0  0  0  0  0  0  0
  1  3  2  6  0  0  0
  1  2  1  0  0  0  0
  4  5  1  0  0  0  0
  4  1  1  0  0  0  0
  6  5  1  1  0  0  0
  6 10  1  0  0  0  0
  7  6  1  0  0  0  0
  7  8  1  0  0  0  0
  8 11  1  1  0  0  0
  8  9  1  0  0  0  0
  9 23  1  6  0  0  0
 10 25  1  6  0  0  0
 10  9  1  0  0  0  0
 11 12  1  0  0  0  0
 12 14  2  0  0  0  0
 12 13  1  0  0  0  0
 13 15  2  0  0  0  0
 14 17  1  0  0  0  0
 15 16  1  0  0  0  0
 17 20  1  0  0  0  0
 17 16  2  0  0  0  0
 18 14  1  0  0  0  0
 19 11  1  0  0  0  0
 19 18  2  0  0  0  0
 20 21  1  0  0  0  0
 22 20  1  0  0  0  0
 23 24  1  0  0  0  0
 26 28  1  0  0  0  0
 26 29  1  0  0  0  0
 26 25  1  0  0  0  0
 27 26  2  0  0  0  0
 30  1  1  0  0  0  0
 31 34  1  6  0  0  0
 31 30  1  0  0  0  0
 31 33  1  0  0  0  0
 32 31  2  0  0  0  0
 35 34  1  0  0  0  0
 36 37  1  0  0  0  0
 36 35  1  0  0  0  0
 38 36  1  0  0  0  0
 39 41  1  6  0  0  0
 39 36  1  0  0  0  0
 39 40  1  0  0  0  0
 42 43  1  0  0  0  0
 42 41  1  0  0  0  0
 44 41  2  0  0  0  0
 45 42  1  0  0  0  0
 46 45  1  0  0  0  0
 47 46  1  0  0  0  0
 48 47  1  0  0  0  0
 48 49  1  0  0  0  0
 50 47  2  0  0  0  0
 51 52  1  0  0  0  0
 51 48  1  0  0  0  0
 53 54  1  0  0  0  0
 53 52  1  0  0  0  0
 55 54  1  0  0  0  0
 56 55  1  0  0  0  0
 57 55  2  0  0  0  0
M  END
