pdbs/blv1k.pdb
 OpenBabel07211515343D

 72 74  0  0  1  0  0  0  0  0999 V2000
    1.4710   -2.7070    1.3400 C   0  0  0  0  0  0  0  0  0  0  0  0
    2.9440   -2.2700    1.5000 C   0  0  0  0  0  0  0  0  0  0  0  0
    1.3880   -3.8910    0.3460 C   0  0  0  0  0  0  0  0  0  0  0  0
    0.9800   -3.2060    2.7220 C   0  0  0  0  0  0  0  0  0  0  0  0
    1.6760   -4.3520    3.1600 O   0  0  0  0  0  0  0  0  0  0  0  0
    1.3430   -5.0010    4.6410 P   0  0  2  0  0  0  0  0  0  0  0  0
   -0.3650   -5.1780    4.3510 O   0  0  0  0  0  0  0  0  0  0  0  0
    1.4640   -3.9230    5.6630 O   0  0  0  0  0  0  0  0  0  0  0  0
    2.1150   -6.3770    5.0010 O   0  0  0  0  0  0  0  0  0  0  0  0
    3.6550   -6.2550    5.5030 P   0  0  2  0  0  0  0  0  0  0  0  0
    4.0550   -6.3080    7.1930 O   0  0  0  0  0  0  0  0  0  0  0  0
    4.4090   -5.1190    4.8940 O   0  0  0  0  0  0  0  0  0  0  0  0
    4.5320   -7.5400    4.8870 O   0  0  0  0  0  0  0  0  0  0  0  0
    4.7250   -8.7370    5.6170 C   0  0  0  0  0  0  0  0  0  0  0  0
    5.9090   -9.5310    5.0270 C   0  0  1  0  0  0  0  0  0  0  0  0
    7.0060   -8.6600    4.9110 O   0  0  0  0  0  0  0  0  0  0  0  0
    7.8780   -8.8740    6.0030 C   0  0  2  0  0  0  0  0  0  0  0  0
    7.2180   -9.8950    6.9080 C   0  0  1  0  0  0  0  0  0  0  0  0
    6.4210  -10.7130    5.8830 C   0  0  2  0  0  0  0  0  0  0  0  0
    8.3210   -7.6560    6.6940 N   0  0  0  0  0  0  0  0  0  0  0  0
    9.5300   -7.4550    7.0040 C   0  0  0  0  0  0  0  0  0  0  0  0
   10.6260   -8.0660    6.8820 N   0  0  0  0  0  0  0  0  0  0  0  0
    9.4660   -6.2490    7.5950 C   0  0  0  0  0  0  0  0  0  0  0  0
   11.6220   -7.4490    7.3600 C   0  0  0  0  0  0  0  0  0  0  0  0
   11.6750   -6.3190    7.9290 N   0  0  0  0  0  0  0  0  0  0  0  0
   10.5880   -5.6800    8.0660 C   0  0  0  0  0  0  0  0  0  0  0  0
    8.2770   -5.8120    7.6090 N   0  0  0  0  0  0  0  0  0  0  0  0
    7.5680   -6.7000    7.0450 C   0  0  0  0  0  0  0  0  0  0  0  0
   10.5360   -4.5400    8.6180 N   0  0  0  0  0  0  0  0  0  0  0  0
   11.4100   -4.0900    8.9860 H   0  0  0  0  0  0  0  0  0  0  0  0
    9.6160   -4.0420    8.7100 H   0  0  0  0  0  0  0  0  0  0  0  0
    8.1730  -10.6430    7.6240 O   0  0  0  0  0  0  0  0  0  0  0  0
    7.7390  -11.1960    8.2760 H   0  0  0  0  0  0  0  0  0  0  0  0
    7.3460  -11.6920    5.1130 C   0  0  0  0  0  0  0  0  0  0  0  0
    6.6150  -13.1360    4.2260 P   0  0  0  0  0  0  0  0  0  0  0  0
    7.6290  -13.6800    2.9220 O   0  0  0  0  0  0  0  0  0  0  0  0
    6.7050  -14.6620    5.0540 O   0  0  0  0  0  0  0  0  0  0  0  0
    5.2640  -12.9240    3.6390 O   0  0  0  0  0  0  0  0  0  0  0  0
    0.5490   -1.5450    0.8370 C   0  0  1  0  0  0  0  0  0  0  0  0
    0.4650   -0.3420    1.8000 C   0  0  0  0  0  0  0  0  0  0  0  0
    0.8030   -0.9950   -0.5720 C   0  0  0  0  0  0  0  0  0  0  0  0
   -0.2150   -0.2130   -1.0690 N   0  0  0  0  0  0  0  0  0  0  0  0
   -1.0710   -0.1140   -0.5220 H   0  0  0  0  0  0  0  0  0  0  0  0
    1.8000   -1.1770   -1.2260 O   0  0  0  0  0  0  0  0  0  0  0  0
   -0.1430    0.3950   -2.4070 C   0  0  0  0  0  0  0  0  0  0  0  0
   -1.1370    1.5570   -2.6090 C   0  0  0  0  0  0  0  0  0  0  0  0
   -1.0090    2.2130   -3.9840 C   0  0  0  0  0  0  0  0  0  0  0  0
   -1.8390    3.2830   -4.2010 N   0  0  0  0  0  0  0  0  0  0  0  0
   -2.4670    3.5870   -3.4570 H   0  0  0  0  0  0  0  0  0  0  0  0
   -0.2340    1.8300   -4.8260 O   0  0  0  0  0  0  0  0  0  0  0  0
   -1.7980    4.0290   -5.4680 C   0  0  0  0  0  0  0  0  0  0  0  0
   -2.8830    5.1200   -5.5660 C   0  0  0  0  0  0  0  0  0  0  0  0
   -2.6860    5.9410   -7.1850 S   0  0  0  0  0  0  0  0  0  0  0  0
   -4.0420    7.1540   -7.1280 C   0  0  0  0  0  0  0  0  0  0  0  0
   -4.1780    8.0090   -8.3930 C   0  0  0  0  0  0  0  0  0  0  0  0
   -3.4560    7.8790   -9.3590 O   0  0  0  0  0  0  0  0  0  0  0  0
   -5.2600    9.0850   -8.4680 C   0  0  0  0  0  0  0  0  0  0  0  0
   -6.2450    9.1950   -7.2960 C   0  0  0  0  0  0  0  0  0  0  0  0
   -7.2880   10.3030   -7.5350 C   0  0  0  0  0  0  0  0  0  0  0  0
   -8.2650   10.4380   -6.3560 C   0  0  0  0  0  0  0  0  0  0  0  0
   -9.3200   11.5330   -6.5960 C   0  0  0  0  0  0  0  0  0  0  0  0
  -10.2310   11.7420   -5.3710 C   0  0  1  0  0  0  0  0  0  0  0  0
  -11.2770   12.8420   -5.5500 C   0  0  0  0  0  0  0  0  0  0  0  0
  -12.4080   12.7570   -5.1450 O   0  0  0  0  0  0  0  0  0  0  0  0
  -10.8540   13.9600   -6.1970 N   0  0  0  0  0  0  0  0  0  0  0  0
  -11.5250   14.7030   -6.3290 H   0  0  0  0  0  0  0  0  0  0  0  0
   -9.9100   14.0480   -6.5450 H   0  0  0  0  0  0  0  0  0  0  0  0
  -10.9220   10.4870   -5.0410 N   0  0  0  0  0  0  0  0  0  0  0  0
  -10.9060    9.9150   -3.7970 C   0  0  0  0  0  0  0  0  0  0  0  0
  -11.7640    8.6680   -3.6890 C   0  0  0  0  0  0  0  0  0  0  0  0
  -10.2660   10.3540   -2.8750 O   0  0  0  0  0  0  0  0  0  0  0  0
  -11.5130   10.0630   -5.7560 H   0  0  0  0  0  0  0  0  0  0  0  0
  1  2  1  0  0  0  0
  1  4  1  0  0  0  0
  3  1  1  0  0  0  0
  4  5  1  0  0  0  0
  6  5  1  6  0  0  0
  6  9  1  0  0  0  0
  6  8  1  0  0  0  0
  7  6  2  0  0  0  0
  9 10  1  0  0  0  0
 10 13  1  6  0  0  0
 10 11  1  0  0  0  0
 12 10  2  0  0  0  0
 13 14  1  0  0  0  0
 15 14  1  1  0  0  0
 15 19  1  0  0  0  0
 16 15  1  0  0  0  0
 16 17  1  0  0  0  0
 17 20  1  1  0  0  0
 17 18  1  0  0  0  0
 18 32  1  6  0  0  0
 19 34  1  6  0  0  0
 19 18  1  0  0  0  0
 20 21  1  0  0  0  0
 20 28  1  0  0  0  0
 21 23  1  0  0  0  0
 22 21  2  0  0  0  0
 22 24  1  0  0  0  0
 23 27  1  0  0  0  0
 23 26  2  0  0  0  0
 24 25  2  0  0  0  0
 25 26  1  0  0  0  0
 26 29  1  0  0  0  0
 28 27  2  0  0  0  0
 29 31  1  0  0  0  0
 29 30  1  0  0  0  0
 32 33  1  0  0  0  0
 35 37  1  0  0  0  0
 35 34  1  0  0  0  0
 36 35  2  0  0  0  0
 38 35  1  0  0  0  0
 39 41  1  1  0  0  0
 39  1  1  0  0  0  0
 39 40  1  0  0  0  0
 42 41  1  0  0  0  0
 42 43  1  0  0  0  0
 44 41  2  0  0  0  0
 45 42  1  0  0  0  0
 46 45  1  0  0  0  0
 47 46  1  0  0  0  0
 48 47  1  0  0  0  0
 48 49  1  0  0  0  0
 50 47  2  0  0  0  0
 51 48  1  0  0  0  0
 52 51  1  0  0  0  0
 53 54  1  0  0  0  0
 53 52  1  0  0  0  0
 55 54  1  0  0  0  0
 56 55  2  0  0  0  0
 57 55  1  0  0  0  0
 57 58  1  0  0  0  0
 59 58  1  0  0  0  0
 59 60  1  0  0  0  0
 61 60  1  0  0  0  0
 62 61  1  6  0  0  0
 62 68  1  0  0  0  0
 63 62  1  0  0  0  0
 63 64  2  0  0  0  0
 65 63  1  0  0  0  0
 66 65  1  0  0  0  0
 67 65  1  0  0  0  0
 68 69  1  0  0  0  0
 69 70  1  0  0  0  0
 69 71  2  0  0  0  0
 72 68  1  0  0  0  0
M  END
