pdbs/blv2.pdb
 OpenBabel07211515343D

 66 68  0  0  1  0  0  0  0  0999 V2000
    1.1600   -5.7510    6.3660 P   0  0  1  0  0  0  0  0  0  0  0  0
   -0.4710   -6.2930    6.6460 O   0  0  0  0  0  0  0  0  0  0  0  0
    1.2810   -4.5510    7.2410 O   0  0  0  0  0  0  0  0  0  0  0  0
    2.2910   -6.8730    6.6270 O   0  0  0  0  0  0  0  0  0  0  0  0
    3.8480   -6.4570    6.4110 P   0  0  2  0  0  0  0  0  0  0  0  0
    4.9320   -6.1890    7.7460 O   0  0  0  0  0  0  0  0  0  0  0  0
    4.0640   -5.4320    5.3500 O   0  0  0  0  0  0  0  0  0  0  0  0
    4.5370   -7.8130    5.6960 O   0  0  0  0  0  0  0  0  0  0  0  0
    4.6640   -9.0080    6.4350 C   0  0  0  0  0  0  0  0  0  0  0  0
    5.6500   -9.9750    5.7540 C   0  0  1  0  0  0  0  0  0  0  0  0
    6.8810   -9.3470    5.5220 O   0  0  0  0  0  0  0  0  0  0  0  0
    7.6590   -9.4290    6.7030 C   0  0  2  0  0  0  0  0  0  0  0  0
    6.9750  -10.4710    7.5850 C   0  0  1  0  0  0  0  0  0  0  0  0
    6.0310  -11.1920    6.6110 C   0  0  2  0  0  0  0  0  0  0  0  0
    7.9370   -8.1310    7.3380 N   0  0  0  0  0  0  0  0  0  0  0  0
    8.5110   -7.9980    8.4560 C   0  0  0  0  0  0  0  0  0  0  0  0
    9.0160   -8.7750    9.3120 N   0  0  0  0  0  0  0  0  0  0  0  0
    8.5820   -6.6630    8.6200 C   0  0  0  0  0  0  0  0  0  0  0  0
    9.5610   -8.1940   10.2930 C   0  0  0  0  0  0  0  0  0  0  0  0
    9.6960   -6.9590   10.5330 N   0  0  0  0  0  0  0  0  0  0  0  0
    9.1980   -6.1470    9.6960 C   0  0  0  0  0  0  0  0  0  0  0  0
    8.0590   -6.0740    7.6280 N   0  0  0  0  0  0  0  0  0  0  0  0
    7.6550   -6.9930    6.8560 C   0  0  0  0  0  0  0  0  0  0  0  0
    9.3380   -4.8980    9.8480 N   0  0  0  0  0  0  0  0  0  0  0  0
    9.8490   -4.5190   10.6830 H   0  0  0  0  0  0  0  0  0  0  0  0
    8.9450   -4.2290    9.1430 H   0  0  0  0  0  0  0  0  0  0  0  0
    7.8940  -11.3450    8.1900 O   0  0  0  0  0  0  0  0  0  0  0  0
    7.4270  -11.9940    8.7200 H   0  0  0  0  0  0  0  0  0  0  0  0
    6.7660  -12.3140    5.8320 C   0  0  0  0  0  0  0  0  0  0  0  0
    5.7760  -13.5650    4.8970 P   0  0  0  0  0  0  0  0  0  0  0  0
    5.9330  -13.5690    3.1680 O   0  0  0  0  0  0  0  0  0  0  0  0
    6.4240  -15.1710    5.0650 O   0  0  0  0  0  0  0  0  0  0  0  0
    4.3250  -13.6180    5.2270 O   0  0  0  0  0  0  0  0  0  0  0  0
    0.8990   -5.3140    4.7950 O   0  0  0  0  0  0  0  0  0  0  0  0
    0.6130   -3.9700    4.4860 C   0  0  0  0  0  0  0  0  0  0  0  0
    0.3740   -3.7950    2.9810 C   0  0  0  0  0  0  0  0  0  0  0  0
   -0.0940   -2.3620    2.6590 C   0  0  0  0  0  0  0  0  0  0  0  0
   -0.3020   -2.0970    1.1550 C   0  0  0  0  0  0  0  0  0  0  0  0
   -0.8670   -0.6860    0.8960 C   0  0  0  0  0  0  0  0  0  0  0  0
   -1.0520   -0.3650   -0.5980 C   0  0  0  0  0  0  0  0  0  0  0  0
   -1.6800    1.0250   -0.8100 C   0  0  0  0  0  0  0  0  0  0  0  0
   -1.8740    1.3950   -2.2930 C   0  0  0  0  0  0  0  0  0  0  0  0
   -2.5210    2.7830   -2.4580 C   0  0  0  0  0  0  0  0  0  0  0  0
   -2.7340    3.1920   -3.9290 C   0  0  0  0  0  0  0  0  0  0  0  0
   -3.3360    4.6060   -4.0320 C   0  0  0  0  0  0  0  0  0  0  0  0
   -3.5810    5.0800   -5.7790 S   0  0  0  0  0  0  0  0  0  0  0  0
   -3.9740    6.8400   -5.5090 C   0  0  0  0  0  0  0  0  0  0  0  0
   -4.0750    7.6000   -6.8280 C   0  0  0  0  0  0  0  0  0  0  0  0
   -5.3570    7.8340   -7.2510 N   0  0  0  0  0  0  0  0  0  0  0  0
   -6.1260    7.4390   -6.7090 H   0  0  0  0  0  0  0  0  0  0  0  0
   -3.0950    7.9830   -7.4190 O   0  0  0  0  0  0  0  0  0  0  0  0
   -5.6850    8.6280   -8.4430 C   0  0  0  0  0  0  0  0  0  0  0  0
   -6.7040    9.7190   -8.0750 C   0  0  0  0  0  0  0  0  0  0  0  0
   -7.0440   10.6390   -9.2610 C   0  0  0  0  0  0  0  0  0  0  0  0
   -8.0730   11.7210   -8.8830 C   0  0  0  0  0  0  0  0  0  0  0  0
   -8.4500   12.6520  -10.0490 C   0  0  1  0  0  0  0  0  0  0  0  0
   -9.5350   13.6360   -9.6220 C   0  0  0  0  0  0  0  0  0  0  0  0
   -9.3260   14.8070   -9.4260 O   0  0  0  0  0  0  0  0  0  0  0  0
  -10.7760   13.1040   -9.4720 N   0  0  0  0  0  0  0  0  0  0  0  0
  -11.5210   13.7150   -9.1700 H   0  0  0  0  0  0  0  0  0  0  0  0
  -10.9530   12.1290   -9.6640 H   0  0  0  0  0  0  0  0  0  0  0  0
   -7.3050   13.4530  -10.4980 N   0  0  0  0  0  0  0  0  0  0  0  0
   -6.5420   13.1420  -11.5890 C   0  0  0  0  0  0  0  0  0  0  0  0
   -5.4500   14.1530  -11.8780 C   0  0  0  0  0  0  0  0  0  0  0  0
   -6.7240   12.1550  -12.2560 O   0  0  0  0  0  0  0  0  0  0  0  0
   -7.1160   14.3120   -9.9800 H   0  0  0  0  0  0  0  0  0  0  0  0
  1 34  1  6  0  0  0
  1  4  1  0  0  0  0
  1  2  2  0  0  0  0
  1  3  1  0  0  0  0
  5  7  2  6  0  0  0
  5  4  1  0  0  0  0
  5  6  1  0  0  0  0
  8  5  1  0  0  0  0
  8  9  1  0  0  0  0
 10  9  1  1  0  0  0
 10 14  1  0  0  0  0
 11 10  1  0  0  0  0
 11 12  1  0  0  0  0
 12 15  1  1  0  0  0
 12 13  1  0  0  0  0
 13 27  1  6  0  0  0
 14 29  1  6  0  0  0
 14 13  1  0  0  0  0
 15 16  1  0  0  0  0
 16 18  2  0  0  0  0
 16 17  1  0  0  0  0
 17 19  2  0  0  0  0
 18 21  1  0  0  0  0
 19 20  1  0  0  0  0
 21 24  1  0  0  0  0
 21 20  2  0  0  0  0
 22 18  1  0  0  0  0
 23 15  1  0  0  0  0
 23 22  2  0  0  0  0
 24 25  1  0  0  0  0
 26 24  1  0  0  0  0
 27 28  1  0  0  0  0
 30 32  1  0  0  0  0
 30 33  1  0  0  0  0
 30 29  1  0  0  0  0
 31 30  2  0  0  0  0
 35 34  1  0  0  0  0
 36 35  1  0  0  0  0
 37 36  1  0  0  0  0
 38 37  1  0  0  0  0
 39 38  1  0  0  0  0
 40 39  1  0  0  0  0
 41 40  1  0  0  0  0
 42 41  1  0  0  0  0
 43 42  1  0  0  0  0
 44 43  1  0  0  0  0
 45 44  1  0  0  0  0
 46 47  1  0  0  0  0
 46 45  1  0  0  0  0
 48 47  1  0  0  0  0
 49 48  1  0  0  0  0
 49 50  1  0  0  0  0
 51 48  2  0  0  0  0
 52 53  1  0  0  0  0
 52 49  1  0  0  0  0
 54 55  1  0  0  0  0
 54 53  1  0  0  0  0
 56 62  1  1  0  0  0
 56 57  1  0  0  0  0
 56 55  1  0  0  0  0
 57 59  1  0  0  0  0
 57 58  2  0  0  0  0
 59 60  1  0  0  0  0
 61 59  1  0  0  0  0
 62 66  1  0  0  0  0
 63 62  1  0  0  0  0
 64 63  1  0  0  0  0
 65 63  2  0  0  0  0
M  END
