pdbs/blv3ab.pdb
 OpenBabel07211515343D

 67 68  0  0  1  0  0  0  0  0999 V2000
    0.0940   -0.4710   -2.8000 C   0  0  2  0  0  0  0  0  0  0  0  0
   -0.9150   -1.5990   -3.0920 C   0  0  0  0  0  0  0  0  0  0  0  0
    1.3450   -0.4650   -3.7320 C   0  0  0  0  0  0  0  0  0  0  0  0
    2.0580   -1.8330   -3.7200 C   0  0  0  0  0  0  0  0  0  0  0  0
    2.3640    0.6010   -3.2650 C   0  0  0  0  0  0  0  0  0  0  0  0
    0.8970   -0.1280   -5.1710 C   0  0  0  0  0  0  0  0  0  0  0  0
    2.0030    0.0970   -6.0110 O   0  0  0  0  0  0  0  0  0  0  0  0
    1.7600    0.5180   -7.5750 P   0  0  2  0  0  0  0  0  0  0  0  0
    2.5670    2.0550   -7.4340 O   0  0  0  0  0  0  0  0  0  0  0  0
    0.3410    0.8800   -7.8420 O   0  0  0  0  0  0  0  0  0  0  0  0
    2.4310   -0.4010   -8.7010 O   0  0  0  0  0  0  0  0  0  0  0  0
    1.9200   -1.9620   -8.8490 P   0  0  2  0  0  0  0  0  0  0  0  0
    0.9380   -2.3090  -10.2350 O   0  0  0  0  0  0  0  0  0  0  0  0
    1.4040   -2.5430   -7.5790 O   0  0  0  0  0  0  0  0  0  0  0  0
    3.4850   -2.5440   -8.9360 O   0  0  0  0  0  0  0  0  0  0  0  0
    4.1800   -2.4020  -10.1510 C   0  0  0  0  0  0  0  0  0  0  0  0
    5.6540   -2.7950  -10.0110 C   0  0  1  0  0  0  0  0  0  0  0  0
    5.8210   -4.1970   -9.8720 O   0  0  0  0  0  0  0  0  0  0  0  0
    6.6690   -4.6340  -10.9140 C   0  0  2  0  0  0  0  0  0  0  0  0
    6.3090   -3.6810  -12.0300 C   0  0  1  0  0  0  0  0  0  0  0  0
    6.4700   -2.3670  -11.2670 C   0  0  2  0  0  0  0  0  0  0  0  0
    6.4290   -6.0870  -11.2840 C   0  0  0  0  0  0  0  0  0  0  0  0
    7.4610   -6.9190  -11.5180 C   0  0  0  0  0  0  0  0  0  0  0  0
    7.2540   -8.2020  -11.8530 C   0  0  0  0  0  0  0  0  0  0  0  0
    6.0040   -8.6750  -11.9650 C   0  0  0  0  0  0  0  0  0  0  0  0
    4.9660   -7.8560  -11.7410 C   0  0  0  0  0  0  0  0  0  0  0  0
    5.1810   -6.5740  -11.4060 C   0  0  0  0  0  0  0  0  0  0  0  0
    6.9860   -3.8550  -13.2470 O   0  0  0  0  0  0  0  0  0  0  0  0
    7.7680   -3.3220  -13.3660 H   0  0  0  0  0  0  0  0  0  0  0  0
    7.8760   -1.8990  -10.8130 C   0  0  0  0  0  0  0  0  0  0  0  0
    9.2870   -2.1410  -12.0120 P   0  0  0  0  0  0  0  0  0  0  0  0
   10.8640   -1.6170  -11.5260 O   0  0  0  0  0  0  0  0  0  0  0  0
    9.1960   -3.8780  -12.0170 O   0  0  0  0  0  0  0  0  0  0  0  0
    8.8740   -1.7260  -13.3810 O   0  0  0  0  0  0  0  0  0  0  0  0
    0.4110   -0.4240   -1.3040 C   0  0  0  0  0  0  0  0  0  0  0  0
    0.7200    0.8240   -0.8330 N   0  0  0  0  0  0  0  0  0  0  0  0
    0.6720    1.6110   -1.4800 H   0  0  0  0  0  0  0  0  0  0  0  0
    0.3580   -1.3850   -0.5780 O   0  0  0  0  0  0  0  0  0  0  0  0
    1.0480    1.0930    0.5700 C   0  0  0  0  0  0  0  0  0  0  0  0
   -0.2270    1.2710    1.4110 C   0  0  0  0  0  0  0  0  0  0  0  0
    0.0240    1.7020    2.8490 C   0  0  0  0  0  0  0  0  0  0  0  0
   -1.1100    1.7960    3.6100 N   0  0  0  0  0  0  0  0  0  0  0  0
   -2.0100    1.6090    3.1670 H   0  0  0  0  0  0  0  0  0  0  0  0
    1.1210    1.9480    3.2860 O   0  0  0  0  0  0  0  0  0  0  0  0
   -1.0830    2.2360    5.0110 C   0  0  0  0  0  0  0  0  0  0  0  0
   -2.4260    1.9160    5.6880 C   0  0  0  0  0  0  0  0  0  0  0  0
   -2.3670    2.4670    7.4280 S   0  0  0  0  0  0  0  0  0  0  0  0
   -4.0180    1.8970    7.9390 C   0  0  0  0  0  0  0  0  0  0  0  0
   -4.2110    2.0830    9.4400 C   0  0  0  0  0  0  0  0  0  0  0  0
   -4.1450    3.3830    9.8610 N   0  0  0  0  0  0  0  0  0  0  0  0
   -4.0100    4.1150    9.1620 H   0  0  0  0  0  0  0  0  0  0  0  0
   -4.4170    1.1600   10.1890 O   0  0  0  0  0  0  0  0  0  0  0  0
   -4.3390    3.7660   11.2650 C   0  0  0  0  0  0  0  0  0  0  0  0
   -5.8330    3.9270   11.5890 C   0  0  0  0  0  0  0  0  0  0  0  0
   -6.0730    4.2960   13.0640 C   0  0  0  0  0  0  0  0  0  0  0  0
   -7.5670    4.5010   13.3670 C   0  0  0  0  0  0  0  0  0  0  0  0
   -7.8330    4.8390   14.8450 C   0  0  1  0  0  0  0  0  0  0  0  0
   -9.3050    5.1690   15.0650 C   0  0  0  0  0  0  0  0  0  0  0  0
  -10.0860    4.3960   15.5550 O   0  0  0  0  0  0  0  0  0  0  0  0
   -9.6910    6.4070   14.6600 N   0  0  0  0  0  0  0  0  0  0  0  0
  -10.6600    6.6630   14.7840 H   0  0  0  0  0  0  0  0  0  0  0  0
   -9.0300    7.0580   14.2590 H   0  0  0  0  0  0  0  0  0  0  0  0
   -7.4980    3.7050   15.7160 N   0  0  0  0  0  0  0  0  0  0  0  0
   -6.5360    3.7490   16.6870 C   0  0  0  0  0  0  0  0  0  0  0  0
   -6.4190    2.4710   17.4950 C   0  0  0  0  0  0  0  0  0  0  0  0
   -5.8410    4.7140   16.8850 O   0  0  0  0  0  0  0  0  0  0  0  0
   -8.0860    2.8740   15.6420 H   0  0  0  0  0  0  0  0  0  0  0  0
  1  3  1  1  0  0  0
  1 35  1  0  0  0  0
  2  1  1  0  0  0  0
  3  4  1  0  0  0  0
  3  5  1  0  0  0  0
  6  3  1  0  0  0  0
  7  6  1  0  0  0  0
  8 11  1  6  0  0  0
  8  9  1  0  0  0  0
  8  7  1  0  0  0  0
 10  8  2  0  0  0  0
 12 13  2  6  0  0  0
 12 11  1  0  0  0  0
 12 14  1  0  0  0  0
 15 12  1  0  0  0  0
 16 15  1  0  0  0  0
 17 16  1  6  0  0  0
 17 18  1  0  0  0  0
 19 22  1  6  0  0  0
 19 18  1  0  0  0  0
 20 28  1  1  0  0  0
 20 21  1  0  0  0  0
 20 19  1  0  0  0  0
 21 30  1  1  0  0  0
 21 17  1  0  0  0  0
 23 22  2  0  0  0  0
 24 23  1  0  0  0  0
 25 24  2  0  0  0  0
 25 26  1  0  0  0  0
 26 27  2  0  0  0  0
 27 22  1  0  0  0  0
 29 28  1  0  0  0  0
 31 32  1  0  0  0  0
 31 30  1  0  0  0  0
 33 31  1  0  0  0  0
 34 31  2  0  0  0  0
 35 36  1  0  0  0  0
 35 38  2  0  0  0  0
 36 39  1  0  0  0  0
 37 36  1  0  0  0  0
 39 40  1  0  0  0  0
 40 41  1  0  0  0  0
 41 44  2  0  0  0  0
 41 42  1  0  0  0  0
 42 45  1  0  0  0  0
 43 42  1  0  0  0  0
 45 46  1  0  0  0  0
 46 47  1  0  0  0  0
 47 48  1  0  0  0  0
 48 49  1  0  0  0  0
 49 50  1  0  0  0  0
 49 52  2  0  0  0  0
 50 53  1  0  0  0  0
 51 50  1  0  0  0  0
 53 54  1  0  0  0  0
 54 55  1  0  0  0  0
 55 56  1  0  0  0  0
 57 56  1  6  0  0  0
 57 58  1  0  0  0  0
 57 63  1  0  0  0  0
 58 59  2  0  0  0  0
 60 61  1  0  0  0  0
 60 58  1  0  0  0  0
 62 60  1  0  0  0  0
 63 64  1  0  0  0  0
 64 66  2  0  0  0  0
 64 65  1  0  0  0  0
 67 63  1  0  0  0  0
M  END
