pdbs/div5-1588.pdb
 OpenBabel07211515353D

 37 41  0  0  0  0  0  0  0  0999 V2000
   -3.3720    3.2350    0.1290 Cl  0  0  0  0  0  0  0  0  0  0  0  0
   -1.5000    3.6320   -1.6630 C   0  0  0  0  0  0  0  0  0  0  0  0
   -0.6020    3.3180   -2.6760 C   0  0  0  0  0  0  0  0  0  0  0  0
   -2.3040    2.6430   -1.0860 C   0  0  0  0  0  0  0  0  0  0  0  0
   -0.5150    2.0160   -3.1550 C   0  0  0  0  0  0  0  0  0  0  0  0
   -2.2080    1.3100   -1.5230 C   0  0  0  0  0  0  0  0  0  0  0  0
   -1.2990    1.0230   -2.5580 C   0  0  0  0  0  0  0  0  0  0  0  0
    0.0660    4.4340   -3.3680 C   0  0  0  0  0  0  0  0  0  0  0  0
   -0.6480    5.0980   -4.1190 O   0  0  0  0  0  0  0  0  0  0  0  0
    1.3760    4.5420   -3.1070 N   0  0  0  0  0  0  0  0  0  0  0  0
    1.9610    5.7230   -3.4300 C   0  0  0  0  0  0  0  0  0  0  0  0
    1.8810    6.2910   -4.7130 C   0  0  0  0  0  0  0  0  0  0  0  0
    2.5740    7.4480   -5.0670 C   0  0  0  0  0  0  0  0  0  0  0  0
    3.4180    8.0410   -4.1380 C   0  0  0  0  0  0  0  0  0  0  0  0
    3.5550    7.5070   -2.8620 C   0  0  0  0  0  0  0  0  0  0  0  0
    4.0870    9.2840   -4.5010 C   0  0  0  0  0  0  0  0  0  0  0  0
    2.8320    6.3530   -2.5250 C   0  0  0  0  0  0  0  0  0  0  0  0
    3.4330   10.4200   -4.6520 N   0  0  0  0  0  0  0  0  0  0  0  0
    5.4450    9.3830   -4.7590 N   0  0  0  0  0  0  0  0  0  0  0  0
    4.3660   11.4320   -5.0580 C   0  0  0  0  0  0  0  0  0  0  0  0
    5.7330   10.7520   -5.1230 C   0  0  0  0  0  0  0  0  0  0  0  0
    6.0860    8.6080   -4.6480 H   0  0  0  0  0  0  0  0  0  0  0  0
   -3.0160    0.1300   -1.0490 C   0  0  0  0  0  0  0  0  0  0  0  0
   -3.5280    0.1970    0.1830 N   0  0  0  0  0  0  0  0  0  0  0  0
   -3.0480   -0.8650   -1.7720 O   0  0  0  0  0  0  0  0  0  0  0  0
   -4.8840    0.2650    0.2550 C   0  0  0  0  0  0  0  0  0  0  0  0
   -5.7400    0.5130   -0.8330 C   0  0  0  0  0  0  0  0  0  0  0  0
   -7.1230    0.6320   -0.6850 C   0  0  0  0  0  0  0  0  0  0  0  0
   -7.6860    0.5130    0.5810 C   0  0  0  0  0  0  0  0  0  0  0  0
   -6.8750    0.2820    1.6860 C   0  0  0  0  0  0  0  0  0  0  0  0
   -9.1410    0.5510    0.7440 C   0  0  0  0  0  0  0  0  0  0  0  0
   -5.4930    0.1700    1.5150 C   0  0  0  0  0  0  0  0  0  0  0  0
  -10.0330    0.2050   -0.2620 N   0  0  0  0  0  0  0  0  0  0  0  0
   -9.7320    0.8710    1.8800 N   0  0  0  0  0  0  0  0  0  0  0  0
   -9.7290   -0.1450   -1.1630 H   0  0  0  0  0  0  0  0  0  0  0  0
  -11.3700    0.2570    0.2800 C   0  0  0  0  0  0  0  0  0  0  0  0
  -11.1500    0.7220    1.7180 C   0  0  0  0  0  0  0  0  0  0  0  0
  2  4  2  0  0  0  0
  3  2  1  0  0  0  0
  4  1  1  0  0  0  0
  5  3  2  0  0  0  0
  5  7  1  0  0  0  0
  6  4  1  0  0  0  0
  6 23  1  0  0  0  0
  7  6  2  0  0  0  0
  8 10  1  0  0  0  0
  8  3  1  0  0  0  0
  9  8  2  0  0  0  0
 11 10  1  0  0  0  0
 11 17  2  0  0  0  0
 12 11  1  0  0  0  0
 13 12  2  0  0  0  0
 13 14  1  0  0  0  0
 14 15  2  0  0  0  0
 15 17  1  0  0  0  0
 16 14  1  0  0  0  0
 18 16  2  0  0  0  0
 19 22  1  0  0  0  0
 19 16  1  0  0  0  0
 20 18  1  0  0  0  0
 21 20  2  0  0  0  0
 21 19  1  0  0  0  0
 23 24  1  0  0  0  0
 24 26  1  0  0  0  0
 25 23  2  0  0  0  0
 26 32  2  0  0  0  0
 27 28  2  0  0  0  0
 27 26  1  0  0  0  0
 28 29  1  0  0  0  0
 29 31  1  0  0  0  0
 29 30  2  0  0  0  0
 31 34  2  0  0  0  0
 32 30  1  0  0  0  0
 33 36  1  0  0  0  0
 33 31  1  0  0  0  0
 35 33  1  0  0  0  0
 36 37  2  0  0  0  0
 37 34  1  0  0  0  0
M  END
