pdbs/div5-1539.pdb
 OpenBabel07211515343D

 42 48  0  0  0  0  0  0  0  0999 V2000
    6.9580   -3.4640    4.7550 C   0  0  0  0  0  0  0  0  0  0  0  0
    7.3660   -2.8090    5.9220 C   0  0  0  0  0  0  0  0  0  0  0  0
    7.6270   -3.5410    7.0850 C   0  0  0  0  0  0  0  0  0  0  0  0
    7.4340   -4.9250    7.0870 C   0  0  0  0  0  0  0  0  0  0  0  0
    7.0300   -5.5820    5.9260 C   0  0  0  0  0  0  0  0  0  0  0  0
    6.7760   -4.8490    4.7710 C   0  0  0  0  0  0  0  0  0  0  0  0
    6.6490   -2.6780    3.5230 C   0  0  0  0  0  0  0  0  0  0  0  0
    6.3610   -1.4900    3.6620 O   0  0  0  0  0  0  0  0  0  0  0  0
    6.6740   -3.4060    2.3980 N   0  0  0  0  0  0  0  0  0  0  0  0
    6.6570   -2.7260    1.2330 C   0  0  0  0  0  0  0  0  0  0  0  0
    7.7230   -1.9130    0.8260 C   0  0  0  0  0  0  0  0  0  0  0  0
    7.7760   -1.3590   -0.4550 C   0  0  0  0  0  0  0  0  0  0  0  0
    8.8830   -0.4060   -0.8220 C   0  0  0  0  0  0  0  0  0  0  0  0
    6.7660   -1.6290   -1.3730 C   0  0  0  0  0  0  0  0  0  0  0  0
   10.2790   -0.7160   -0.7770 N   0  0  0  0  0  0  0  0  0  0  0  0
    8.7100    0.9970   -1.0430 N   0  0  0  0  0  0  0  0  0  0  0  0
   10.9000    0.4000   -0.9930 C   0  0  0  0  0  0  0  0  0  0  0  0
    9.9020    1.4890   -1.1650 C   0  0  0  0  0  0  0  0  0  0  0  0
   12.3560    0.7010   -1.0390 C   0  0  0  0  0  0  0  0  0  0  0  0
   10.3440    2.8880   -1.4150 C   0  0  0  0  0  0  0  0  0  0  0  0
   11.6560    3.0630   -1.6000 C   0  0  0  0  0  0  0  0  0  0  0  0
   12.6900    1.9890   -1.1620 C   0  0  0  0  0  0  0  0  0  0  0  0
    5.6950   -2.4310   -0.9970 C   0  0  0  0  0  0  0  0  0  0  0  0
    5.6500   -2.9720    0.2900 C   0  0  0  0  0  0  0  0  0  0  0  0
    7.9590   -5.7540    8.1870 C   0  0  0  0  0  0  0  0  0  0  0  0
    8.9230   -6.4590    7.8830 O   0  0  0  0  0  0  0  0  0  0  0  0
    7.3790   -5.5560    9.3810 N   0  0  0  0  0  0  0  0  0  0  0  0
    7.5100   -6.5390   10.3120 C   0  0  0  0  0  0  0  0  0  0  0  0
    6.5230   -6.7160   11.2970 C   0  0  0  0  0  0  0  0  0  0  0  0
    6.6380   -7.6850   12.3080 C   0  0  0  0  0  0  0  0  0  0  0  0
    5.5900   -7.8110   13.3920 C   0  0  0  0  0  0  0  0  0  0  0  0
    7.7540   -8.5140   12.3450 C   0  0  0  0  0  0  0  0  0  0  0  0
    5.7980   -7.5460   14.7860 N   0  0  0  0  0  0  0  0  0  0  0  0
    4.2600   -8.3000   13.1960 N   0  0  0  0  0  0  0  0  0  0  0  0
    4.6790   -7.8270   15.3770 C   0  0  0  0  0  0  0  0  0  0  0  0
    3.7020   -8.3090   14.3650 C   0  0  0  0  0  0  0  0  0  0  0  0
    4.2920   -7.7380   16.8130 C   0  0  0  0  0  0  0  0  0  0  0  0
    2.3110   -8.6570   14.7650 C   0  0  0  0  0  0  0  0  0  0  0  0
    1.9760   -8.3740   16.0270 C   0  0  0  0  0  0  0  0  0  0  0  0
    3.0570   -8.1490   17.1210 C   0  0  0  0  0  0  0  0  0  0  0  0
    8.7670   -8.3440   11.4140 C   0  0  0  0  0  0  0  0  0  0  0  0
    8.6460   -7.3540   10.4390 C   0  0  0  0  0  0  0  0  0  0  0  0
  1  6  2  0  0  0  0
  1  2  1  0  0  0  0
  2  3  2  0  0  0  0
  3  4  1  0  0  0  0
  4 25  1  0  0  0  0
  5  4  2  0  0  0  0
  6  5  1  0  0  0  0
  7  8  2  0  0  0  0
  7  1  1  0  0  0  0
  9  7  1  0  0  0  0
 10  9  1  0  0  0  0
 11 10  1  0  0  0  0
 12 11  2  0  0  0  0
 13 15  1  0  0  0  0
 13 12  1  0  0  0  0
 14 23  2  0  0  0  0
 14 12  1  0  0  0  0
 16 13  2  0  0  0  0
 17 15  1  0  0  0  0
 18 16  1  0  0  0  0
 18 17  2  0  0  0  0
 19 17  1  0  0  0  0
 20 18  1  0  0  0  0
 21 20  2  0  0  0  0
 21 22  1  0  0  0  0
 22 19  2  0  0  0  0
 23 24  1  0  0  0  0
 24 10  2  0  0  0  0
 25 27  1  0  0  0  0
 26 25  2  0  0  0  0
 27 28  1  0  0  0  0
 28 42  2  0  0  0  0
 28 29  1  0  0  0  0
 29 30  2  0  0  0  0
 30 32  1  0  0  0  0
 30 31  1  0  0  0  0
 31 33  1  0  0  0  0
 33 35  1  0  0  0  0
 34 31  2  0  0  0  0
 34 36  1  0  0  0  0
 35 37  2  0  0  0  0
 36 38  2  0  0  0  0
 36 35  1  0  0  0  0
 37 40  1  0  0  0  0
 38 39  1  0  0  0  0
 39 40  2  0  0  0  0
 41 32  2  0  0  0  0
 42 41  1  0  0  0  0
M  END
