pdbs/div5-1303.pdb
 OpenBabel07211515343D

 29 29  0  0  1  0  0  0  0  0999 V2000
   -0.2600   -0.6360   -0.5170 N   0  0  0  0  0  0  0  0  0  0  0  0
    0.5180    0.4700   -0.5780 C   0  0  0  0  0  0  0  0  0  0  0  0
    0.2580    1.6120   -0.1950 O   0  0  0  0  0  0  0  0  0  0  0  0
   -1.6320   -0.4490   -0.4110 C   0  0  1  0  0  0  0  0  0  0  0  0
   -2.5950   -0.3140   -1.3860 C   0  0  0  0  0  0  0  0  0  0  0  0
   -4.0230   -0.1240   -0.9180 C   0  0  0  0  0  0  0  0  0  0  0  0
   -2.3760   -0.3320   -2.6390 O   0  0  0  0  0  0  0  0  0  0  0  0
   -4.3160    0.0690    0.4160 C   0  0  0  0  0  0  0  0  0  0  0  0
   -5.1160   -0.0170   -1.7840 C   0  0  0  0  0  0  0  0  0  0  0  0
   -3.3150   -0.0780    1.3740 O   0  0  0  0  0  0  0  0  0  0  0  0
   -5.6160    0.3730    0.8820 C   0  0  2  0  0  0  0  0  0  0  0  0
   -2.1340   -0.6950    0.9930 C   0  0  0  0  0  0  0  0  0  0  0  0
   -1.5130   -1.3860    1.8040 O   0  0  0  0  0  0  0  0  0  0  0  0
   -6.7250    0.4890    0.0270 C   0  0  0  0  0  0  0  0  0  0  0  0
   -5.8330    0.5960    2.3540 C   0  0  0  0  0  0  0  0  0  0  0  0
   -6.4160    0.2720   -1.3230 C   0  0  0  0  0  0  0  0  0  0  0  0
   -7.8990    0.7640    0.4400 O   0  0  0  0  0  0  0  0  0  0  0  0
    1.8760    0.2790   -1.2070 C   0  0  0  0  0  0  0  0  0  0  0  0
    1.9320   -0.0180   -2.5670 C   0  0  0  0  0  0  0  0  0  0  0  0
    3.1530   -0.0620   -3.2480 C   0  0  0  0  0  0  0  0  0  0  0  0
    4.3630    0.1990   -2.6010 C   0  0  0  0  0  0  0  0  0  0  0  0
    5.4470    0.1250   -3.4380 O   0  0  0  0  0  0  0  0  0  0  0  0
    4.3250    0.4640   -1.2210 C   0  0  0  0  0  0  0  0  0  0  0  0
    6.7160    0.4160   -2.8520 C   0  0  0  0  0  0  0  0  0  0  0  0
    6.7140   -0.2730   -1.2150 C   0  0  0  0  0  0  0  0  0  0  0  0
    6.7140   -0.3010   -1.1510 C   0  0  0  0  0  0  0  0  0  0  0  0
    6.7170   -0.3030   -1.1520 C   0  0  0  0  0  0  0  0  0  0  0  0
    5.5870    0.3320   -0.4180 C   0  0  0  0  0  0  0  0  0  0  0  0
    3.0860    0.5450   -0.5390 C   0  0  0  0  0  0  0  0  0  0  0  0
  2  1  1  0  0  0  0
  2  3  2  0  0  0  0
  4  1  1  6  0  0  0
  4 12  1  0  0  0  0
  5  6  1  0  0  0  0
  5  4  1  0  0  0  0
  6  8  2  0  0  0  0
  7  5  2  0  0  0  0
  8 11  1  0  0  0  0
  8 10  1  0  0  0  0
  9 16  2  0  0  0  0
  9  6  1  0  0  0  0
 11 15  1  6  0  0  0
 12 10  1  0  0  0  0
 12 13  2  0  0  0  0
 14 17  2  0  0  0  0
 14 11  1  0  0  0  0
 16 14  1  0  0  0  0
 18  2  1  0  0  0  0
 18 29  1  0  0  0  0
 19 18  2  0  0  0  0
 20 21  2  0  0  0  0
 20 19  1  0  0  0  0
 21 23  1  0  0  0  0
 22 24  1  0  0  0  0
 22 21  1  0  0  0  0
 23 29  2  0  0  0  0
 24 25  1  0  0  0  0
 26 28  1  0  0  0  0
M  END
