pdbs/div5-1399.pdb
 OpenBabel07211515343D

 23 26  0  0  0  0  0  0  0  0999 V2000
    0.2770   -2.2020    1.1610 C   0  0  0  0  0  0  0  0  0  0  0  0
   -1.0970   -2.1310    1.1030 C   0  0  0  0  0  0  0  0  0  0  0  0
   -1.4490   -0.8750    0.5250 C   0  0  0  0  0  0  0  0  0  0  0  0
   -3.8910   -0.8570    0.3550 C   0  0  0  0  0  0  0  0  0  0  0  0
   -0.2590   -0.1860    0.2860 C   0  0  0  0  0  0  0  0  0  0  0  0
   -2.6610   -0.2410    0.1550 C   0  0  0  0  0  0  0  0  0  0  0  0
   -0.2190    1.0810   -0.2990 C   0  0  0  0  0  0  0  0  0  0  0  0
   -2.6680    1.0300   -0.4350 C   0  0  0  0  0  0  0  0  0  0  0  0
   -4.9650    0.9500   -0.5430 C   0  0  0  0  0  0  0  0  0  0  0  0
   -1.4470    1.6530   -0.6510 C   0  0  0  0  0  0  0  0  0  0  0  0
   -5.0550   -0.2770    0.0120 N   0  0  0  0  0  0  0  0  0  0  0  0
   -3.8170    1.6270   -0.7810 N   0  0  0  0  0  0  0  0  0  0  0  0
    0.7410   -0.9910    0.7500 N   0  0  0  0  0  0  0  0  0  0  0  0
   -6.1850    1.5910   -0.9090 N   0  0  0  0  0  0  0  0  0  0  0  0
   -3.9180   -2.1550    0.9410 N   0  0  0  0  0  0  0  0  0  0  0  0
    1.8020   -1.1240   -0.2130 C   0  0  0  0  0  0  0  0  0  0  0  0
    1.6860   -1.8020   -1.5710 C   0  0  0  0  0  0  0  0  0  0  0  0
    1.3510   -1.0520   -2.6980 C   0  0  0  0  0  0  0  0  0  0  0  0
    1.2140   -1.6740   -3.9360 C   0  0  0  0  0  0  0  0  0  0  0  0
    1.4170   -3.0470   -4.0480 C   0  0  0  0  0  0  0  0  0  0  0  0
    1.7650   -3.7970   -2.9270 C   0  0  0  0  0  0  0  0  0  0  0  0
    1.2470   -3.6900   -5.3050 N   0  0  0  0  0  0  0  0  0  0  0  0
    1.9070   -3.1730   -1.6900 C   0  0  0  0  0  0  0  0  0  0  0  0
  2  1  2  0  0  0  0
  3  2  1  0  0  0  0
  4 15  1  0  0  0  0
  5  3  1  0  0  0  0
  5 13  1  0  0  0  0
  6  4  1  0  0  0  0
  6  3  2  0  0  0  0
  7  5  2  0  0  0  0
  8  6  1  0  0  0  0
  9 11  1  0  0  0  0
 10  8  2  0  0  0  0
 10  7  1  0  0  0  0
 11  4  2  0  0  0  0
 12  9  2  0  0  0  0
 12  8  1  0  0  0  0
 13  1  1  0  0  0  0
 14  9  1  0  0  0  0
 16 13  1  0  0  0  0
 17 16  1  0  0  0  0
 18 17  2  0  0  0  0
 19 18  1  0  0  0  0
 20 19  2  0  0  0  0
 20 21  1  0  0  0  0
 21 23  2  0  0  0  0
 22 20  1  0  0  0  0
 23 17  1  0  0  0  0
M  END
