pdbs/div5-1551.pdb
 OpenBabel07211515343D

 40 45  0  0  1  0  0  0  0  0999 V2000
   -3.0250   -2.8040    3.3840 C   0  0  0  0  0  0  0  0  0  0  0  0
   -2.3090   -3.8020    3.9760 C   0  0  0  0  0  0  0  0  0  0  0  0
   -0.8750   -3.5230    4.4240 C   0  0  0  0  0  0  0  0  0  0  0  0
   -0.2310   -2.5260    3.4110 C   0  0  2  0  0  0  0  0  0  0  0  0
   -1.0270   -1.2130    3.1680 C   0  0  2  0  0  0  0  0  0  0  0  0
   -2.4830   -1.6180    3.0530 C   0  0  0  0  0  0  0  0  0  0  0  0
    0.0940   -3.2850    2.1010 C   0  0  0  0  0  0  0  0  0  0  0  0
   -0.1800   -2.5320    0.8000 C   0  0  0  0  0  0  0  0  0  0  0  0
    0.2250   -1.0480    0.8310 C   0  0  2  0  0  0  0  0  0  0  0  0
   -0.6740   -0.4150    1.8860 C   0  0  0  0  0  0  0  0  0  0  0  0
   -0.0360   -0.3740   -0.5750 C   0  0  1  0  0  0  0  0  0  0  0  0
    0.0370    1.1600   -0.4190 C   0  0  2  0  0  0  0  0  0  0  0  0
   -0.9200    1.6530    0.6570 C   0  0  0  0  0  0  0  0  0  0  0  0
   -1.1750    0.8240    1.7030 C   0  0  0  0  0  0  0  0  0  0  0  0
    1.0230   -0.7770   -1.6280 C   0  0  0  0  0  0  0  0  0  0  0  0
    0.9350    0.0200   -2.9380 C   0  0  0  0  0  0  0  0  0  0  0  0
    1.1950    1.5370   -2.7430 C   0  0  2  0  0  0  0  0  0  0  0  0
    0.1190    2.0190   -1.7120 C   0  0  1  0  0  0  0  0  0  0  0  0
    0.9980    2.3300   -4.0670 C   0  0  0  0  0  0  0  0  0  0  0  0
    0.3400    3.7050   -3.8740 C   0  0  0  0  0  0  0  0  0  0  0  0
   -1.0980    3.5910   -3.3210 C   0  0  0  0  0  0  0  0  0  0  0  0
   -1.2080    2.3240   -2.4410 C   0  0  0  0  0  0  0  0  0  0  0  0
   -4.3150   -2.9560    3.1400 C   0  0  0  0  0  0  0  0  0  0  0  0
   -5.4470   -3.0460    2.9060 N   0  0  0  0  0  0  0  0  0  0  0  0
   -1.4410   -0.7750   -1.0930 C   0  0  0  0  0  0  0  0  0  0  0  0
   -0.0370   -4.8260    4.5410 C   0  0  0  0  0  0  0  0  0  0  0  0
   -1.0140   -3.0230    5.8810 C   0  0  0  0  0  0  0  0  0  0  0  0
    1.6980   -0.9310    1.2910 C   0  0  0  0  0  0  0  0  0  0  0  0
   -1.4410    4.8540   -2.5000 C   0  0  0  0  0  0  0  0  0  0  0  0
   -2.1110    3.4950   -4.4840 C   0  0  0  0  0  0  0  0  0  0  0  0
   -2.8300   -4.8720    4.2100 O   0  0  0  0  0  0  0  0  0  0  0  0
   -1.4170    2.7590    0.6080 O   0  0  0  0  0  0  0  0  0  0  0  0
   -0.7810   -0.2200    4.3340 C   0  0  0  0  0  0  0  0  0  0  0  0
    2.6520    1.7650   -2.2380 C   0  0  0  0  0  0  0  0  0  0  0  0
    2.7950    2.3920   -1.2060 O   0  0  0  0  0  0  0  0  0  0  0  0
    3.6840    1.3200   -2.8450 N   0  0  0  0  0  0  0  0  0  0  0  0
    3.8350    0.7980   -3.9990 C   0  0  0  0  0  0  0  0  0  0  0  0
    4.8740    1.3210   -2.3750 C   0  0  0  0  0  0  0  0  0  0  0  0
    5.1300    0.5000   -4.1660 C   0  0  0  0  0  0  0  0  0  0  0  0
    5.7660    0.8360   -3.1300 N   0  0  0  0  0  0  0  0  0  0  0  0
  1  2  1  0  0  0  0
  2 31  2  0  0  0  0
  2  3  1  0  0  0  0
  3 26  1  0  0  0  0
  3 27  1  0  0  0  0
  4  7  1  6  0  0  0
  4  3  1  0  0  0  0
  5  4  1  0  0  0  0
  5 33  1  1  0  0  0
  6  5  1  0  0  0  0
  6  1  2  0  0  0  0
  8  9  1  0  0  0  0
  8  7  1  0  0  0  0
  9 28  1  1  0  0  0
  9 10  1  0  0  0  0
 10  5  1  0  0  0  0
 11 25  1  6  0  0  0
 11 12  1  0  0  0  0
 11  9  1  0  0  0  0
 12 13  1  6  0  0  0
 13 14  1  0  0  0  0
 14 10  2  0  0  0  0
 15 11  1  0  0  0  0
 16 17  1  0  0  0  0
 16 15  1  0  0  0  0
 17 34  1  1  0  0  0
 17 18  1  0  0  0  0
 18 22  1  6  0  0  0
 18 12  1  0  0  0  0
 19 20  1  0  0  0  0
 19 17  1  0  0  0  0
 20 21  1  0  0  0  0
 21 29  1  0  0  0  0
 21 22  1  0  0  0  0
 23  1  1  0  0  0  0
 24 23  3  0  0  0  0
 30 21  1  0  0  0  0
 32 13  2  0  0  0  0
 34 35  2  0  0  0  0
 36 38  1  0  0  0  0
 36 34  1  0  0  0  0
 37 36  1  0  0  0  0
 39 37  2  0  0  0  0
 39 40  1  0  0  0  0
 40 38  2  0  0  0  0
M  END
