pdbs/div5-1157.pdb
 OpenBabel07211515343D

 26 28  0  0  0  0  0  0  0  0999 V2000
    1.6970   -0.1830   -0.2720 C   0  0  0  0  0  0  0  0  0  0  0  0
    2.4510   -1.2950    0.2050 C   0  0  0  0  0  0  0  0  0  0  0  0
    2.3190    1.0180   -0.7450 C   0  0  0  0  0  0  0  0  0  0  0  0
    1.8570   -2.4970    0.6250 C   0  0  0  0  0  0  0  0  0  0  0  0
    2.6210   -3.5730    1.0730 C   0  0  0  0  0  0  0  0  0  0  0  0
    3.7410    1.0330   -0.6590 C   0  0  0  0  0  0  0  0  0  0  0  0
    3.8520   -1.2100    0.2550 C   0  0  0  0  0  0  0  0  0  0  0  0
    4.0060   -3.4680    1.1080 C   0  0  0  0  0  0  0  0  0  0  0  0
    4.4810   -0.0510   -0.1640 C   0  0  0  0  0  0  0  0  0  0  0  0
    4.6190   -2.2870    0.7020 C   0  0  0  0  0  0  0  0  0  0  0  0
    1.6460    2.0000   -1.2200 O   0  0  0  0  0  0  0  0  0  0  0  0
    0.2840   -0.3020   -0.3540 N   0  0  0  0  0  0  0  0  0  0  0  0
   -0.2370   -0.0660    0.7590 N   0  0  0  0  0  0  0  0  0  0  0  0
   -1.6390   -0.1970    0.7210 C   0  0  0  0  0  0  0  0  0  0  0  0
   -2.3130   -0.9920   -0.2150 C   0  0  0  0  0  0  0  0  0  0  0  0
   -3.6990   -1.1340   -0.1740 C   0  0  0  0  0  0  0  0  0  0  0  0
   -4.4310   -0.4940    0.8210 C   0  0  0  0  0  0  0  0  0  0  0  0
   -3.7750    0.2790    1.7760 C   0  0  0  0  0  0  0  0  0  0  0  0
   -2.3900    0.4290    1.7200 C   0  0  0  0  0  0  0  0  0  0  0  0
   -5.9170   -0.7360    0.9230 C   0  0  0  0  0  0  0  0  0  0  0  0
   -6.9250    0.3580    0.6580 C   0  0  0  0  0  0  0  0  0  0  0  0
   -7.1380    0.6560   -0.5560 O   0  0  0  0  0  0  0  0  0  0  0  0
   -7.5150    0.8370    1.6720 O   0  0  0  0  0  0  0  0  0  0  0  0
    4.5360    2.2120   -1.1310 C   0  0  0  0  0  0  0  0  0  0  0  0
    5.0830    2.1000   -2.2700 O   0  0  0  0  0  0  0  0  0  0  0  0
    4.5950    3.2060   -0.3460 O   0  0  0  0  0  0  0  0  0  0  0  0
  1  2  2  0  0  0  0
  2  7  1  0  0  0  0
  2  4  1  0  0  0  0
  3  6  2  0  0  0  0
  3  1  1  0  0  0  0
  4  5  2  0  0  0  0
  5  8  1  0  0  0  0
  6  9  1  0  0  0  0
  7 10  1  0  0  0  0
  9  7  2  0  0  0  0
 10  8  2  0  0  0  0
 11  3  1  0  0  0  0
 12  1  1  0  0  0  0
 12 13  1  0  0  0  0
 14 13  1  0  0  0  0
 14 19  2  0  0  0  0
 15 16  2  0  0  0  0
 15 14  1  0  0  0  0
 16 17  1  0  0  0  0
 17 20  1  0  0  0  0
 17 18  2  0  0  0  0
 19 18  1  0  0  0  0
 21 20  1  0  0  0  0
 21 23  1  0  0  0  0
 22 21  2  0  0  0  0
 24  6  1  0  0  0  0
 24 26  1  0  0  0  0
 25 24  2  0  0  0  0
M  END
