pdbs/div5-1309a.pdb
 OpenBabel07211515343D

 33 37  0  0  1  0  0  0  0  0999 V2000
   -0.0290    2.5930   -1.8300 O   0  0  0  0  0  0  0  0  0  0  0  0
   -0.4310    2.6790   -4.0650 O   0  0  0  0  0  0  0  0  0  0  0  0
   -2.1370   -1.8350   -0.3370 C   0  0  2  0  0  0  0  0  0  0  0  0
   -3.1690    0.2750   -0.0290 O   0  0  0  0  0  0  0  0  0  0  0  0
   -2.2670   -0.6360    0.5700 C   0  0  2  0  0  0  0  0  0  0  0  0
   -1.8050   -1.4150   -1.7770 C   0  0  1  0  0  0  0  0  0  0  0  0
   -0.7630   -0.2720   -1.7910 C   0  0  1  0  0  0  0  0  0  0  0  0
   -1.0190    0.1970    0.7680 C   0  0  2  0  0  0  0  0  0  0  0  0
   -0.7030    0.5450   -3.0900 C   0  0  1  0  0  0  0  0  0  0  0  0
   -0.9520    0.7480   -0.6540 C   0  0  1  0  0  0  0  0  0  0  0  0
    0.3090   -0.0640    1.5140 C   0  0  1  0  0  0  0  0  0  0  0  0
    1.3440   -0.9720    0.8300 C   0  0  1  0  0  0  0  0  0  0  0  0
    2.6320   -1.1080    1.6120 C   0  0  2  0  0  0  0  0  0  0  0  0
   -0.3730    2.0440   -3.0330 C   0  0  0  0  0  0  0  0  0  0  0  0
    0.2100    1.7160   -0.7820 C   0  0  2  0  0  0  0  0  0  0  0  0
    0.9540    1.3700    1.6640 C   0  0  2  0  0  0  0  0  0  0  0  0
    3.1920    0.2430    1.9330 C   0  0  0  0  0  0  0  0  0  0  0  0
    0.5470    2.3870    0.5470 C   0  0  0  0  0  0  0  0  0  0  0  0
    2.4500    1.3620    1.9550 C   0  0  0  0  0  0  0  0  0  0  0  0
    3.0850    2.6740    2.3650 C   0  0  0  0  0  0  0  0  0  0  0  0
   -0.0260   -0.6290    2.9160 C   0  0  0  0  0  0  0  0  0  0  0  0
   -1.3570   -2.6260   -2.6110 C   0  0  0  0  0  0  0  0  0  0  0  0
   -2.3990    1.2690   -0.6810 C   0  0  0  0  0  0  0  0  0  0  0  0
   -3.3610   -2.5340   -0.3110 O   0  0  0  0  0  0  0  0  0  0  0  0
   -3.2320   -3.4250   -0.6420 H   0  0  0  0  0  0  0  0  0  0  0  0
   -2.8580   -1.0110    1.7910 O   0  0  0  0  0  0  0  0  0  0  0  0
   -3.6810   -1.4570    1.5710 H   0  0  0  0  0  0  0  0  0  0  0  0
    0.2100   -0.0340   -4.0050 O   0  0  0  0  0  0  0  0  0  0  0  0
    0.1980    0.4880   -4.8150 H   0  0  0  0  0  0  0  0  0  0  0  0
    0.8780   -2.2750    0.5960 O   0  0  0  0  0  0  0  0  0  0  0  0
    1.6350   -2.8080    0.3350 H   0  0  0  0  0  0  0  0  0  0  0  0
    3.5440   -1.8460    0.8210 O   0  0  0  0  0  0  0  0  0  0  0  0
    4.4150   -1.7940    1.2180 H   0  0  0  0  0  0  0  0  0  0  0  0
  2 14  2  0  0  0  0
  3 24  1  6  0  0  0
  3  5  1  0  0  0  0
  4  5  1  0  0  0  0
  5  8  1  0  0  0  0
  5 26  1  1  0  0  0
  6 22  1  1  0  0  0
  6  3  1  0  0  0  0
  7  9  1  6  0  0  0
  7  6  1  0  0  0  0
  7 10  1  0  0  0  0
  8 10  1  6  0  0  0
  8 11  1  0  0  0  0
  9 28  1  1  0  0  0
  9 14  1  0  0  0  0
 10 23  1  6  0  0  0
 11 16  1  0  0  0  0
 11 21  1  1  0  0  0
 12 30  1  1  0  0  0
 12 11  1  0  0  0  0
 12 13  1  0  0  0  0
 13 32  1  6  0  0  0
 13 17  1  0  0  0  0
 14  1  1  0  0  0  0
 15  1  1  1  0  0  0
 15 10  1  0  0  0  0
 15 18  1  0  0  0  0
 16 18  1  6  0  0  0
 16 19  1  0  0  0  0
 17 19  2  0  0  0  0
 19 20  1  0  0  0  0
 23  4  1  0  0  0  0
 25 24  1  0  0  0  0
 27 26  1  0  0  0  0
 29 28  1  0  0  0  0
 31 30  1  0  0  0  0
 32 33  1  0  0  0  0
M  END
