pdbs/div5-1460.pdb
 OpenBabel07211515343D

 28 31  0  0  1  0  0  0  0  0999 V2000
   -3.3500   -0.8150   -1.0640 N   0  0  0  0  0  0  0  0  0  0  0  0
   -6.1870   -1.8280   -1.0940 O   0  0  0  0  0  0  0  0  0  0  0  0
   -5.1970   -3.7840   -1.9870 N   0  0  0  0  0  0  0  0  0  0  0  0
   -6.3720   -8.7350   -1.6430 Cl  0  0  0  0  0  0  0  0  0  0  0  0
   -1.4180   -9.0110   -4.7170 Cl  0  0  0  0  0  0  0  0  0  0  0  0
   -2.8910   -3.0930   -1.6610 C   0  0  0  0  0  0  0  0  0  0  0  0
   -3.8170   -4.2480   -1.9440 C   0  0  2  0  0  0  0  0  0  0  0  0
   -3.8120   -1.9720   -1.3890 C   0  0  0  0  0  0  0  0  0  0  0  0
   -3.2080   -5.4280   -2.6820 C   0  0  0  0  0  0  0  0  0  0  0  0
   -3.4410   -5.6410   -4.0400 C   0  0  0  0  0  0  0  0  0  0  0  0
   -2.8860   -6.7530   -4.6710 C   0  0  0  0  0  0  0  0  0  0  0  0
   -2.0840   -7.6300   -3.9450 C   0  0  0  0  0  0  0  0  0  0  0  0
   -2.3880   -6.3030   -1.9660 C   0  0  0  0  0  0  0  0  0  0  0  0
   -5.2360   -2.4820   -1.4740 C   0  0  0  0  0  0  0  0  0  0  0  0
   -1.8240   -7.4060   -2.5970 C   0  0  0  0  0  0  0  0  0  0  0  0
   -6.1940   -4.7570   -1.8160 C   0  0  0  0  0  0  0  0  0  0  0  0
   -7.5460   -4.4090   -1.8610 C   0  0  0  0  0  0  0  0  0  0  0  0
   -5.8520   -6.1000   -1.7010 C   0  0  0  0  0  0  0  0  0  0  0  0
   -6.8350   -7.0820   -1.6520 C   0  0  0  0  0  0  0  0  0  0  0  0
   -8.5350   -5.3900   -1.7610 C   0  0  0  0  0  0  0  0  0  0  0  0
   -8.1800   -6.7340   -1.6720 C   0  0  0  0  0  0  0  0  0  0  0  0
   -4.1340    0.2470   -0.6100 C   0  0  0  0  0  0  0  0  0  0  0  0
   -5.0630    0.8980   -1.4240 C   0  0  0  0  0  0  0  0  0  0  0  0
   -5.6780    2.0780   -1.0020 C   0  0  0  0  0  0  0  0  0  0  0  0
   -5.3040    2.6650    0.2050 C   0  0  0  0  0  0  0  0  0  0  0  0
   -4.3440    2.0490    0.9970 C   0  0  0  0  0  0  0  0  0  0  0  0
   -3.8000    2.8040    2.4370 Cl  0  0  0  0  0  0  0  0  0  0  0  0
   -3.7690    0.8480    0.5970 C   0  0  0  0  0  0  0  0  0  0  0  0
  1 22  1  0  0  0  0
  3  7  1  0  0  0  0
  3 16  1  0  0  0  0
  3 14  1  0  0  0  0
  5 12  1  0  0  0  0
  6  8  1  0  0  0  0
  7  9  1  6  0  0  0
  7  6  1  0  0  0  0
  8  1  2  0  0  0  0
  9 13  2  0  0  0  0
 10  9  1  0  0  0  0
 11 10  2  0  0  0  0
 11 12  1  0  0  0  0
 12 15  2  0  0  0  0
 14  8  1  0  0  0  0
 14  2  2  0  0  0  0
 15 13  1  0  0  0  0
 16 18  1  0  0  0  0
 17 16  2  0  0  0  0
 17 20  1  0  0  0  0
 18 19  2  0  0  0  0
 19  4  1  0  0  0  0
 20 21  2  0  0  0  0
 21 19  1  0  0  0  0
 22 28  2  0  0  0  0
 23 24  2  0  0  0  0
 23 22  1  0  0  0  0
 24 25  1  0  0  0  0
 25 26  2  0  0  0  0
 26 27  1  0  0  0  0
 28 26  1  0  0  0  0
M  END
