pdbs/div5-1202.pdb
 OpenBabel07211515343D

 25 27  0  0  1  0  0  0  0  0999 V2000
   -3.2700   -1.3070   -0.2540 C   0  0  0  0  0  0  0  0  0  0  0  0
   -2.2970   -2.2590    0.1800 C   0  0  1  0  0  0  0  0  0  0  0  0
   -2.8020    0.0220   -0.3050 C   0  0  0  0  0  0  0  0  0  0  0  0
   -0.9390   -2.0120    0.5130 C   0  0  0  0  0  0  0  0  0  0  0  0
   -1.4900    0.3220    0.0150 C   0  0  0  0  0  0  0  0  0  0  0  0
   -0.5760   -0.6720    0.3790 C   0  0  1  0  0  0  0  0  0  0  0  0
   -0.9450    1.5860    0.0750 O   0  0  0  0  0  0  0  0  0  0  0  0
    0.7280   -0.0120    0.7000 C   0  0  2  0  0  0  0  0  0  0  0  0
    0.3530    1.4410    0.5560 C   0  0  1  0  0  0  0  0  0  0  0  0
    1.2790    2.3950    0.4210 C   0  0  0  0  0  0  0  0  0  0  0  0
    1.8920   -0.3020   -0.2320 C   0  0  0  0  0  0  0  0  0  0  0  0
    1.9630   -1.2960   -0.9480 O   0  0  0  0  0  0  0  0  0  0  0  0
    2.7410    2.0110    0.4160 C   0  0  0  0  0  0  0  0  0  0  0  0
    3.0250    0.6620   -0.1260 C   0  0  0  0  0  0  0  0  0  0  0  0
    3.5900    2.8690    0.6080 O   0  0  0  0  0  0  0  0  0  0  0  0
    4.2650    0.3100   -0.4640 C   0  0  0  0  0  0  0  0  0  0  0  0
   -4.4560   -1.6820   -0.5430 O   0  0  0  0  0  0  0  0  0  0  0  0
   -2.7810   -3.6730    0.3620 C   0  0  0  0  0  0  0  0  0  0  0  0
   -0.1660   -2.9410    0.9160 O   0  0  0  0  0  0  0  0  0  0  0  0
    1.1310   -0.3070    2.1470 C   0  0  0  0  0  0  0  0  0  0  0  0
    4.5370   -1.0610   -1.0130 C   0  0  0  0  0  0  0  0  0  0  0  0
    5.3310    1.2420   -0.3300 N   0  0  0  0  0  0  0  0  0  0  0  0
   -3.6540    1.1530   -0.7160 C   0  0  0  0  0  0  0  0  0  0  0  0
   -4.7380    1.3500   -0.1850 O   0  0  0  0  0  0  0  0  0  0  0  0
   -2.9900    2.3000   -1.4280 C   0  0  0  0  0  0  0  0  0  0  0  0
  1  2  1  0  0  0  0
  2 18  1  1  0  0  0
  2  4  1  0  0  0  0
  3  1  1  0  0  0  0
  3  5  2  0  0  0  0
  4 19  2  0  0  0  0
  5  7  1  0  0  0  0
  6  5  1  1  0  0  0
  6  4  1  0  0  0  0
  6  8  1  0  0  0  0
  8 20  1  1  0  0  0
  9  7  1  6  0  0  0
  9  8  1  0  0  0  0
 10  9  1  0  0  0  0
 11 14  1  0  0  0  0
 11  8  1  0  0  0  0
 12 11  2  0  0  0  0
 13 10  1  0  0  0  0
 13 15  2  0  0  0  0
 14 13  1  0  0  0  0
 16 22  1  0  0  0  0
 16 14  2  0  0  0  0
 17  1  2  0  0  0  0
 21 16  1  0  0  0  0
 23  3  1  0  0  0  0
 23 24  2  0  0  0  0
 25 23  1  0  0  0  0
M  END
