pdbs/div5-1530.pdb
 OpenBabel07211515343D

 33 37  0  0  0  0  0  0  0  0999 V2000
   -4.1800   -2.7350    3.3280 C   0  0  0  0  0  0  0  0  0  0  0  0
   -4.8560   -3.2980    4.4240 C   0  0  0  0  0  0  0  0  0  0  0  0
   -2.9360   -3.2760    2.9900 C   0  0  0  0  0  0  0  0  0  0  0  0
   -4.3550   -4.3810    5.1570 C   0  0  0  0  0  0  0  0  0  0  0  0
   -2.4010   -4.3500    3.6960 C   0  0  0  0  0  0  0  0  0  0  0  0
   -3.1140   -4.8980    4.7600 C   0  0  0  0  0  0  0  0  0  0  0  0
   -2.4940   -6.0020    5.5700 C   0  0  0  0  0  0  0  0  0  0  0  0
   -4.6760   -1.6580    2.6800 N   0  0  0  0  0  0  0  0  0  0  0  0
   -5.5050   -1.9860    1.6610 C   0  0  0  0  0  0  0  0  0  0  0  0
   -6.4700   -2.7440    1.7440 O   0  0  0  0  0  0  0  0  0  0  0  0
   -5.1390   -1.3330    0.5360 N   0  0  0  0  0  0  0  0  0  0  0  0
   -6.0890   -0.4480    0.1380 C   0  0  0  0  0  0  0  0  0  0  0  0
   -6.4520    0.6300    0.8010 N   0  0  0  0  0  0  0  0  0  0  0  0
   -6.8890   -0.6870   -1.3660 S   0  0  0  0  0  0  0  0  0  0  0  0
   -7.4450    1.3080    0.1140 C   0  0  0  0  0  0  0  0  0  0  0  0
   -8.0850    2.4910    0.5350 C   0  0  0  0  0  0  0  0  0  0  0  0
   -7.8150    0.7400   -1.1050 C   0  0  0  0  0  0  0  0  0  0  0  0
   -9.0650    3.0680   -0.2720 C   0  0  0  0  0  0  0  0  0  0  0  0
   -9.4110    2.4870   -1.4850 C   0  0  0  0  0  0  0  0  0  0  0  0
   -8.7980    1.3130   -1.9260 C   0  0  0  0  0  0  0  0  0  0  0  0
   -5.0890   -4.9380    6.1500 N   0  0  0  0  0  0  0  0  0  0  0  0
   -4.4900   -4.8640    7.3600 C   0  0  0  0  0  0  0  0  0  0  0  0
   -4.2210   -3.8170    7.9460 O   0  0  0  0  0  0  0  0  0  0  0  0
   -4.3580   -6.0890    7.9170 N   0  0  0  0  0  0  0  0  0  0  0  0
   -3.2010   -6.7050    7.5550 C   0  0  0  0  0  0  0  0  0  0  0  0
   -3.1320   -7.6950    6.6890 N   0  0  0  0  0  0  0  0  0  0  0  0
   -1.8140   -8.0680    6.4860 C   0  0  0  0  0  0  0  0  0  0  0  0
   -1.3600   -9.0720    5.6070 C   0  0  0  0  0  0  0  0  0  0  0  0
   -0.8770   -7.3570    7.2350 C   0  0  0  0  0  0  0  0  0  0  0  0
    0.0080   -9.3280    5.5050 C   0  0  0  0  0  0  0  0  0  0  0  0
    0.9210   -8.5990    6.2550 C   0  0  0  0  0  0  0  0  0  0  0  0
    0.4990   -7.6010    7.1350 C   0  0  0  0  0  0  0  0  0  0  0  0
   -1.6960   -6.2260    8.2390 S   0  0  0  0  0  0  0  0  0  0  0  0
  1  2  1  0  0  0  0
  2  4  2  0  0  0  0
  3  1  2  0  0  0  0
  3  5  1  0  0  0  0
  4 21  1  0  0  0  0
  5  6  2  0  0  0  0
  6  4  1  0  0  0  0
  6  7  1  0  0  0  0
  8  1  1  0  0  0  0
  9 10  2  0  0  0  0
  9  8  1  0  0  0  0
 11  9  1  0  0  0  0
 12 11  1  0  0  0  0
 12 13  2  0  0  0  0
 14 17  1  0  0  0  0
 14 12  1  0  0  0  0
 15 16  1  0  0  0  0
 15 13  1  0  0  0  0
 17 15  2  0  0  0  0
 18 16  2  0  0  0  0
 19 18  1  0  0  0  0
 20 19  2  0  0  0  0
 20 17  1  0  0  0  0
 21 22  1  0  0  0  0
 22 24  1  0  0  0  0
 22 23  2  0  0  0  0
 25 24  1  0  0  0  0
 25 33  1  0  0  0  0
 26 25  2  0  0  0  0
 27 26  1  0  0  0  0
 27 29  2  0  0  0  0
 28 27  1  0  0  0  0
 29 33  1  0  0  0  0
 30 28  2  0  0  0  0
 30 31  1  0  0  0  0
 31 32  2  0  0  0  0
 32 29  1  0  0  0  0
M  END
