pdbs/div5-1055.pdb
 OpenBabel07211515343D

 26 29  0  0  0  0  0  0  0  0999 V2000
    1.6010    0.9970    0.0610 N   0  0  0  0  0  0  0  0  0  0  0  0
   -1.0770    1.5970   -0.0950 N   0  0  0  0  0  0  0  0  0  0  0  0
   -0.6060    3.8520   -0.1680 N   0  0  0  0  0  0  0  0  0  0  0  0
    1.6390    4.6320   -0.0250 N   0  0  0  0  0  0  0  0  0  0  0  0
   -0.6670    0.3070   -0.0300 C   0  0  0  0  0  0  0  0  0  0  0  0
    0.6860    0.0020    0.0270 C   0  0  0  0  0  0  0  0  0  0  0  0
    0.3170    4.8310   -0.1360 C   0  0  0  0  0  0  0  0  0  0  0  0
   -0.1840    2.5860   -0.0880 C   0  0  0  0  0  0  0  0  0  0  0  0
    1.1640    2.2710    0.0100 C   0  0  0  0  0  0  0  0  0  0  0  0
    2.0320    3.3440    0.0460 C   0  0  0  0  0  0  0  0  0  0  0  0
    3.4250    3.0760    0.1720 N   0  0  0  0  0  0  0  0  0  0  0  0
   -0.1480    6.1750   -0.2320 N   0  0  0  0  0  0  0  0  0  0  0  0
   -1.7620   -0.6630   -0.0090 C   0  0  0  0  0  0  0  0  0  0  0  0
   -2.8170   -0.5720   -0.9270 C   0  0  0  0  0  0  0  0  0  0  0  0
   -3.9000   -1.4480   -0.8680 C   0  0  0  0  0  0  0  0  0  0  0  0
   -3.9330   -2.4400    0.1060 C   0  0  0  0  0  0  0  0  0  0  0  0
   -2.8990   -2.5450    1.0300 C   0  0  0  0  0  0  0  0  0  0  0  0
   -1.8350   -1.6480    0.9810 C   0  0  0  0  0  0  0  0  0  0  0  0
    1.2360   -1.3530    0.0290 C   0  0  0  0  0  0  0  0  0  0  0  0
    1.8110   -1.9040    1.1810 C   0  0  0  0  0  0  0  0  0  0  0  0
    2.3220   -3.2040    1.1760 C   0  0  0  0  0  0  0  0  0  0  0  0
    2.2590   -3.9720    0.0170 C   0  0  0  0  0  0  0  0  0  0  0  0
    1.6940   -3.4390   -1.1380 C   0  0  0  0  0  0  0  0  0  0  0  0
    1.1950   -2.1370   -1.1300 C   0  0  0  0  0  0  0  0  0  0  0  0
   -5.0360   -3.3370    0.1720 N   0  0  0  0  0  0  0  0  0  0  0  0
    2.7770   -5.2980    0.0070 N   0  0  0  0  0  0  0  0  0  0  0  0
  2  8  2  0  0  0  0
  2  5  1  0  0  0  0
  3  7  2  0  0  0  0
  3  8  1  0  0  0  0
  4 10  2  0  0  0  0
  5 13  1  0  0  0  0
  5  6  2  0  0  0  0
  6 19  1  0  0  0  0
  6  1  1  0  0  0  0
  7  4  1  0  0  0  0
  8  9  1  0  0  0  0
  9 10  1  0  0  0  0
  9  1  2  0  0  0  0
 10 11  1  0  0  0  0
 12  7  1  0  0  0  0
 13 18  2  0  0  0  0
 14 15  2  0  0  0  0
 14 13  1  0  0  0  0
 15 16  1  0  0  0  0
 16 25  1  0  0  0  0
 16 17  2  0  0  0  0
 18 17  1  0  0  0  0
 19 20  2  0  0  0  0
 21 20  1  0  0  0  0
 22 21  2  0  0  0  0
 23 24  2  0  0  0  0
 23 22  1  0  0  0  0
 24 19  1  0  0  0  0
 26 22  1  0  0  0  0
M  END
