pdbs/div5-1418.pdb
 OpenBabel07211515343D

 27 29  0  0  0  0  0  0  0  0999 V2000
   -0.4240    2.0830   -0.8040 O   0  0  0  0  0  0  0  0  0  0  0  0
    1.3600   -2.4030    1.2630 N   0  0  0  0  0  0  0  0  0  0  0  0
    6.0730    1.1390   -0.4430 O   0  0  0  0  0  0  0  0  0  0  0  0
    5.3870   -1.0220   -0.0060 O   0  0  0  0  0  0  0  0  0  0  0  0
    3.8400    2.1830   -0.4140 C   0  0  0  0  0  0  0  0  0  0  0  0
    2.4840    1.8410   -0.2180 C   0  0  0  0  0  0  0  0  0  0  0  0
    4.7130    1.1080   -0.3110 C   0  0  0  0  0  0  0  0  0  0  0  0
    4.2970   -0.2000   -0.0560 C   0  0  0  0  0  0  0  0  0  0  0  0
    2.0400    0.5160    0.0160 C   0  0  0  0  0  0  0  0  0  0  0  0
    2.9610   -0.5400    0.1310 C   0  0  0  0  0  0  0  0  0  0  0  0
    0.5730    0.2470    0.3210 C   0  0  0  0  0  0  0  0  0  0  0  0
   -0.5860    0.9500   -0.3730 C   0  0  0  0  0  0  0  0  0  0  0  0
   -1.9530    0.4340   -0.2160 C   0  0  0  0  0  0  0  0  0  0  0  0
   -3.0310    1.1970   -0.6710 C   0  0  0  0  0  0  0  0  0  0  0  0
   -4.3230    0.7280   -0.4750 C   0  0  0  0  0  0  0  0  0  0  0  0
    2.5660   -1.9720    0.3620 C   0  0  0  0  0  0  0  0  0  0  0  0
   -2.1600   -0.7890    0.4110 C   0  0  0  0  0  0  0  0  0  0  0  0
   -4.5370   -0.4920    0.1460 C   0  0  0  0  0  0  0  0  0  0  0  0
   -3.4640   -1.2550    0.5940 C   0  0  0  0  0  0  0  0  0  0  0  0
   -1.0340   -1.5020    1.1000 C   0  0  0  0  0  0  0  0  0  0  0  0
    0.3380   -1.7220    0.4520 C   0  0  0  0  0  0  0  0  0  0  0  0
    6.4200   -0.1650   -0.2470 C   0  0  0  0  0  0  0  0  0  0  0  0
    2.5690   -1.9710    0.3600 C   0  0  0  0  0  0  0  0  0  0  0  0
   -5.3740    1.5110   -0.8450 O   0  0  0  0  0  0  0  0  0  0  0  0
   -5.8800    2.0270    0.3540 C   0  0  0  0  0  0  0  0  0  0  0  0
   -5.8050   -0.9500    0.3550 O   0  0  0  0  0  0  0  0  0  0  0  0
   -6.6460    0.0680   -0.1030 C   0  0  0  0  0  0  0  0  0  0  0  0
  1 12  2  0  0  0  0
  3  7  1  0  0  0  0
  3 22  1  0  0  0  0
  5  7  2  0  0  0  0
  5  6  1  0  0  0  0
  6  9  2  0  0  0  0
  7  8  1  0  0  0  0
  8  4  1  0  0  0  0
  8 10  2  0  0  0  0
  9 10  1  0  0  0  0
  9 11  1  0  0  0  0
 10 23  1  0  0  0  0
 12 13  1  0  0  0  0
 12 11  1  0  0  0  0
 13 17  1  0  0  0  0
 14 15  1  0  0  0  0
 14 13  2  0  0  0  0
 15 18  2  0  0  0  0
 16  2  1  0  0  0  0
 17 19  2  0  0  0  0
 17 20  1  0  0  0  0
 18 26  1  0  0  0  0
 18 19  1  0  0  0  0
 21 20  2  0  0  0  0
 21  2  1  0  0  0  0
 22  4  1  0  0  0  0
 24 15  1  0  0  0  0
 24 25  1  0  0  0  0
 27 26  1  0  0  0  0
M  END
