pdbs/div5-925.pdb
 OpenBabel07211515343D

 22 24  0  0  1  0  0  0  0  0999 V2000
   -4.0340   -2.1500    0.0620 C   0  0  0  0  0  0  0  0  0  0  0  0
   -4.4070   -0.8280   -0.1680 C   0  0  0  0  0  0  0  0  0  0  0  0
   -2.6920   -2.4780    0.2410 C   0  0  0  0  0  0  0  0  0  0  0  0
   -3.4350    0.1680   -0.2200 C   0  0  0  0  0  0  0  0  0  0  0  0
   -1.7190   -1.4810    0.1890 C   0  0  0  0  0  0  0  0  0  0  0  0
   -2.0910   -0.1590   -0.0480 C   0  0  0  0  0  0  0  0  0  0  0  0
   -1.0510    0.9290   -0.0540 C   0  0  2  0  0  0  0  0  0  0  0  0
   -1.1360    2.0080    1.0240 C   0  0  0  0  0  0  0  0  0  0  0  0
   -0.4520    1.3320   -1.3360 N   0  0  0  0  0  0  0  0  0  0  0  0
   -0.1550    2.9050    1.0630 C   0  0  0  0  0  0  0  0  0  0  0  0
    0.8580    1.9120   -0.9480 C   0  0  0  0  0  0  0  0  0  0  0  0
    0.9690    2.7580    0.0800 C   0  0  0  0  0  0  0  0  0  0  0  0
   -5.0830   -3.2230    0.1300 C   0  0  0  0  0  0  0  0  0  0  0  0
    2.1870    3.4470    0.2890 C   0  0  0  0  0  0  0  0  0  0  0  0
    3.1880    4.0100    0.4550 N   0  0  0  0  0  0  0  0  0  0  0  0
    0.2380    0.0830   -1.7470 C   0  0  0  0  0  0  0  0  0  0  0  0
    1.7420    0.0190   -1.8000 C   0  0  0  0  0  0  0  0  0  0  0  0
    2.4490   -0.5130   -0.7230 C   0  0  0  0  0  0  0  0  0  0  0  0
    3.8390   -0.4310   -0.6940 C   0  0  0  0  0  0  0  0  0  0  0  0
    4.5220    0.1830   -1.7420 C   0  0  0  0  0  0  0  0  0  0  0  0
    3.8170    0.7080   -2.8210 C   0  0  0  0  0  0  0  0  0  0  0  0
    2.4270    0.6270   -2.8510 C   0  0  0  0  0  0  0  0  0  0  0  0
  1 13  1  0  0  0  0
  1  3  2  0  0  0  0
  2  1  1  0  0  0  0
  4  2  2  0  0  0  0
  4  6  1  0  0  0  0
  5  3  1  0  0  0  0
  6  5  2  0  0  0  0
  7  6  1  6  0  0  0
  7  8  1  0  0  0  0
  8 10  2  0  0  0  0
  9 11  1  0  0  0  0
  9  7  1  0  0  0  0
 11 12  2  0  0  0  0
 12 14  1  0  0  0  0
 12 10  1  0  0  0  0
 14 15  3  0  0  0  0
 16  9  1  0  0  0  0
 17 16  1  0  0  0  0
 17 18  2  0  0  0  0
 18 19  1  0  0  0  0
 20 19  2  0  0  0  0
 21 20  1  0  0  0  0
 22 21  2  0  0  0  0
 22 17  1  0  0  0  0
M  END
