pdbs/div5-1434.pdb
 OpenBabel07211515343D

 29 34  0  0  1  0  0  0  0  0999 V2000
   -5.2840   -3.7080    0.8560 C   0  0  0  0  0  0  0  0  0  0  0  0
   -5.2830   -4.6230   -0.1310 C   0  0  0  0  0  0  0  0  0  0  0  0
   -4.2390   -2.8810    1.0350 C   0  0  0  0  0  0  0  0  0  0  0  0
   -4.2360   -4.7380   -0.9670 C   0  0  0  0  0  0  0  0  0  0  0  0
   -3.2000   -3.0000    0.2000 C   0  0  0  0  0  0  0  0  0  0  0  0
   -3.2010   -3.9120   -0.7820 C   0  0  0  0  0  0  0  0  0  0  0  0
   -2.1070   -3.8070   -1.4140 N   0  0  0  0  0  0  0  0  0  0  0  0
   -1.8470   -4.4030   -2.2330 H   0  0  0  0  0  0  0  0  0  0  0  0
   -2.0340   -2.3460    0.1100 C   0  0  0  0  0  0  0  0  0  0  0  0
   -1.3720   -2.8890   -0.9290 C   0  0  0  0  0  0  0  0  0  0  0  0
   -1.5340   -1.2110    0.9640 C   0  0  0  0  0  0  0  0  0  0  0  0
   -0.0060   -2.4380   -1.3690 C   0  0  0  0  0  0  0  0  0  0  0  0
   -0.3840   -0.4750    0.2380 C   0  0  2  0  0  0  0  0  0  0  0  0
    0.6000   -1.5790   -0.2480 C   0  0  2  0  0  0  0  0  0  0  0  0
    0.3800    0.5410    1.1340 C   0  0  1  0  0  0  0  0  0  0  0  0
   -0.4470    1.3310    2.1610 C   0  0  0  0  0  0  0  0  0  0  0  0
    1.9940   -1.0090   -0.5520 C   0  0  0  0  0  0  0  0  0  0  0  0
    2.6560   -0.4580    0.7310 C   0  0  0  0  0  0  0  0  0  0  0  0
    1.6130   -0.0980    1.8050 C   0  0  1  0  0  0  0  0  0  0  0  0
    0.3430    2.5270    2.7430 C   0  0  0  0  0  0  0  0  0  0  0  0
    1.8580    2.2590    2.8920 C   0  0  2  0  0  0  0  0  0  0  0  0
    2.0950    0.7400    3.0000 C   0  0  2  0  0  0  0  0  0  0  0  0
    2.4560    2.6800    4.2480 C   0  0  1  0  0  0  0  0  0  0  0  0
    3.5310    0.5920    3.5150 C   0  0  0  0  0  0  0  0  0  0  0  0
    3.7170    1.8230    4.4280 C   0  0  0  0  0  0  0  0  0  0  0  0
   -1.0020    0.3190   -0.9420 C   0  0  0  0  0  0  0  0  0  0  0  0
    2.6550    2.9380    1.7540 C   0  0  0  0  0  0  0  0  0  0  0  0
    2.7500    4.0530    4.3070 O   0  0  0  0  0  0  0  0  0  0  0  0
    2.9910    4.2870    5.2060 H   0  0  0  0  0  0  0  0  0  0  0  0
  1  3  1  0  0  0  0
  2  1  2  0  0  0  0
  4  6  2  0  0  0  0
  4  2  1  0  0  0  0
  5  3  2  0  0  0  0
  6  5  1  0  0  0  0
  7 10  1  0  0  0  0
  7  6  1  0  0  0  0
  8  7  1  0  0  0  0
  9  5  1  0  0  0  0
  9 11  1  0  0  0  0
 10  9  2  0  0  0  0
 12 10  1  0  0  0  0
 13 26  1  6  0  0  0
 13 11  1  0  0  0  0
 13 15  1  0  0  0  0
 14 12  1  6  0  0  0
 14 13  1  0  0  0  0
 15 19  1  0  0  0  0
 15 16  1  1  0  0  0
 16 20  1  0  0  0  0
 17 14  1  0  0  0  0
 17 18  1  0  0  0  0
 19 18  1  6  0  0  0
 19 22  1  0  0  0  0
 20 21  1  0  0  0  0
 21 27  1  6  0  0  0
 21 22  1  0  0  0  0
 21 23  1  0  0  0  0
 22 24  1  6  0  0  0
 23 28  1  6  0  0  0
 23 25  1  0  0  0  0
 24 25  1  0  0  0  0
 28 29  1  0  0  0  0
M  END
