pdbs/div5-1416.pdb
 OpenBabel07211515343D

 28 32  0  0  0  0  0  0  0  0999 V2000
   -5.4420    1.1850   -0.6170 C   0  0  0  0  0  0  0  0  0  0  0  0
   -5.2190    2.4420   -1.1750 C   0  0  0  0  0  0  0  0  0  0  0  0
   -4.6750   -0.8450    0.2970 N   0  0  0  0  0  0  0  0  0  0  0  0
   -4.3980    0.3540   -0.2360 C   0  0  0  0  0  0  0  0  0  0  0  0
   -3.9200    2.8910   -1.3630 C   0  0  0  0  0  0  0  0  0  0  0  0
   -3.6390   -1.6310    0.6610 C   0  0  0  0  0  0  0  0  0  0  0  0
   -3.0750    0.8080   -0.4260 C   0  0  0  0  0  0  0  0  0  0  0  0
   -2.8580    2.0750   -0.9900 C   0  0  0  0  0  0  0  0  0  0  0  0
   -2.3120   -1.2570    0.5080 C   0  0  0  0  0  0  0  0  0  0  0  0
   -2.0010   -0.0100   -0.0500 C   0  0  0  0  0  0  0  0  0  0  0  0
   -0.7090    0.3670   -0.2080 N   0  0  0  0  0  0  0  0  0  0  0  0
   -1.2830   -2.1060    0.9050 C   0  0  0  0  0  0  0  0  0  0  0  0
    0.0380   -1.7110    0.7500 C   0  0  0  0  0  0  0  0  0  0  0  0
    0.2900   -0.4700    0.1840 C   0  0  0  0  0  0  0  0  0  0  0  0
    2.0320    1.2820    0.4460 C   0  0  0  0  0  0  0  0  0  0  0  0
    1.6520    0.0220   -0.0020 C   0  0  0  0  0  0  0  0  0  0  0  0
    3.2780    1.8040    0.3080 N   0  0  0  0  0  0  0  0  0  0  0  0
    2.6400   -0.7330   -0.6290 C   0  0  0  0  0  0  0  0  0  0  0  0
    4.2190    1.0550   -0.2950 C   0  0  0  0  0  0  0  0  0  0  0  0
    3.9330   -0.2330   -0.7800 C   0  0  0  0  0  0  0  0  0  0  0  0
    4.9190   -1.0020   -1.4010 C   0  0  0  0  0  0  0  0  0  0  0  0
    5.5130    1.5340   -0.4570 C   0  0  0  0  0  0  0  0  0  0  0  0
    6.2070   -0.5000   -1.5490 C   0  0  0  0  0  0  0  0  0  0  0  0
    6.5050    0.7720   -1.0760 C   0  0  0  0  0  0  0  0  0  0  0  0
   -3.9410   -2.9770    1.2600 C   0  0  0  0  0  0  0  0  0  0  0  0
   -1.6020   -3.4470    1.5050 C   0  0  0  0  0  0  0  0  0  0  0  0
    0.9820    2.1210    1.1200 C   0  0  0  0  0  0  0  0  0  0  0  0
    2.3350   -2.0380   -1.1100 N   0  0  0  0  0  0  0  0  0  0  0  0
  1  4  2  0  0  0  0
  2  1  1  0  0  0  0
  3  6  2  0  0  0  0
  4  3  1  0  0  0  0
  5  2  2  0  0  0  0
  5  8  1  0  0  0  0
  6 25  1  0  0  0  0
  7  4  1  0  0  0  0
  7 10  1  0  0  0  0
  8  7  2  0  0  0  0
  9  6  1  0  0  0  0
  9 12  2  0  0  0  0
 10  9  1  0  0  0  0
 11 10  2  0  0  0  0
 11 14  1  0  0  0  0
 12 26  1  0  0  0  0
 13 12  1  0  0  0  0
 14 13  2  0  0  0  0
 15 27  1  0  0  0  0
 16 14  1  0  0  0  0
 16 15  2  0  0  0  0
 17 15  1  0  0  0  0
 18 16  1  0  0  0  0
 19 17  2  0  0  0  0
 20 18  2  0  0  0  0
 20 19  1  0  0  0  0
 21 20  1  0  0  0  0
 22 19  1  0  0  0  0
 23 21  2  0  0  0  0
 23 24  1  0  0  0  0
 24 22  2  0  0  0  0
 28 18  1  0  0  0  0
M  END
