pdbs/div5-1510.pdb
 OpenBabel07211515343D

 38 42  0  0  0  0  0  0  0  0999 V2000
    0.1730    0.4410    1.1760 N   0  0  0  0  0  0  0  0  0  0  0  0
   -1.2980    0.1580   -1.2270 N   0  0  0  0  0  0  0  0  0  0  0  0
   -0.5960    1.4090   -0.9500 C   0  0  0  0  0  0  0  0  0  0  0  0
    0.6120    1.1080   -0.0510 C   0  0  0  0  0  0  0  0  0  0  0  0
   -1.7830   -0.4800   -0.0050 C   0  0  0  0  0  0  0  0  0  0  0  0
   -0.5920   -0.7800    0.9220 C   0  0  0  0  0  0  0  0  0  0  0  0
    0.2260    0.0960    3.5090 N   0  0  0  0  0  0  0  0  0  0  0  0
    0.4690    0.9160    2.4390 C   0  0  0  0  0  0  0  0  0  0  0  0
    0.9580    2.0060    2.5790 O   0  0  0  0  0  0  0  0  0  0  0  0
   -1.4330   -0.4010   -2.4830 C   0  0  0  0  0  0  0  0  0  0  0  0
   -2.0580   -1.4180   -2.6300 O   0  0  0  0  0  0  0  0  0  0  0  0
   -0.8200    0.2210   -3.5380 N   0  0  0  0  0  0  0  0  0  0  0  0
   -0.0520   -0.8530    3.3100 H   0  0  0  0  0  0  0  0  0  0  0  0
   -0.2220    1.0060   -3.3310 H   0  0  0  0  0  0  0  0  0  0  0  0
    0.3000    0.2650    4.8470 C   0  0  0  0  0  0  0  0  0  0  0  0
    0.0370   -0.8300    5.5900 C   0  0  0  0  0  0  0  0  0  0  0  0
    0.0560   -0.8790    6.9430 C   0  0  0  0  0  0  0  0  0  0  0  0
   -0.2130   -2.0100    7.6560 C   0  0  0  0  0  0  0  0  0  0  0  0
    0.3670    0.3010    7.5250 C   0  0  0  0  0  0  0  0  0  0  0  0
   -0.5230   -3.1940    7.0790 C   0  0  0  0  0  0  0  0  0  0  0  0
   -0.1940   -2.0490    9.0090 C   0  0  0  0  0  0  0  0  0  0  0  0
   -0.7890   -4.3130    7.7730 C   0  0  0  0  0  0  0  0  0  0  0  0
   -0.7580   -4.3040    9.1100 C   0  0  0  0  0  0  0  0  0  0  0  0
   -0.4560   -3.1540    9.7250 C   0  0  0  0  0  0  0  0  0  0  0  0
    0.6290    1.4150    6.8250 C   0  0  0  0  0  0  0  0  0  0  0  0
    0.5960    1.4050    5.4880 C   0  0  0  0  0  0  0  0  0  0  0  0
   -0.8100    0.0040   -4.8720 C   0  0  0  0  0  0  0  0  0  0  0  0
   -1.5150   -0.9280   -5.5310 C   0  0  0  0  0  0  0  0  0  0  0  0
   -1.3990   -1.0170   -6.8610 C   0  0  0  0  0  0  0  0  0  0  0  0
   -0.5910   -0.1860   -7.5360 C   0  0  0  0  0  0  0  0  0  0  0  0
    0.1420    0.7770   -6.9350 C   0  0  0  0  0  0  0  0  0  0  0  0
   -0.0150    0.8220   -5.5910 C   0  0  0  0  0  0  0  0  0  0  0  0
    0.9620    1.6220   -7.6230 C   0  0  0  0  0  0  0  0  0  0  0  0
    1.7020    2.5860   -7.0260 C   0  0  0  0  0  0  0  0  0  0  0  0
    1.1100    1.5730   -8.9670 C   0  0  0  0  0  0  0  0  0  0  0  0
    2.5130    3.4220   -7.6950 C   0  0  0  0  0  0  0  0  0  0  0  0
    2.6270    3.3360   -9.0250 C   0  0  0  0  0  0  0  0  0  0  0  0
    1.9130    2.3980   -9.6590 C   0  0  0  0  0  0  0  0  0  0  0  0
  1  8  1  0  0  0  0
  2  3  1  0  0  0  0
  2  5  1  0  0  0  0
  3  4  1  0  0  0  0
  4  1  1  0  0  0  0
  5  6  1  0  0  0  0
  6  1  1  0  0  0  0
  7 15  1  0  0  0  0
  8  9  2  0  0  0  0
  8  7  1  0  0  0  0
 10  2  1  0  0  0  0
 11 10  2  0  0  0  0
 12 14  1  0  0  0  0
 12 10  1  0  0  0  0
 13  7  1  0  0  0  0
 15 26  2  0  0  0  0
 15 16  1  0  0  0  0
 16 17  2  0  0  0  0
 17 19  1  0  0  0  0
 17 18  1  0  0  0  0
 18 21  1  0  0  0  0
 20 18  2  0  0  0  0
 20 22  1  0  0  0  0
 21 24  2  0  0  0  0
 22 23  2  0  0  0  0
 23 24  1  0  0  0  0
 25 19  2  0  0  0  0
 26 25  1  0  0  0  0
 27 12  1  0  0  0  0
 28 27  1  0  0  0  0
 29 28  2  0  0  0  0
 30 31  2  0  0  0  0
 30 29  1  0  0  0  0
 31 32  1  0  0  0  0
 32 27  2  0  0  0  0
 33 34  1  0  0  0  0
 33 31  1  0  0  0  0
 35 33  2  0  0  0  0
 36 34  2  0  0  0  0
 37 36  1  0  0  0  0
 38 37  2  0  0  0  0
 38 35  1  0  0  0  0
M  END
