pdbs/div5-662.pdb
 OpenBabel07211515343D

 21 22  0  0  0  0  0  0  0  0999 V2000
   -0.9550   -1.1660   -0.3730 N   0  0  0  0  0  0  0  0  0  0  0  0
    2.8690   -2.6980   -1.1730 C   0  0  0  0  0  0  0  0  0  0  0  0
    3.9670   -2.1800   -0.5040 C   0  0  0  0  0  0  0  0  0  0  0  0
    1.6240   -2.0830   -1.0340 C   0  0  0  0  0  0  0  0  0  0  0  0
    3.8300   -1.0270    0.2590 C   0  0  0  0  0  0  0  0  0  0  0  0
    1.4450   -0.9190   -0.2720 C   0  0  0  0  0  0  0  0  0  0  0  0
    2.5890   -0.3940    0.3660 C   0  0  0  0  0  0  0  0  0  0  0  0
    0.0980   -0.3170   -0.1750 C   0  0  0  0  0  0  0  0  0  0  0  0
    2.5350    0.8770    1.1680 C   0  0  0  0  0  0  0  0  0  0  0  0
   -0.0880    1.0260    0.1460 C   0  0  0  0  0  0  0  0  0  0  0  0
    1.1190    1.8360    0.5270 C   0  0  0  0  0  0  0  0  0  0  0  0
   -1.3820    1.5000    0.3140 C   0  0  0  0  0  0  0  0  0  0  0  0
   -2.4580    0.6440    0.1270 C   0  0  0  0  0  0  0  0  0  0  0  0
   -3.3060   -1.5190   -0.4280 C   0  0  0  0  0  0  0  0  0  0  0  0
   -4.6170   -1.0670   -0.2550 C   0  0  0  0  0  0  0  0  0  0  0  0
   -2.2060   -0.6900   -0.2330 C   0  0  0  0  0  0  0  0  0  0  0  0
   -4.8500    0.2520    0.1190 C   0  0  0  0  0  0  0  0  0  0  0  0
   -3.7670    1.1050    0.3030 C   0  0  0  0  0  0  0  0  0  0  0  0
    1.3240    3.1230    0.0640 O   0  0  0  0  0  0  0  0  0  0  0  0
    1.1140    1.8390    0.5250 C   0  0  0  0  0  0  0  0  0  0  0  0
    1.1150    1.8590    0.5290 C   0  0  0  0  0  0  0  0  0  0  0  0
  1 16  2  0  0  0  0
  1  8  1  0  0  0  0
  2  4  2  0  0  0  0
  2  3  1  0  0  0  0
  3  5  2  0  0  0  0
  4  6  1  0  0  0  0
  5  7  1  0  0  0  0
  6  8  1  0  0  0  0
  6  7  2  0  0  0  0
  7  9  1  0  0  0  0
  8 10  2  0  0  0  0
 10 12  1  0  0  0  0
 10 20  1  0  0  0  0
 11  9  1  0  0  0  0
 13 18  1  0  0  0  0
 13 12  2  0  0  0  0
 14 15  2  0  0  0  0
 14 16  1  0  0  0  0
 15 17  1  0  0  0  0
 16 13  1  0  0  0  0
 17 18  2  0  0  0  0
 19 21  1  0  0  0  0
M  END
