pdbs/div5-1553.pdb
 OpenBabel07211515343D

 35 38  0  0  0  0  0  0  0  0999 V2000
   -2.3540   -2.1330    0.6710 N   0  0  0  0  0  0  0  0  0  0  0  0
   -1.4370   -2.5370   -0.2440 C   0  0  0  0  0  0  0  0  0  0  0  0
   -1.1070   -1.8390   -1.4110 C   0  0  0  0  0  0  0  0  0  0  0  0
   -0.1010   -2.2730   -2.2720 C   0  0  0  0  0  0  0  0  0  0  0  0
    0.6620   -3.4120   -2.0010 C   0  0  0  0  0  0  0  0  0  0  0  0
    0.3380   -4.1150   -0.8380 C   0  0  0  0  0  0  0  0  0  0  0  0
   -0.6840   -3.6860    0.0180 C   0  0  0  0  0  0  0  0  0  0  0  0
    1.6060   -3.9020   -2.8330 N   0  0  0  0  0  0  0  0  0  0  0  0
    2.4320   -2.9200   -3.7770 S   0  0  0  0  0  0  0  0  0  0  0  0
    3.3350   -2.0110   -3.0780 O   0  0  0  0  0  0  0  0  0  0  0  0
    1.6510   -2.3020   -4.8460 O   0  0  0  0  0  0  0  0  0  0  0  0
    3.5260   -4.0340   -4.6490 C   0  0  0  0  0  0  0  0  0  0  0  0
    2.9400   -5.2720   -5.3340 C   0  0  0  0  0  0  0  0  0  0  0  0
    3.6630   -5.9090   -6.5230 C   0  0  0  0  0  0  0  0  0  0  0  0
    5.1080   -6.0540   -6.4960 N   0  0  0  0  0  0  0  0  0  0  0  0
    5.6770   -6.8100   -5.5730 C   0  0  0  0  0  0  0  0  0  0  0  0
    6.2450   -8.0640   -5.9370 N   0  0  0  0  0  0  0  0  0  0  0  0
    5.2230   -6.6230   -4.3450 N   0  0  0  0  0  0  0  0  0  0  0  0
   -3.2810   -1.2240    0.2530 C   0  0  0  0  0  0  0  0  0  0  0  0
   -4.5640   -1.6330   -0.1970 C   0  0  0  0  0  0  0  0  0  0  0  0
   -4.9370   -2.9880   -0.3010 C   0  0  0  0  0  0  0  0  0  0  0  0
   -5.5090   -0.6480   -0.5450 C   0  0  0  0  0  0  0  0  0  0  0  0
   -6.2050   -3.3690   -0.7280 C   0  0  0  0  0  0  0  0  0  0  0  0
   -7.1290   -2.3910   -1.0570 C   0  0  0  0  0  0  0  0  0  0  0  0
   -6.7700   -1.0480   -0.9650 C   0  0  0  0  0  0  0  0  0  0  0  0
   -5.2430    0.6630   -0.4780 N   0  0  0  0  0  0  0  0  0  0  0  0
   -4.0410    1.0710   -0.0540 C   0  0  0  0  0  0  0  0  0  0  0  0
   -3.0270    0.1720    0.3370 C   0  0  0  0  0  0  0  0  0  0  0  0
   -3.7880    2.4330    0.0020 C   0  0  0  0  0  0  0  0  0  0  0  0
   -1.7900    0.6900    0.7850 C   0  0  0  0  0  0  0  0  0  0  0  0
   -1.5290    2.0520    0.8280 C   0  0  0  0  0  0  0  0  0  0  0  0
   -2.5490    2.8950    0.4300 C   0  0  0  0  0  0  0  0  0  0  0  0
   -2.3150    4.3090    0.4440 N   0  0  0  0  0  0  0  0  0  0  0  0
   -2.4480    4.8880    1.5290 O   0  0  0  0  0  0  0  0  0  0  0  0
   -1.9980    4.8390   -0.6280 O   0  0  0  0  0  0  0  0  0  0  0  0
  2  7  1  0  0  0  0
  2  1  1  0  0  0  0
  3  2  2  0  0  0  0
  4  5  2  0  0  0  0
  4  3  1  0  0  0  0
  5  6  1  0  0  0  0
  6  7  2  0  0  0  0
  8  5  1  0  0  0  0
  9 10  2  0  0  0  0
  9  8  1  0  0  0  0
 11  9  2  0  0  0  0
 12  9  1  0  0  0  0
 13 12  1  0  0  0  0
 14 15  1  0  0  0  0
 14 13  1  0  0  0  0
 15 16  1  0  0  0  0
 16 18  1  0  0  0  0
 17 16  2  0  0  0  0
 19 28  1  0  0  0  0
 19  1  1  0  0  0  0
 20 19  2  0  0  0  0
 21 20  1  0  0  0  0
 22 26  2  0  0  0  0
 22 20  1  0  0  0  0
 23 21  2  0  0  0  0
 24 25  2  0  0  0  0
 24 23  1  0  0  0  0
 25 22  1  0  0  0  0
 26 27  1  0  0  0  0
 27 29  2  0  0  0  0
 27 28  1  0  0  0  0
 28 30  2  0  0  0  0
 29 32  1  0  0  0  0
 30 31  1  0  0  0  0
 32 33  1  0  0  0  0
 32 31  2  0  0  0  0
 33 34  2  0  0  0  0
 35 33  2  0  0  0  0
M  END
