pdbs/div5-1347.pdb
 OpenBabel07211515343D

 29 32  0  0  1  0  0  0  0  0999 V2000
    1.8100    3.9320    0.4690 O   0  0  0  0  0  0  0  0  0  0  0  0
    2.9250    4.4270   -1.4970 O   0  0  0  0  0  0  0  0  0  0  0  0
   -0.0760    1.6760    1.1260 O   0  0  0  0  0  0  0  0  0  0  0  0
    2.9860    0.9150   -1.0770 O   0  0  0  0  0  0  0  0  0  0  0  0
    2.7860    4.7820   -0.1290 C   0  0  1  0  0  0  0  0  0  0  0  0
    3.0890    2.2160   -0.5840 C   0  0  2  0  0  0  0  0  0  0  0  0
    1.7090    2.6730   -0.1510 C   0  0  1  0  0  0  0  0  0  0  0  0
    1.0750    1.6250    0.7500 C   0  0  0  0  0  0  0  0  0  0  0  0
    1.9900    0.4670    1.1560 C   0  0  2  0  0  0  0  0  0  0  0  0
    2.7750   -0.0500   -0.0610 C   0  0  2  0  0  0  0  0  0  0  0  0
    2.3530    6.2320   -0.0040 C   0  0  0  0  0  0  0  0  0  0  0  0
    3.0660    7.1190    0.7130 C   0  0  0  0  0  0  0  0  0  0  0  0
    2.6730    8.3980    0.8160 C   0  0  0  0  0  0  0  0  0  0  0  0
    1.5540    8.8090    0.2010 C   0  0  0  0  0  0  0  0  0  0  0  0
    0.8330    7.9350   -0.5170 C   0  0  0  0  0  0  0  0  0  0  0  0
    1.2330    6.6580   -0.6160 C   0  0  0  0  0  0  0  0  0  0  0  0
    3.5700    3.1840   -1.6550 C   0  0  0  0  0  0  0  0  0  0  0  0
    1.1340   -0.5710    1.7560 N   0  0  0  0  0  0  0  0  0  0  0  0
    1.5150   -1.8000    2.2270 C   0  0  0  0  0  0  0  0  0  0  0  0
    0.6640   -2.6560    2.1410 O   0  0  0  0  0  0  0  0  0  0  0  0
    0.1290   -0.4550    1.6210 H   0  0  0  0  0  0  0  0  0  0  0  0
    2.7910   -2.1130    2.5930 C   0  0  0  0  0  0  0  0  0  0  0  0
    3.2550   -3.3660    2.4120 C   0  0  0  0  0  0  0  0  0  0  0  0
    4.5100   -3.7000    2.7560 C   0  0  0  0  0  0  0  0  0  0  0  0
    5.3220   -2.7890    3.3090 C   0  0  0  0  0  0  0  0  0  0  0  0
    4.8640   -1.5480    3.5280 C   0  0  0  0  0  0  0  0  0  0  0  0
    3.6100   -1.2200    3.1800 C   0  0  0  0  0  0  0  0  0  0  0  0
    4.0650   -0.4570    0.3460 O   0  0  0  0  0  0  0  0  0  0  0  0
    4.6740   -1.3750   -0.5350 C   0  0  0  0  0  0  0  0  0  0  0  0
  2  5  1  0  0  0  0
  4  6  1  0  0  0  0
  4 10  1  0  0  0  0
  5 11  1  6  0  0  0
  5  1  1  0  0  0  0
  6 17  1  6  0  0  0
  6  7  1  0  0  0  0
  7  1  1  1  0  0  0
  7  8  1  0  0  0  0
  8  3  2  0  0  0  0
  8  9  1  0  0  0  0
  9 18  1  6  0  0  0
 10 28  1  1  0  0  0
 10  9  1  0  0  0  0
 11 12  2  0  0  0  0
 12 13  1  0  0  0  0
 14 13  2  0  0  0  0
 15 14  1  0  0  0  0
 16 15  2  0  0  0  0
 16 11  1  0  0  0  0
 17  2  1  0  0  0  0
 18 19  1  0  0  0  0
 19 22  1  0  0  0  0
 20 19  2  0  0  0  0
 21 18  1  0  0  0  0
 22 27  1  0  0  0  0
 23 22  2  0  0  0  0
 23 24  1  0  0  0  0
 24 25  2  0  0  0  0
 25 26  1  0  0  0  0
 27 26  2  0  0  0  0
 29 28  1  0  0  0  0
M  END
