pdbs/div5-1337.pdb
 OpenBabel07211515343D

 32 37  0  0  1  0  0  0  0  0999 V2000
    1.6400    1.2010    1.5370 O   0  0  0  0  0  0  0  0  0  0  0  0
    1.5350   -0.2410   -0.2100 N   0  0  0  0  0  0  0  0  0  0  0  0
    1.1600   -0.8060   -0.9600 H   0  0  0  0  0  0  0  0  0  0  0  0
   -1.1130    1.5090    2.5190 H   0  0  0  0  0  0  0  0  0  0  0  0
   -1.4460    1.2170    1.6100 N   0  0  0  0  0  0  0  0  0  0  0  0
   -1.4510    0.4390   -0.5210 O   0  0  0  0  0  0  0  0  0  0  0  0
   -3.8920    0.6280   -0.8970 C   0  0  0  0  0  0  0  0  0  0  0  0
   -5.0590    1.0360   -0.2170 C   0  0  0  0  0  0  0  0  0  0  0  0
   -2.7410    0.7530   -0.1340 C   0  0  0  0  0  0  0  0  0  0  0  0
   -5.0870    1.5300    1.1210 C   0  0  0  0  0  0  0  0  0  0  0  0
   -2.7400    1.2330    1.1790 C   0  0  0  0  0  0  0  0  0  0  0  0
   -6.3690    1.9290    1.7300 C   0  0  0  0  0  0  0  0  0  0  0  0
   -7.5820    1.7840    1.0420 C   0  0  0  0  0  0  0  0  0  0  0  0
   -8.7980    2.1620    1.6110 C   0  0  0  0  0  0  0  0  0  0  0  0
   -8.8250    2.6980    2.8940 C   0  0  0  0  0  0  0  0  0  0  0  0
   -6.4270    2.4720    3.0210 C   0  0  0  0  0  0  0  0  0  0  0  0
   -3.8810    1.6350    1.8570 C   0  0  0  0  0  0  0  0  0  0  0  0
   -7.6380    2.8530    3.6010 C   0  0  0  0  0  0  0  0  0  0  0  0
    4.0970    1.1260    1.8400 C   0  0  0  0  0  0  0  0  0  0  0  0
    2.9110    0.7610    1.2180 C   0  0  0  0  0  0  0  0  0  0  0  0
    5.2360    0.5140    1.2780 C   0  0  0  0  0  0  0  0  0  0  0  0
    2.8490   -0.1310    0.1410 C   0  0  0  0  0  0  0  0  0  0  0  0
    5.1890   -0.3970    0.1860 C   0  0  0  0  0  0  0  0  0  0  0  0
    3.9580   -0.7480   -0.4190 C   0  0  0  0  0  0  0  0  0  0  0  0
    6.4340   -0.9710   -0.3180 C   0  0  0  0  0  0  0  0  0  0  0  0
    7.0970   -1.9760    0.3950 C   0  0  0  0  0  0  0  0  0  0  0  0
    8.2910   -2.5180   -0.0780 C   0  0  0  0  0  0  0  0  0  0  0  0
    6.9950   -0.5200   -1.5170 C   0  0  0  0  0  0  0  0  0  0  0  0
    8.8320   -2.0640   -1.2770 C   0  0  0  0  0  0  0  0  0  0  0  0
    8.1850   -1.0650   -1.9980 C   0  0  0  0  0  0  0  0  0  0  0  0
   -0.6730    0.7390    0.5800 C   0  0  1  0  0  0  0  0  0  0  0  0
    0.8110    0.5650    0.6340 C   0  0  2  0  0  0  0  0  0  0  0  0
  2 22  1  0  0  0  0
  3  2  1  0  0  0  0
  5  4  1  0  0  0  0
  6  9  1  0  0  0  0
  7  8  1  0  0  0  0
  7  9  2  0  0  0  0
  8 10  2  0  0  0  0
  9 11  1  0  0  0  0
 10 12  1  0  0  0  0
 10 17  1  0  0  0  0
 11  5  1  0  0  0  0
 11 17  2  0  0  0  0
 12 16  2  0  0  0  0
 13 14  2  0  0  0  0
 13 12  1  0  0  0  0
 14 15  1  0  0  0  0
 15 18  2  0  0  0  0
 16 18  1  0  0  0  0
 20  1  1  0  0  0  0
 20 19  2  0  0  0  0
 21 19  1  0  0  0  0
 22 20  1  0  0  0  0
 23 21  2  0  0  0  0
 24 22  2  0  0  0  0
 24 23  1  0  0  0  0
 25 23  1  0  0  0  0
 25 26  2  0  0  0  0
 27 26  1  0  0  0  0
 28 25  1  0  0  0  0
 29 27  2  0  0  0  0
 30 28  2  0  0  0  0
 30 29  1  0  0  0  0
 31  6  1  6  0  0  0
 31 32  1  0  0  0  0
 31  5  1  0  0  0  0
 32  2  1  6  0  0  0
 32  1  1  0  0  0  0
M  END
