pdbs/div5-1069.pdb
 OpenBabel07211515343D

 22 24  0  0  0  0  0  0  0  0999 V2000
    0.9260    3.0180   -1.0990 O   0  0  0  0  0  0  0  0  0  0  0  0
   -0.1620   -0.6390    0.2170 O   0  0  0  0  0  0  0  0  0  0  0  0
    2.0340   -1.3850    0.6280 C   0  0  0  0  0  0  0  0  0  0  0  0
    1.1930   -0.3280    0.1830 C   0  0  0  0  0  0  0  0  0  0  0  0
    3.4660   -1.1470    0.6170 C   0  0  0  0  0  0  0  0  0  0  0  0
    1.7040    0.9050   -0.2530 C   0  0  0  0  0  0  0  0  0  0  0  0
    3.9980    0.1470    0.1560 C   0  0  0  0  0  0  0  0  0  0  0  0
    0.6810    1.8980   -0.6820 C   0  0  0  0  0  0  0  0  0  0  0  0
   -2.9080   -1.3190    0.4070 C   0  0  0  0  0  0  0  0  0  0  0  0
   -4.2700   -1.6320    0.4420 C   0  0  0  0  0  0  0  0  0  0  0  0
   -2.4910   -0.0920   -0.0940 C   0  0  0  0  0  0  0  0  0  0  0  0
   -5.2780   -0.7620   -0.0060 C   0  0  0  0  0  0  0  0  0  0  0  0
   -3.4480    0.8040   -0.5510 C   0  0  0  0  0  0  0  0  0  0  0  0
   -1.0920    0.3000   -0.1500 C   0  0  0  0  0  0  0  0  0  0  0  0
   -0.7560    1.5050   -0.5890 C   0  0  0  0  0  0  0  0  0  0  0  0
   -4.8030    0.4630   -0.5020 C   0  0  0  0  0  0  0  0  0  0  0  0
    3.0950    1.1990   -0.2890 C   0  0  0  0  0  0  0  0  0  0  0  0
    4.2760   -2.0740    1.0110 O   0  0  0  0  0  0  0  0  0  0  0  0
    5.2750    0.3490    0.1470 O   0  0  0  0  0  0  0  0  0  0  0  0
   -6.5150   -1.0580    0.0340 O   0  0  0  0  0  0  0  0  0  0  0  0
    3.5450    2.3350   -0.6930 O   0  0  0  0  0  0  0  0  0  0  0  0
    1.5330   -2.5040    1.0230 O   0  0  0  0  0  0  0  0  0  0  0  0
  1  8  2  0  0  0  0
  3 22  1  0  0  0  0
  4  2  1  0  0  0  0
  4  3  2  0  0  0  0
  5  3  1  0  0  0  0
  5 18  1  0  0  0  0
  6  4  1  0  0  0  0
  7  5  2  0  0  0  0
  8 15  1  0  0  0  0
  8  6  1  0  0  0  0
  9 10  2  0  0  0  0
 11  9  1  0  0  0  0
 12 20  2  0  0  0  0
 12 10  1  0  0  0  0
 13 16  1  0  0  0  0
 13 11  2  0  0  0  0
 14 11  1  0  0  0  0
 14  2  1  0  0  0  0
 15 14  2  0  0  0  0
 16 12  1  0  0  0  0
 17  6  2  0  0  0  0
 17  7  1  0  0  0  0
 19  7  1  0  0  0  0
 21 17  1  0  0  0  0
M  END
