pdbs/div5-1331.pdb
 OpenBabel07211515343D

 30 33  0  0  1  0  0  0  0  0999 V2000
    3.4830    1.7250    0.2060 C   0  0  1  0  0  0  0  0  0  0  0  0
    4.1220    0.5170    0.9400 C   0  0  0  0  0  0  0  0  0  0  0  0
    1.9630    1.5220    0.4330 C   0  0  1  0  0  0  0  0  0  0  0  0
    1.0350    2.1270   -0.6340 C   0  0  0  0  0  0  0  0  0  0  0  0
   -0.4240    1.6090   -0.6170 C   0  0  2  0  0  0  0  0  0  0  0  0
    3.0180   -0.5520    1.0840 C   0  0  0  0  0  0  0  0  0  0  0  0
    1.8690   -0.0010    0.2340 C   0  0  1  0  0  0  0  0  0  0  0  0
   -0.5030    0.0500   -0.6670 C   0  0  1  0  0  0  0  0  0  0  0  0
    0.4460   -0.5580    0.4090 C   0  0  1  0  0  0  0  0  0  0  0  0
   -1.9130   -0.6540   -0.7330 C   0  0  1  0  0  0  0  0  0  0  0  0
   -2.6440   -0.3460   -2.0790 C   0  0  0  0  0  0  0  0  0  0  0  0
   -3.4900   -1.4870   -2.6660 C   0  0  0  0  0  0  0  0  0  0  0  0
    0.5180   -2.0900    0.3590 C   0  0  0  0  0  0  0  0  0  0  0  0
   -1.7940   -2.2080   -0.6160 C   0  0  2  0  0  0  0  0  0  0  0  0
   -2.5970   -2.6720   -2.9030 C   0  0  0  0  0  0  0  0  0  0  0  0
   -0.8750   -2.6880    0.5130 C   0  0  0  0  0  0  0  0  0  0  0  0
   -1.4420   -2.8690   -1.9620 C   0  0  0  0  0  0  0  0  0  0  0  0
   -2.7890   -3.5030   -3.8330 N   0  0  0  0  0  0  0  0  0  0  0  0
   -1.1320    2.3410   -1.7670 C   0  0  0  0  0  0  0  0  0  0  0  0
   -2.8330   -0.1860    0.4210 C   0  0  0  0  0  0  0  0  0  0  0  0
    1.6240    2.0180    1.8560 C   0  0  0  0  0  0  0  0  0  0  0  0
    4.0520    3.0880    0.5330 C   0  0  0  0  0  0  0  0  0  0  0  0
    3.6410    4.2970   -0.2660 C   0  0  0  0  0  0  0  0  0  0  0  0
    4.8740    3.1990    1.4860 N   0  0  0  0  0  0  0  0  0  0  0  0
    5.4070    4.3440    1.8590 O   0  0  0  0  0  0  0  0  0  0  0  0
    5.9260    4.2160    2.6320 H   0  0  0  0  0  0  0  0  0  0  0  0
   -1.0150    2.0800    0.5660 O   0  0  0  0  0  0  0  0  0  0  0  0
   -1.9200    2.3510    0.4030 H   0  0  0  0  0  0  0  0  0  0  0  0
   -3.7940   -3.4070   -4.6790 O   0  0  0  0  0  0  0  0  0  0  0  0
   -3.7980   -4.1500   -5.2550 H   0  0  0  0  0  0  0  0  0  0  0  0
  1  3  1  0  0  0  0
  1 22  1  1  0  0  0
  1  2  1  0  0  0  0
  2  6  1  0  0  0  0
  3 21  1  1  0  0  0
  4  5  1  0  0  0  0
  4  3  1  0  0  0  0
  5 19  1  6  0  0  0
  5 27  1  0  0  0  0
  7  9  1  0  0  0  0
  7  3  1  0  0  0  0
  7  6  1  1  0  0  0
  8 10  1  1  0  0  0
  8  5  1  0  0  0  0
  8  9  1  0  0  0  0
  9 13  1  6  0  0  0
 10 14  1  0  0  0  0
 10 20  1  1  0  0  0
 11 10  1  0  0  0  0
 12 11  1  0  0  0  0
 13 16  1  0  0  0  0
 14 17  1  6  0  0  0
 14 16  1  0  0  0  0
 15 12  1  0  0  0  0
 15 17  1  0  0  0  0
 18 15  2  0  0  0  0
 22 24  2  0  0  0  0
 23 22  1  0  0  0  0
 24 25  1  0  0  0  0
 25 26  1  0  0  0  0
 28 27  1  0  0  0  0
 29 18  1  0  0  0  0
 30 29  1  0  0  0  0
M  END
