pdbs/div5-1329.pdb
 OpenBabel07211515343D

 30 33  0  0  0  0  0  0  0  0999 V2000
   -1.4800    3.2940    0.0900 N   0  0  0  0  0  0  0  0  0  0  0  0
   -0.8340    3.4860    1.2670 C   0  0  0  0  0  0  0  0  0  0  0  0
   -1.0950    4.4110    2.0340 O   0  0  0  0  0  0  0  0  0  0  0  0
    0.2370    2.6530    1.3470 N   0  0  0  0  0  0  0  0  0  0  0  0
   -2.5650    2.4790    0.1430 C   0  0  0  0  0  0  0  0  0  0  0  0
   -2.7790    1.5270    1.1520 C   0  0  0  0  0  0  0  0  0  0  0  0
   -3.8350    0.6150    1.1160 C   0  0  0  0  0  0  0  0  0  0  0  0
   -4.7170    0.6330    0.0420 C   0  0  0  0  0  0  0  0  0  0  0  0
   -4.5690    1.5780   -0.9690 C   0  0  0  0  0  0  0  0  0  0  0  0
   -5.7840   -0.3930   -0.0160 C   0  0  0  0  0  0  0  0  0  0  0  0
   -3.4960    2.4820   -0.9110 C   0  0  0  0  0  0  0  0  0  0  0  0
   -6.9240   -0.1830    0.7420 N   0  0  0  0  0  0  0  0  0  0  0  0
   -5.5850   -1.4600   -0.7390 N   0  0  0  0  0  0  0  0  0  0  0  0
   -6.9460    0.6690    1.2930 H   0  0  0  0  0  0  0  0  0  0  0  0
   -7.8300   -1.2880    1.0390 C   0  0  0  0  0  0  0  0  0  0  0  0
   -7.5270   -2.6020    0.3380 C   0  0  0  0  0  0  0  0  0  0  0  0
   -6.6540   -2.3960   -0.8890 C   0  0  0  0  0  0  0  0  0  0  0  0
    0.6370    2.2490    2.5800 C   0  0  0  0  0  0  0  0  0  0  0  0
    1.0000    0.9060    2.7890 C   0  0  0  0  0  0  0  0  0  0  0  0
    1.5800    0.4550    3.9850 C   0  0  0  0  0  0  0  0  0  0  0  0
    1.8340    1.3630    5.0080 C   0  0  0  0  0  0  0  0  0  0  0  0
    1.4940    2.7030    4.8400 C   0  0  0  0  0  0  0  0  0  0  0  0
    2.4970    0.9270    6.2650 C   0  0  0  0  0  0  0  0  0  0  0  0
    0.9200    3.1310    3.6350 C   0  0  0  0  0  0  0  0  0  0  0  0
    1.8700    1.1450    7.3880 N   0  0  0  0  0  0  0  0  0  0  0  0
    3.7620    0.3560    6.1920 N   0  0  0  0  0  0  0  0  0  0  0  0
    2.4440    0.6940    8.6140 C   0  0  0  0  0  0  0  0  0  0  0  0
    3.9610    0.7130    8.6760 C   0  0  0  0  0  0  0  0  0  0  0  0
    4.5680    0.1720    7.3940 C   0  0  0  0  0  0  0  0  0  0  0  0
    4.1640    0.2160    5.2700 H   0  0  0  0  0  0  0  0  0  0  0  0
  1  5  1  0  0  0  0
  1  2  1  0  0  0  0
  2  4  1  0  0  0  0
  2  3  2  0  0  0  0
  4 18  1  0  0  0  0
  5  6  2  0  0  0  0
  7  6  1  0  0  0  0
  8  7  2  0  0  0  0
  9 11  2  0  0  0  0
  9  8  1  0  0  0  0
 10  8  1  0  0  0  0
 10 12  1  0  0  0  0
 11  5  1  0  0  0  0
 12 15  1  0  0  0  0
 12 14  1  0  0  0  0
 13 10  2  0  0  0  0
 16 15  1  0  0  0  0
 17 13  1  0  0  0  0
 17 16  1  0  0  0  0
 18 19  2  0  0  0  0
 18 24  1  0  0  0  0
 19 20  1  0  0  0  0
 20 21  2  0  0  0  0
 21 23  1  0  0  0  0
 22 21  1  0  0  0  0
 23 25  2  0  0  0  0
 24 22  2  0  0  0  0
 25 27  1  0  0  0  0
 26 23  1  0  0  0  0
 26 29  1  0  0  0  0
 27 28  1  0  0  0  0
 29 28  1  0  0  0  0
 30 26  1  0  0  0  0
M  END
