pdbs/div5-1509c.pdb
 OpenBabel07211515343D

 34 40  0  0  1  0  0  0  0  0999 V2000
    1.2760    1.2750   -1.7440 C   0  0  2  0  0  0  0  0  0  0  0  0
   -0.0460    1.9260   -2.2230 C   0  0  0  0  0  0  0  0  0  0  0  0
    1.1890   -2.2060   -0.1170 C   0  0  0  0  0  0  0  0  0  0  0  0
   -2.1660   -3.0990    3.4910 C   0  0  0  0  0  0  0  0  0  0  0  0
   -4.0680   -2.2960    2.1340 C   0  0  0  0  0  0  0  0  0  0  0  0
    1.3100   -0.5870   -5.2280 O   0  0  0  0  0  0  0  0  0  0  0  0
    2.1680    1.0920   -3.9950 O   0  0  0  0  0  0  0  0  0  0  0  0
    1.5910   -0.1400   -4.1310 C   0  0  0  0  0  0  0  0  0  0  0  0
    2.3640    1.7140   -2.7490 C   0  0  2  0  0  0  0  0  0  0  0  0
    1.3620   -0.9540   -2.9200 C   0  0  2  0  0  0  0  0  0  0  0  0
    1.1270   -0.2360   -1.6940 C   0  0  1  0  0  0  0  0  0  0  0  0
   -2.4190    3.4820    2.8700 O   0  0  0  0  0  0  0  0  0  0  0  0
    2.5010   -0.9600   -2.1010 O   0  0  0  0  0  0  0  0  0  0  0  0
   -1.3990   -1.2060   -2.1190 O   0  0  0  0  0  0  0  0  0  0  0  0
    1.6360    1.7310   -0.3190 C   0  0  0  0  0  0  0  0  0  0  0  0
   -1.0030   -1.4400   -0.9980 C   0  0  0  0  0  0  0  0  0  0  0  0
    0.3740   -0.9360   -0.5150 C   0  0  1  0  0  0  0  0  0  0  0  0
    0.5100    1.4310    0.6690 C   0  0  0  0  0  0  0  0  0  0  0  0
   -1.9010   -2.2100   -0.0280 C   0  0  0  0  0  0  0  0  0  0  0  0
    0.1190   -0.0560    0.7740 C   0  0  1  0  0  0  0  0  0  0  0  0
   -1.6380   -1.7410    1.4020 C   0  0  1  0  0  0  0  0  0  0  0  0
   -1.2940   -0.2360    1.4280 C   0  0  2  0  0  0  0  0  0  0  0  0
   -2.4150    0.6000    0.7910 C   0  0  0  0  0  0  0  0  0  0  0  0
   -2.6040    1.9040    1.2760 O   0  0  0  0  0  0  0  0  0  0  0  0
   -2.6310   -1.9700    2.5520 C   0  0  0  0  0  0  0  0  0  0  0  0
   -2.6110   -0.7670    3.2670 O   0  0  0  0  0  0  0  0  0  0  0  0
   -1.4250   -0.0870    2.9400 C   0  0  2  0  0  0  0  0  0  0  0  0
   -1.5070    1.3540    3.4010 C   0  0  0  0  0  0  0  0  0  0  0  0
   -2.2220    2.3410    2.5020 C   0  0  0  0  0  0  0  0  0  0  0  0
    3.8150    1.6470   -2.3270 C   0  0  0  0  0  0  0  0  0  0  0  0
    4.7690    0.7910   -2.7250 C   0  0  0  0  0  0  0  0  0  0  0  0
    5.8580    1.0300   -2.2060 O   0  0  0  0  0  0  0  0  0  0  0  0
    5.7260    2.0150   -1.4820 C   0  0  0  0  0  0  0  0  0  0  0  0
    4.4710    2.4780   -1.5030 C   0  0  0  0  0  0  0  0  0  0  0  0
  1  2  1  6  0  0  0
  1 11  1  0  0  0  0
  1 15  1  0  0  0  0
  5 25  1  0  0  0  0
  6  8  2  0  0  0  0
  7  9  1  0  0  0  0
  8  7  1  0  0  0  0
  9 30  1  1  0  0  0
  9  1  1  0  0  0  0
 10  8  1  1  0  0  0
 10 13  1  0  0  0  0
 10 11  1  0  0  0  0
 11 13  1  1  0  0  0
 11 17  1  0  0  0  0
 14 16  2  0  0  0  0
 15 18  1  0  0  0  0
 16 17  1  0  0  0  0
 16 19  1  0  0  0  0
 17  3  1  1  0  0  0
 17 20  1  0  0  0  0
 20 18  1  6  0  0  0
 20 22  1  0  0  0  0
 21 19  1  6  0  0  0
 21 22  1  0  0  0  0
 21 25  1  0  0  0  0
 22 23  1  6  0  0  0
 22 27  1  0  0  0  0
 23 24  1  0  0  0  0
 24 29  1  0  0  0  0
 25 26  1  0  0  0  0
 25  4  1  0  0  0  0
 27 26  1  6  0  0  0
 27 28  1  0  0  0  0
 29 12  2  0  0  0  0
 29 28  1  0  0  0  0
 30 34  1  0  0  0  0
 31 30  2  0  0  0  0
 31 32  1  0  0  0  0
 32 33  1  0  0  0  0
 34 33  2  0  0  0  0
M  END
