pdbs/div5-1468.pdb
 OpenBabel07211515343D

 30 34  0  0  1  0  0  0  0  0999 V2000
   -0.8160    3.3250   -0.9640 O   0  0  0  0  0  0  0  0  0  0  0  0
    0.8450    5.4250    0.7120 O   0  0  0  0  0  0  0  0  0  0  0  0
    3.0190    5.3820    1.2050 C   0  0  0  0  0  0  0  0  0  0  0  0
    1.9110    4.8510    0.6290 C   0  0  0  0  0  0  0  0  0  0  0  0
    4.2130    4.7750    1.2640 C   0  0  0  0  0  0  0  0  0  0  0  0
    4.4320    3.3660    0.7910 C   0  0  0  0  0  0  0  0  0  0  0  0
    2.0030    3.5400   -0.1410 C   0  0  1  0  0  0  0  0  0  0  0  0
    3.4000    2.8840   -0.2330 C   0  0  2  0  0  0  0  0  0  0  0  0
    1.0440    2.4010    0.2780 C   0  0  1  0  0  0  0  0  0  0  0  0
   -0.3730    2.4230   -0.2900 C   0  0  0  0  0  0  0  0  0  0  0  0
   -1.1860    1.1640   -0.0080 C   0  0  0  0  0  0  0  0  0  0  0  0
    3.1780    1.3560   -0.1560 C   0  0  0  0  0  0  0  0  0  0  0  0
    1.6840    1.1950   -0.4440 C   0  0  1  0  0  0  0  0  0  0  0  0
   -0.4800   -0.0980   -0.5560 C   0  0  1  0  0  0  0  0  0  0  0  0
    1.0070   -0.1470   -0.1170 C   0  0  1  0  0  0  0  0  0  0  0  0
   -1.2420   -1.4370   -0.3050 C   0  0  1  0  0  0  0  0  0  0  0  0
   -2.6500   -1.3990   -0.9670 C   0  0  0  0  0  0  0  0  0  0  0  0
   -3.0120   -2.6250   -1.8240 C   0  0  0  0  0  0  0  0  0  0  0  0
    1.7400   -1.3220   -0.7840 C   0  0  0  0  0  0  0  0  0  0  0  0
   -0.4410   -2.5880   -0.9670 C   0  0  1  0  0  0  0  0  0  0  0  0
   -2.6220   -3.9480   -1.1640 C   0  0  1  0  0  0  0  0  0  0  0  0
    1.0240   -2.6490   -0.5050 C   0  0  0  0  0  0  0  0  0  0  0  0
   -1.1250   -3.9620   -0.8200 C   0  0  0  0  0  0  0  0  0  0  0  0
   -1.4080   -1.6740    1.2160 C   0  0  0  0  0  0  0  0  0  0  0  0
    1.0050    2.3220    1.8170 C   0  0  0  0  0  0  0  0  0  0  0  0
    5.3910    5.4170    1.9600 C   0  0  0  0  0  0  0  0  0  0  0  0
   -3.4160   -4.1130   -0.0250 O   0  0  0  0  0  0  0  0  0  0  0  0
   -3.6450   -5.3230    0.5640 C   0  0  0  0  0  0  0  0  0  0  0  0
   -4.2730   -5.4280    1.5970 O   0  0  0  0  0  0  0  0  0  0  0  0
   -3.0920   -6.5440   -0.1530 C   0  0  0  0  0  0  0  0  0  0  0  0
  1 10  2  0  0  0  0
  3  5  2  0  0  0  0
  4  2  2  0  0  0  0
  4  3  1  0  0  0  0
  5 26  1  0  0  0  0
  6  5  1  0  0  0  0
  7  9  1  0  0  0  0
  7  4  1  1  0  0  0
  8 12  1  1  0  0  0
  8  7  1  0  0  0  0
  8  6  1  0  0  0  0
  9 25  1  1  0  0  0
 10 11  1  0  0  0  0
 10  9  1  0  0  0  0
 13 12  1  1  0  0  0
 13 15  1  0  0  0  0
 13  9  1  0  0  0  0
 14 16  1  0  0  0  0
 14 15  1  0  0  0  0
 14 11  1  1  0  0  0
 15 19  1  6  0  0  0
 16 24  1  1  0  0  0
 17 16  1  0  0  0  0
 18 21  1  0  0  0  0
 18 17  1  0  0  0  0
 19 22  1  0  0  0  0
 20 23  1  1  0  0  0
 20 22  1  0  0  0  0
 20 16  1  0  0  0  0
 21 23  1  0  0  0  0
 21 27  1  1  0  0  0
 27 28  1  0  0  0  0
 28 29  2  0  0  0  0
 30 28  1  0  0  0  0
M  END
