pdbs/div5-797.pdb
 OpenBabel07211515343D

 22 25  0  0  0  0  0  0  0  0999 V2000
   -0.3780   -0.4390   -0.1120 N   0  0  0  0  0  0  0  0  0  0  0  0
   -1.3080    1.7480    0.1870 N   0  0  0  0  0  0  0  0  0  0  0  0
    1.0150    1.3350    0.3100 N   0  0  0  0  0  0  0  0  0  0  0  0
    0.4170    3.4200    0.6180 N   0  0  0  0  0  0  0  0  0  0  0  0
    1.7920    3.3470    0.7250 N   0  0  0  0  0  0  0  0  0  0  0  0
   -3.1490   -1.2440    0.4410 C   0  0  0  0  0  0  0  0  0  0  0  0
   -4.4150   -1.7880    0.2320 C   0  0  0  0  0  0  0  0  0  0  0  0
   -2.7640   -0.1060   -0.2670 C   0  0  0  0  0  0  0  0  0  0  0  0
   -3.6400    0.4990   -1.1670 C   0  0  0  0  0  0  0  0  0  0  0  0
   -1.4230    0.4710   -0.0470 C   0  0  0  0  0  0  0  0  0  0  0  0
   -5.2970   -1.1880   -0.6650 C   0  0  0  0  0  0  0  0  0  0  0  0
   -4.9110   -0.0420   -1.3600 C   0  0  0  0  0  0  0  0  0  0  0  0
   -0.0460    2.2070    0.3710 C   0  0  0  0  0  0  0  0  0  0  0  0
    2.1210    2.0950    0.5310 C   0  0  0  0  0  0  0  0  0  0  0  0
    0.8450   -0.0230    0.0670 C   0  0  0  0  0  0  0  0  0  0  0  0
    1.9520   -0.9980   -0.0180 C   0  0  0  0  0  0  0  0  0  0  0  0
    1.9090   -1.9740   -1.0150 C   0  0  0  0  0  0  0  0  0  0  0  0
    2.9950   -0.9820    0.9050 C   0  0  0  0  0  0  0  0  0  0  0  0
    4.0170   -1.9260    0.8070 C   0  0  0  0  0  0  0  0  0  0  0  0
    2.9210   -2.9280   -1.0960 C   0  0  0  0  0  0  0  0  0  0  0  0
    3.9790   -2.8990   -0.1910 C   0  0  0  0  0  0  0  0  0  0  0  0
    3.5270    1.5800    0.5780 C   0  0  0  0  0  0  0  0  0  0  0  0
  1 10  1  0  0  0  0
  1 15  2  0  0  0  0
  2 13  1  0  0  0  0
  3 13  1  0  0  0  0
  3 14  1  0  0  0  0
  4  5  1  0  0  0  0
  7  6  1  0  0  0  0
  8 10  1  0  0  0  0
  8  6  2  0  0  0  0
  9  8  1  0  0  0  0
 10  2  2  0  0  0  0
 11  7  2  0  0  0  0
 12  9  2  0  0  0  0
 12 11  1  0  0  0  0
 13  4  2  0  0  0  0
 14 22  1  0  0  0  0
 14  5  2  0  0  0  0
 15  3  1  0  0  0  0
 16 15  1  0  0  0  0
 16 18  2  0  0  0  0
 17 16  1  0  0  0  0
 19 18  1  0  0  0  0
 20 17  2  0  0  0  0
 20 21  1  0  0  0  0
 21 19  2  0  0  0  0
M  END
