pdbs/div5-1320.pdb
 OpenBabel07211515343D

 29 31  0  0  0  0  0  0  0  0999 V2000
    0.4940   -1.4410    1.3850 C   0  0  0  0  0  0  0  0  0  0  0  0
    0.8370   -2.7280    1.1690 C   0  0  0  0  0  0  0  0  0  0  0  0
   -0.1500   -3.6300    1.0090 C   0  0  0  0  0  0  0  0  0  0  0  0
   -1.4440   -3.2830    1.0600 C   0  0  0  0  0  0  0  0  0  0  0  0
   -1.7930   -2.0070    1.2820 C   0  0  0  0  0  0  0  0  0  0  0  0
   -0.8100   -1.1120    1.4660 C   0  0  0  0  0  0  0  0  0  0  0  0
    2.2580   -3.2500    1.1920 C   0  0  0  0  0  0  0  0  0  0  0  0
    1.3290   -0.3970    1.5720 N   0  0  0  0  0  0  0  0  0  0  0  0
    2.6570   -0.1960    1.3400 C   0  0  0  0  0  0  0  0  0  0  0  0
    3.2680    0.4420    2.1550 O   0  0  0  0  0  0  0  0  0  0  0  0
    3.2690   -0.6370    0.1880 N   0  0  0  0  0  0  0  0  0  0  0  0
    4.7160   -0.6670    0.0200 C   0  0  0  0  0  0  0  0  0  0  0  0
    2.5710   -0.7850   -1.0860 C   0  0  0  0  0  0  0  0  0  0  0  0
    5.1240    0.4960   -0.8970 C   0  0  0  0  0  0  0  0  0  0  0  0
    4.4390    0.4060   -2.1810 N   0  0  0  0  0  0  0  0  0  0  0  0
    4.8370    1.4910   -3.0640 C   0  0  0  0  0  0  0  0  0  0  0  0
    2.9930    0.3820   -1.9950 C   0  0  0  0  0  0  0  0  0  0  0  0
    0.8360    0.4090    1.9260 H   0  0  0  0  0  0  0  0  0  0  0  0
   -3.1130   -1.7360    1.3380 N   0  0  0  0  0  0  0  0  0  0  0  0
   -3.8270   -0.5810    1.4620 C   0  0  0  0  0  0  0  0  0  0  0  0
   -4.8930   -0.6630    2.0120 O   0  0  0  0  0  0  0  0  0  0  0  0
   -3.3810    0.6330    0.9900 N   0  0  0  0  0  0  0  0  0  0  0  0
   -3.8680    1.9070    1.5040 C   0  0  0  0  0  0  0  0  0  0  0  0
   -2.6620    0.7880   -0.2700 C   0  0  0  0  0  0  0  0  0  0  0  0
   -4.8090    2.5350    0.4650 C   0  0  0  0  0  0  0  0  0  0  0  0
   -4.1240    2.7090   -0.8090 N   0  0  0  0  0  0  0  0  0  0  0  0
   -4.9970    3.3320   -1.7920 C   0  0  0  0  0  0  0  0  0  0  0  0
   -3.6110    1.4340   -1.2940 C   0  0  0  0  0  0  0  0  0  0  0  0
   -3.6600   -2.5830    1.3150 H   0  0  0  0  0  0  0  0  0  0  0  0
  1  6  1  0  0  0  0
  1  8  1  0  0  0  0
  2  7  1  0  0  0  0
  2  1  2  0  0  0  0
  3  4  2  0  0  0  0
  3  2  1  0  0  0  0
  4  5  1  0  0  0  0
  5 19  1  0  0  0  0
  5  6  2  0  0  0  0
  8 18  1  0  0  0  0
  9  8  1  0  0  0  0
  9 10  2  0  0  0  0
 11  9  1  0  0  0  0
 12 11  1  0  0  0  0
 13 11  1  0  0  0  0
 14 12  1  0  0  0  0
 15 17  1  0  0  0  0
 15 14  1  0  0  0  0
 16 15  1  0  0  0  0
 17 13  1  0  0  0  0
 19 20  1  0  0  0  0
 20 21  2  0  0  0  0
 22 20  1  0  0  0  0
 22 23  1  0  0  0  0
 24 22  1  0  0  0  0
 25 23  1  0  0  0  0
 26 25  1  0  0  0  0
 27 26  1  0  0  0  0
 28 26  1  0  0  0  0
 28 24  1  0  0  0  0
 29 19  1  0  0  0  0
M  END
