pdbs/div5-1492b.pdb
 OpenBabel07211515343D

 32 35  0  0  1  0  0  0  0  0999 V2000
    1.1200   -0.6530   -1.0000 C   0  0  0  0  0  0  0  0  0  0  0  0
    2.0090   -1.3140   -0.5270 O   0  0  0  0  0  0  0  0  0  0  0  0
    0.1450   -0.1670   -0.1740 N   0  0  0  0  0  0  0  0  0  0  0  0
    0.2330   -0.4210    0.8120 H   0  0  0  0  0  0  0  0  0  0  0  0
   -1.0810    0.5450   -0.5720 C   0  0  1  0  0  0  0  0  0  0  0  0
   -2.2270   -0.4690   -0.6680 C   0  0  0  0  0  0  0  0  0  0  0  0
   -2.3630   -1.1540    0.6940 C   0  0  0  0  0  0  0  0  0  0  0  0
   -2.3820   -0.1820    1.8870 C   0  0  2  0  0  0  0  0  0  0  0  0
   -3.8130    0.3010    2.1750 C   0  0  0  0  0  0  0  0  0  0  0  0
   -1.5090    0.9000    1.7510 O   0  0  0  0  0  0  0  0  0  0  0  0
   -1.3970    1.5650    0.5300 C   0  0  0  0  0  0  0  0  0  0  0  0
   -2.5940    2.4760    0.2240 C   0  0  0  0  0  0  0  0  0  0  0  0
   -0.1920    2.5170    0.7000 C   0  0  0  0  0  0  0  0  0  0  0  0
   -1.9020   -0.9530    3.1480 C   0  0  0  0  0  0  0  0  0  0  0  0
   -0.5090   -1.3950    3.0620 N   0  0  0  0  0  0  0  0  0  0  0  0
    0.4420   -0.4370    3.6200 C   0  0  0  0  0  0  0  0  0  0  0  0
    0.4520   -0.6600    5.1430 C   0  0  0  0  0  0  0  0  0  0  0  0
   -0.1270   -2.0730    5.3200 C   0  0  0  0  0  0  0  0  0  0  0  0
   -0.2490   -2.5770    3.8750 C   0  0  0  0  0  0  0  0  0  0  0  0
    1.0130   -0.3130   -2.4880 C   0  0  2  0  0  0  0  0  0  0  0  0
    1.9520   -1.1450   -3.3490 C   0  0  0  0  0  0  0  0  0  0  0  0
    1.4790   -2.1080   -4.1620 C   0  0  0  0  0  0  0  0  0  0  0  0
    2.3040   -2.8440   -4.9230 C   0  0  0  0  0  0  0  0  0  0  0  0
    3.6270   -2.6290   -4.8810 C   0  0  0  0  0  0  0  0  0  0  0  0
    4.1160   -1.6760   -4.0740 C   0  0  0  0  0  0  0  0  0  0  0  0
    3.2830   -0.9440   -3.3170 C   0  0  0  0  0  0  0  0  0  0  0  0
    1.2240    1.1570   -2.8020 C   0  0  0  0  0  0  0  0  0  0  0  0
    2.0040    1.9430   -2.0360 C   0  0  0  0  0  0  0  0  0  0  0  0
    2.1810    3.2410   -2.3280 C   0  0  0  0  0  0  0  0  0  0  0  0
    1.5790    3.7760   -3.4010 C   0  0  0  0  0  0  0  0  0  0  0  0
    0.8060    3.0040   -4.1800 C   0  0  0  0  0  0  0  0  0  0  0  0
    0.6360    1.7070   -3.8810 C   0  0  0  0  0  0  0  0  0  0  0  0
  1  2  2  0  0  0  0
  1  3  1  0  0  0  0
  3  4  1  0  0  0  0
  5  3  1  1  0  0  0
  5 11  1  0  0  0  0
  6  5  1  0  0  0  0
  6  7  1  0  0  0  0
  7  8  1  0  0  0  0
  8  9  1  1  0  0  0
  8 14  1  0  0  0  0
 10  8  1  0  0  0  0
 11 13  1  0  0  0  0
 11 10  1  0  0  0  0
 12 11  1  0  0  0  0
 15 14  1  0  0  0  0
 15 16  1  0  0  0  0
 15 19  1  0  0  0  0
 16 17  1  0  0  0  0
 17 18  1  0  0  0  0
 19 18  1  0  0  0  0
 20 21  1  1  0  0  0
 20  1  1  0  0  0  0
 21 26  1  0  0  0  0
 22 21  2  0  0  0  0
 23 24  2  0  0  0  0
 23 22  1  0  0  0  0
 24 25  1  0  0  0  0
 25 26  2  0  0  0  0
 27 20  1  0  0  0  0
 27 28  2  0  0  0  0
 29 28  1  0  0  0  0
 30 29  2  0  0  0  0
 31 32  2  0  0  0  0
 31 30  1  0  0  0  0
 32 27  1  0  0  0  0
M  END
