pdbs/div5-1156.pdb
 OpenBabel07211515343D

 25 27  0  0  0  0  0  0  0  0999 V2000
   -2.2040    2.4350    0.2920 O   0  0  0  0  0  0  0  0  0  0  0  0
   -1.1360    0.3590    0.0540 N   0  0  0  0  0  0  0  0  0  0  0  0
    0.0000   -1.6700   -0.1510 O   0  0  0  0  0  0  0  0  0  0  0  0
    1.2560    0.2940   -0.0090 N   0  0  0  0  0  0  0  0  0  0  0  0
    2.4470    2.3120    0.1370 O   0  0  0  0  0  0  0  0  0  0  0  0
    0.0370   -0.4390   -0.0450 C   0  0  0  0  0  0  0  0  0  0  0  0
    2.8840   -0.9490   -1.3420 C   0  0  0  0  0  0  0  0  0  0  0  0
    4.0780   -1.6600   -1.4340 C   0  0  0  0  0  0  0  0  0  0  0  0
    2.4670   -0.4530   -0.1040 C   0  0  0  0  0  0  0  0  0  0  0  0
    4.8650   -1.8530   -0.2990 C   0  0  0  0  0  0  0  0  0  0  0  0
    3.2580   -0.6420    1.0320 C   0  0  0  0  0  0  0  0  0  0  0  0
    4.4620   -1.3360    0.9310 C   0  0  0  0  0  0  0  0  0  0  0  0
   -3.1600   -0.2870   -1.1490 C   0  0  0  0  0  0  0  0  0  0  0  0
   -4.4010   -0.9200   -1.1740 C   0  0  0  0  0  0  0  0  0  0  0  0
   -2.3880   -0.3180    0.0160 C   0  0  0  0  0  0  0  0  0  0  0  0
   -2.8620   -0.9700    1.1560 C   0  0  0  0  0  0  0  0  0  0  0  0
   -4.8630   -1.5920   -0.0440 C   0  0  0  0  0  0  0  0  0  0  0  0
   -4.0960   -1.6170    1.1200 C   0  0  0  0  0  0  0  0  0  0  0  0
    1.3930    1.6800    0.1100 C   0  0  0  0  0  0  0  0  0  0  0  0
    0.1200    2.4080    0.2180 C   0  0  0  0  0  0  0  0  0  0  0  0
   -1.1900    1.7480    0.1940 C   0  0  0  0  0  0  0  0  0  0  0  0
   -6.1850   -2.3050   -0.0850 C   0  0  0  0  0  0  0  0  0  0  0  0
    0.1580    3.7350    0.3470 C   0  0  0  0  0  0  0  0  0  0  0  0
   -1.0720    4.5040    0.4550 N   0  0  0  0  0  0  0  0  0  0  0  0
    6.1440   -2.6350   -0.4010 C   0  0  0  0  0  0  0  0  0  0  0  0
  2 21  1  0  0  0  0
  3  6  2  0  0  0  0
  4 19  1  0  0  0  0
  6  4  1  0  0  0  0
  6  2  1  0  0  0  0
  7  9  1  0  0  0  0
  8  7  2  0  0  0  0
  8 10  1  0  0  0  0
  9  4  1  0  0  0  0
  9 11  2  0  0  0  0
 10 12  2  0  0  0  0
 12 11  1  0  0  0  0
 13 15  1  0  0  0  0
 14 13  2  0  0  0  0
 14 17  1  0  0  0  0
 15  2  1  0  0  0  0
 15 16  2  0  0  0  0
 17 18  2  0  0  0  0
 18 16  1  0  0  0  0
 19  5  2  0  0  0  0
 19 20  1  0  0  0  0
 20 23  2  0  0  0  0
 21 20  1  0  0  0  0
 21  1  2  0  0  0  0
 22 17  1  0  0  0  0
 23 24  1  0  0  0  0
 25 10  1  0  0  0  0
M  END
