pdbs/div5-1511.pdb
 OpenBabel07211515343D

 36 37  0  0  1  0  0  0  0  0999 V2000
   -7.8780    0.9320   -0.0480 O   0  0  0  0  0  0  0  0  0  0  0  0
   -1.9210    1.1850   -1.5500 F   0  0  0  0  0  0  0  0  0  0  0  0
    2.9750   -0.4470   -0.6140 O   0  0  0  0  0  0  0  0  0  0  0  0
    3.2740    0.8430    1.3490 O   0  0  0  0  0  0  0  0  0  0  0  0
    3.9370    0.1600    0.2740 C   0  0  1  0  0  0  0  0  0  0  0  0
    1.8420   -0.6980    0.1930 C   0  0  1  0  0  0  0  0  0  0  0  0
    2.0580    0.1570    1.4190 C   0  0  2  0  0  0  0  0  0  0  0  0
    0.5460   -0.2030   -0.4610 C   0  0  2  0  0  0  0  0  0  0  0  0
   -0.5650   -1.4410   -0.4980 C   0  0  0  0  0  0  0  0  0  0  0  0
   -2.0160   -1.0670   -0.8170 C   0  0  0  0  0  0  0  0  0  0  0  0
    0.7790    0.9120    1.6930 C   0  0  0  0  0  0  0  0  0  0  0  0
   -0.0400    0.9320    0.4050 C   0  0  2  0  0  0  0  0  0  0  0  0
   -2.3600    0.4060   -0.5120 C   0  0  1  0  0  0  0  0  0  0  0  0
   -1.5190    0.7520    0.7230 C   0  0  2  0  0  0  0  0  0  0  0  0
   -3.8450    0.6640   -0.3930 C   0  0  1  0  0  0  0  0  0  0  0  0
   -4.7390   -0.6890   -0.5870 C   0  0  0  0  0  0  0  0  0  0  0  0
   -6.0550   -0.5740   -0.3990 C   0  0  0  0  0  0  0  0  0  0  0  0
   -2.0490    2.0320    1.3770 C   0  0  0  0  0  0  0  0  0  0  0  0
   -4.4320    1.4430    0.7250 C   0  0  0  0  0  0  0  0  0  0  0  0
   -6.6630    0.7960   -0.1450 C   0  0  0  0  0  0  0  0  0  0  0  0
   -3.5210    2.0240    1.7560 C   0  0  0  0  0  0  0  0  0  0  0  0
   -5.7550    1.4030    0.9050 C   0  0  0  0  0  0  0  0  0  0  0  0
   -2.7170   -1.8190   -1.7250 O   0  0  0  0  0  0  0  0  0  0  0  0
   -4.7090   -0.7260   -0.6030 C   0  0  0  0  0  0  0  0  0  0  0  0
   -0.5500   -1.4240   -0.4980 C   0  0  0  0  0  0  0  0  0  0  0  0
    4.8000   -0.9510    0.8860 C   0  0  0  0  0  0  0  0  0  0  0  0
    4.8440    1.0860   -0.4920 C   0  0  0  0  0  0  0  0  0  0  0  0
    4.4330    2.3330   -0.9590 C   0  0  0  0  0  0  0  0  0  0  0  0
    5.3480    3.1810   -1.5930 C   0  0  0  0  0  0  0  0  0  0  0  0
    6.6710    2.7850   -1.7710 C   0  0  0  0  0  0  0  0  0  0  0  0
    7.0780    1.5310   -1.3330 C   0  0  0  0  0  0  0  0  0  0  0  0
    6.1640    0.6850   -0.7000 C   0  0  0  0  0  0  0  0  0  0  0  0
    1.7050   -2.1490    0.5770 C   0  0  0  0  0  0  0  0  0  0  0  0
    2.0430   -3.0740   -0.1540 O   0  0  0  0  0  0  0  0  0  0  0  0
    1.3320   -2.4700    2.0060 C   0  0  0  0  0  0  0  0  0  0  0  0
    1.9560   -1.8380    3.0500 O   0  0  0  0  0  0  0  0  0  0  0  0
  3  6  1  0  0  0  0
  3  5  1  0  0  0  0
  5 27  1  6  0  0  0
  5 26  1  0  0  0  0
  5  4  1  0  0  0  0
  6 33  1  1  0  0  0
  6  7  1  0  0  0  0
  7  4  1  6  0  0  0
  7 11  1  0  0  0  0
  8 25  1  1  0  0  0
  8  6  1  0  0  0  0
  8 12  1  0  0  0  0
 10  9  1  0  0  0  0
 12 14  1  0  0  0  0
 12 11  1  1  0  0  0
 13  2  1  1  0  0  0
 13 15  1  0  0  0  0
 13 14  1  0  0  0  0
 14 18  1  6  0  0  0
 15 16  1  1  0  0  0
 15 19  1  0  0  0  0
 16 17  2  0  0  0  0
 18 21  1  0  0  0  0
 19 22  2  0  0  0  0
 19 21  1  0  0  0  0
 20  1  2  0  0  0  0
 20 22  1  0  0  0  0
 23 10  1  0  0  0  0
 28 27  2  0  0  0  0
 29 28  1  0  0  0  0
 30 29  2  0  0  0  0
 30 31  1  0  0  0  0
 31 32  2  0  0  0  0
 32 27  1  0  0  0  0
 33 35  1  0  0  0  0
 34 33  2  0  0  0  0
 35 36  1  0  0  0  0
M  END
