pdbs/div5-1431.pdb
 OpenBabel07211515343D

 26 30  0  0  0  0  0  0  0  0999 V2000
   -4.7620   -2.5590    1.0120 C   0  0  0  0  0  0  0  0  0  0  0  0
   -4.7550   -1.2940    0.4330 C   0  0  0  0  0  0  0  0  0  0  0  0
   -4.7310    1.3410   -0.7730 C   0  0  0  0  0  0  0  0  0  0  0  0
   -4.7140    2.6080   -1.3480 C   0  0  0  0  0  0  0  0  0  0  0  0
   -3.5620   -0.5770    0.2330 C   0  0  0  0  0  0  0  0  0  0  0  0
   -3.5510    0.7030   -0.3510 C   0  0  0  0  0  0  0  0  0  0  0  0
   -3.5630   -3.1360    1.4040 C   0  0  0  0  0  0  0  0  0  0  0  0
   -3.5050    3.2660   -1.5150 C   0  0  0  0  0  0  0  0  0  0  0  0
   -2.3420   -1.1640    0.6330 C   0  0  0  0  0  0  0  0  0  0  0  0
   -2.3710   -2.4420    1.2140 C   0  0  0  0  0  0  0  0  0  0  0  0
   -2.3200    1.3740   -0.5200 C   0  0  0  0  0  0  0  0  0  0  0  0
   -2.3270    2.6510   -1.1030 C   0  0  0  0  0  0  0  0  0  0  0  0
   -1.1140    0.7870   -0.1140 C   0  0  0  0  0  0  0  0  0  0  0  0
   -1.1240   -0.4890    0.4620 C   0  0  0  0  0  0  0  0  0  0  0  0
    0.0470    1.4440   -0.2720 N   0  0  0  0  0  0  0  0  0  0  0  0
    0.0440   -1.0390    0.8440 N   0  0  0  0  0  0  0  0  0  0  0  0
    1.2140   -0.3770    0.6880 N   0  0  0  0  0  0  0  0  0  0  0  0
    1.1720    0.8430    0.1390 C   0  0  0  0  0  0  0  0  0  0  0  0
    2.6920    1.7310   -0.0610 S   0  0  0  0  0  0  0  0  0  0  0  0
    2.1110    2.6860   -1.4680 C   0  0  0  0  0  0  0  0  0  0  0  0
    3.0020    3.6540   -2.2030 C   0  0  0  0  0  0  0  0  0  0  0  0
    4.1820    3.2120   -2.8010 C   0  0  0  0  0  0  0  0  0  0  0  0
    4.9230    4.0720   -3.6080 C   0  0  0  0  0  0  0  0  0  0  0  0
    4.4760    5.3710   -3.8340 C   0  0  0  0  0  0  0  0  0  0  0  0
    3.2900    5.8100   -3.2520 C   0  0  0  0  0  0  0  0  0  0  0  0
    2.5520    4.9520   -2.4400 C   0  0  0  0  0  0  0  0  0  0  0  0
  1  7  2  0  0  0  0
  2  1  1  0  0  0  0
  3  6  2  0  0  0  0
  4  3  1  0  0  0  0
  5  2  2  0  0  0  0
  5  9  1  0  0  0  0
  6  5  1  0  0  0  0
  8  4  2  0  0  0  0
  8 12  1  0  0  0  0
  9 10  2  0  0  0  0
 10  7  1  0  0  0  0
 11  6  1  0  0  0  0
 11 13  1  0  0  0  0
 12 11  2  0  0  0  0
 13 14  1  0  0  0  0
 14  9  1  0  0  0  0
 14 16  2  0  0  0  0
 15 13  2  0  0  0  0
 15 18  1  0  0  0  0
 17 16  1  0  0  0  0
 18 17  2  0  0  0  0
 19 18  1  0  0  0  0
 20 19  1  0  0  0  0
 21 20  1  0  0  0  0
 22 21  2  0  0  0  0
 23 22  1  0  0  0  0
 24 23  2  0  0  0  0
 24 25  1  0  0  0  0
 25 26  2  0  0  0  0
 26 21  1  0  0  0  0
M  END
