pdbs/div5-1552.pdb
 OpenBabel07211515343D

 39 43  0  0  1  0  0  0  0  0999 V2000
    2.3570    5.2030   -0.5460 O   0  0  0  0  0  0  0  0  0  0  0  0
   -2.4200    4.7950   -2.8040 O   0  0  0  0  0  0  0  0  0  0  0  0
   -1.3470    2.3270   -1.8380 C   0  0  0  0  0  0  0  0  0  0  0  0
   -0.7050    3.5860   -1.6570 C   0  0  0  0  0  0  0  0  0  0  0  0
   -0.6160    1.2340   -1.3610 C   0  0  0  0  0  0  0  0  0  0  0  0
   -1.2500   -0.1320   -1.4680 C   0  0  0  0  0  0  0  0  0  0  0  0
   -1.1730   -1.1180   -0.2880 C   0  0  2  0  0  0  0  0  0  0  0  0
   -1.3890    4.8280   -2.1410 C   0  0  0  0  0  0  0  0  0  0  0  0
   -0.8290    6.1450   -1.8270 C   0  0  0  0  0  0  0  0  0  0  0  0
   -1.5740    7.2760   -2.1820 C   0  0  0  0  0  0  0  0  0  0  0  0
   -1.0810    8.5520   -1.9340 C   0  0  0  0  0  0  0  0  0  0  0  0
    0.3480   -1.2020   -0.0840 C   0  0  0  0  0  0  0  0  0  0  0  0
    0.6410    1.3320   -0.7500 C   0  0  0  0  0  0  0  0  0  0  0  0
    0.5650    3.7030   -1.0150 C   0  0  0  0  0  0  0  0  0  0  0  0
    0.4120    6.2770   -1.2220 C   0  0  0  0  0  0  0  0  0  0  0  0
    0.1610    8.6980   -1.3300 C   0  0  0  0  0  0  0  0  0  0  0  0
    1.2600    0.0230   -0.2760 C   0  0  2  0  0  0  0  0  0  0  0  0
    1.2680    2.5650   -0.5030 C   0  0  0  0  0  0  0  0  0  0  0  0
    1.1880    5.0680   -0.8900 C   0  0  0  0  0  0  0  0  0  0  0  0
    0.8970    7.5690   -0.9790 C   0  0  0  0  0  0  0  0  0  0  0  0
    2.3660    2.6030    0.1490 O   0  0  0  0  0  0  0  0  0  0  0  0
   -2.4920    2.1230   -2.3670 O   0  0  0  0  0  0  0  0  0  0  0  0
   -1.6680   -2.2770   -0.6140 O   0  0  0  0  0  0  0  0  0  0  0  0
    2.5970   -0.2370   -0.4930 O   0  0  0  0  0  0  0  0  0  0  0  0
    3.8030   -0.8510   -0.2380 C   0  0  1  0  0  0  0  0  0  0  0  0
    3.9380   -2.2160   -0.4760 O   0  0  0  0  0  0  0  0  0  0  0  0
    5.0370   -2.9310   -0.0000 C   0  0  2  0  0  0  0  0  0  0  0  0
    6.3820   -2.2070    0.1700 C   0  0  1  0  0  0  0  0  0  0  0  0
    5.0360   -4.4570   -0.1350 C   0  0  0  0  0  0  0  0  0  0  0  0
    6.3330   -0.6850    0.3170 C   0  0  2  0  0  0  0  0  0  0  0  0
    7.4300   -2.8830    0.7320 O   0  0  0  0  0  0  0  0  0  0  0  0
    5.0750   -0.0040   -0.2090 C   0  0  0  0  0  0  0  0  0  0  0  0
    7.5780    0.0620    0.3740 N   0  0  0  0  0  0  0  0  0  0  0  0
   -1.8840   -0.6040    0.9340 C   0  0  0  0  0  0  0  0  0  0  0  0
   -3.3620   -0.3470    0.8000 C   0  0  0  0  0  0  0  0  0  0  0  0
   -1.3430   -0.3780    2.0920 N   0  0  0  0  0  0  0  0  0  0  0  0
   -0.0050   -0.6560    2.1750 O   0  0  0  0  0  0  0  0  0  0  0  0
    2.1080    7.7910   -0.3910 O   0  0  0  0  0  0  0  0  0  0  0  0
    2.9730    8.0930   -1.4450 C   0  0  0  0  0  0  0  0  0  0  0  0
  2  8  2  0  0  0  0
  3  4  1  0  0  0  0
  3  5  1  0  0  0  0
  4 14  2  0  0  0  0
  5 13  2  0  0  0  0
  6  5  1  0  0  0  0
  6  7  1  0  0  0  0
  7 23  1  6  0  0  0
  7 12  1  0  0  0  0
  7 34  1  0  0  0  0
  8  9  1  0  0  0  0
  8  4  1  0  0  0  0
  9 15  2  0  0  0  0
 10 11  2  0  0  0  0
 10  9  1  0  0  0  0
 11 16  1  0  0  0  0
 13 18  1  0  0  0  0
 13 17  1  0  0  0  0
 14 19  1  0  0  0  0
 14 18  1  0  0  0  0
 15 20  1  0  0  0  0
 15 19  1  0  0  0  0
 16 20  2  0  0  0  0
 17 24  1  6  0  0  0
 17 12  1  0  0  0  0
 18 21  2  0  0  0  0
 19  1  2  0  0  0  0
 20 38  1  0  0  0  0
 22  3  2  0  0  0  0
 25 24  1  6  0  0  0
 25 32  1  0  0  0  0
 26 25  1  0  0  0  0
 26 27  1  0  0  0  0
 27 29  1  6  0  0  0
 27 28  1  0  0  0  0
 28 30  1  0  0  0  0
 28 31  1  1  0  0  0
 30 33  1  6  0  0  0
 32 30  1  0  0  0  0
 34 36  2  0  0  0  0
 35 34  1  0  0  0  0
 36 37  1  0  0  0  0
 39 38  1  0  0  0  0
M  END
