pdbs/div5-1479.pdb
 OpenBabel07211515343D

 34 38  0  0  0  0  0  0  0  0999 V2000
    0.2510   -0.3090    1.5850 N   0  0  0  0  0  0  0  0  0  0  0  0
    1.3700   -0.2670    0.8490 C   0  0  0  0  0  0  0  0  0  0  0  0
    1.6960    0.5430   -0.0170 O   0  0  0  0  0  0  0  0  0  0  0  0
   -0.9230   -0.1330    0.9360 C   0  0  0  0  0  0  0  0  0  0  0  0
   -2.0630   -0.8220    1.3750 C   0  0  0  0  0  0  0  0  0  0  0  0
   -3.3330   -0.5620    0.8420 C   0  0  0  0  0  0  0  0  0  0  0  0
   -4.4460   -1.2600    1.3450 N   0  0  0  0  0  0  0  0  0  0  0  0
   -3.5120    0.3970   -0.1580 C   0  0  0  0  0  0  0  0  0  0  0  0
   -4.2890   -1.9410    2.0820 H   0  0  0  0  0  0  0  0  0  0  0  0
   -5.7480   -1.0600    0.9050 C   0  0  0  0  0  0  0  0  0  0  0  0
   -6.7130   -1.6700    1.3570 O   0  0  0  0  0  0  0  0  0  0  0  0
   -5.9480   -0.0530   -0.1660 C   0  0  0  0  0  0  0  0  0  0  0  0
   -4.8510    0.6530   -0.6810 C   0  0  0  0  0  0  0  0  0  0  0  0
   -7.2400    0.1700   -0.6490 C   0  0  0  0  0  0  0  0  0  0  0  0
   -5.0890    1.5890   -1.6950 C   0  0  0  0  0  0  0  0  0  0  0  0
   -6.3750    1.8140   -2.1840 C   0  0  0  0  0  0  0  0  0  0  0  0
   -7.4510    1.1040   -1.6590 C   0  0  0  0  0  0  0  0  0  0  0  0
   -2.3890    1.0900   -0.6030 C   0  0  0  0  0  0  0  0  0  0  0  0
   -1.1320    0.8430   -0.0480 C   0  0  0  0  0  0  0  0  0  0  0  0
    2.4300   -1.1890    1.3160 C   0  0  0  0  0  0  0  0  0  0  0  0
    2.9770   -2.1910    0.4950 C   0  0  0  0  0  0  0  0  0  0  0  0
    4.0120   -2.9730    1.0330 C   0  0  0  0  0  0  0  0  0  0  0  0
    2.5950   -2.4380   -0.8990 C   0  0  0  0  0  0  0  0  0  0  0  0
    4.5020   -2.7620    2.3200 C   0  0  0  0  0  0  0  0  0  0  0  0
    3.9740   -1.7440    3.1020 C   0  0  0  0  0  0  0  0  0  0  0  0
    2.9450   -0.9550    2.6000 C   0  0  0  0  0  0  0  0  0  0  0  0
    1.4860   -3.2180   -1.2780 C   0  0  0  0  0  0  0  0  0  0  0  0
    3.4370   -1.9500   -1.9140 C   0  0  0  0  0  0  0  0  0  0  0  0
    1.2590   -3.4990   -2.6320 C   0  0  0  0  0  0  0  0  0  0  0  0
    2.1120   -3.0140   -3.6180 C   0  0  0  0  0  0  0  0  0  0  0  0
    3.2020   -2.2320   -3.2580 C   0  0  0  0  0  0  0  0  0  0  0  0
    0.5140   -3.7730   -0.2940 C   0  0  0  0  0  0  0  0  0  0  0  0
    0.9260   -4.7180    0.4430 O   0  0  0  0  0  0  0  0  0  0  0  0
   -0.6500   -3.2690   -0.3120 O   0  0  0  0  0  0  0  0  0  0  0  0
  2 20  1  0  0  0  0
  2  1  1  0  0  0  0
  3  2  2  0  0  0  0
  4  5  1  0  0  0  0
  4  1  1  0  0  0  0
  6  7  1  0  0  0  0
  6  5  2  0  0  0  0
  7  9  1  0  0  0  0
  8  6  1  0  0  0  0
 10  7  1  0  0  0  0
 10 11  2  0  0  0  0
 12 10  1  0  0  0  0
 13 12  2  0  0  0  0
 13  8  1  0  0  0  0
 14 12  1  0  0  0  0
 15 13  1  0  0  0  0
 16 15  2  0  0  0  0
 16 17  1  0  0  0  0
 17 14  2  0  0  0  0
 18  8  2  0  0  0  0
 18 19  1  0  0  0  0
 19  4  2  0  0  0  0
 20 26  2  0  0  0  0
 21 22  2  0  0  0  0
 21 20  1  0  0  0  0
 22 24  1  0  0  0  0
 23 21  1  0  0  0  0
 24 25  2  0  0  0  0
 26 25  1  0  0  0  0
 27 23  1  0  0  0  0
 27 32  1  0  0  0  0
 28 23  2  0  0  0  0
 29 27  2  0  0  0  0
 30 31  2  0  0  0  0
 30 29  1  0  0  0  0
 31 28  1  0  0  0  0
 32 33  1  0  0  0  0
 34 32  2  0  0  0  0
M  END
