pdbs/div5-1414.pdb
 OpenBabel07211515343D

 30 34  0  0  0  0  0  0  0  0999 V2000
   -1.6090   -0.5880    2.0910 O   0  0  0  0  0  0  0  0  0  0  0  0
    1.3660    1.3060   -1.8070 O   0  0  0  0  0  0  0  0  0  0  0  0
   -2.9050   -0.2540   -0.4720 C   0  0  0  0  0  0  0  0  0  0  0  0
   -3.4540    0.1310   -1.7000 C   0  0  0  0  0  0  0  0  0  0  0  0
   -1.5400   -0.0660   -0.2170 C   0  0  0  0  0  0  0  0  0  0  0  0
   -0.9270   -0.3850    1.0950 C   0  0  0  0  0  0  0  0  0  0  0  0
    0.5410   -0.4790    1.1790 C   0  0  0  0  0  0  0  0  0  0  0  0
    1.1040   -1.0600    2.3180 C   0  0  0  0  0  0  0  0  0  0  0  0
    2.4800   -1.2500    2.3970 C   0  0  0  0  0  0  0  0  0  0  0  0
   -2.6380    0.6570   -2.6970 C   0  0  0  0  0  0  0  0  0  0  0  0
   -0.7310    0.4500   -1.2310 C   0  0  0  0  0  0  0  0  0  0  0  0
    1.3500   -0.0630    0.1200 C   0  0  0  0  0  0  0  0  0  0  0  0
    3.2890   -0.8970    1.3210 C   0  0  0  0  0  0  0  0  0  0  0  0
   -1.2760    0.8110   -2.4650 C   0  0  0  0  0  0  0  0  0  0  0  0
    0.7180    0.6120   -1.0350 C   0  0  0  0  0  0  0  0  0  0  0  0
    2.7260   -0.3240    0.1770 C   0  0  0  0  0  0  0  0  0  0  0  0
   -3.7420   -0.7710    0.4910 O   0  0  0  0  0  0  0  0  0  0  0  0
   -4.2250   -2.0260    0.2010 C   0  0  0  0  0  0  0  0  0  0  0  0
   -3.3890   -3.1420    0.2330 C   0  0  0  0  0  0  0  0  0  0  0  0
   -3.9250   -4.4050   -0.0040 C   0  0  0  0  0  0  0  0  0  0  0  0
   -5.2910   -4.5520   -0.2380 C   0  0  0  0  0  0  0  0  0  0  0  0
   -6.1260   -3.4360   -0.2330 C   0  0  0  0  0  0  0  0  0  0  0  0
   -5.5950   -2.1690   -0.0070 C   0  0  0  0  0  0  0  0  0  0  0  0
    3.5910   -0.0610   -0.8600 O   0  0  0  0  0  0  0  0  0  0  0  0
    3.4930   -0.8900   -1.9590 C   0  0  0  0  0  0  0  0  0  0  0  0
    3.9090   -0.3530   -3.1760 C   0  0  0  0  0  0  0  0  0  0  0  0
    3.7960   -1.1060   -4.3420 C   0  0  0  0  0  0  0  0  0  0  0  0
    3.2610   -2.3910   -4.2930 C   0  0  0  0  0  0  0  0  0  0  0  0
    2.8630   -2.9360   -3.0750 C   0  0  0  0  0  0  0  0  0  0  0  0
    2.9910   -2.1910   -1.9050 C   0  0  0  0  0  0  0  0  0  0  0  0
  2 15  2  0  0  0  0
  3  5  1  0  0  0  0
  3 17  1  0  0  0  0
  4  3  2  0  0  0  0
  5  6  1  0  0  0  0
  6  7  1  0  0  0  0
  6  1  2  0  0  0  0
  7  8  2  0  0  0  0
  8  9  1  0  0  0  0
 10 14  2  0  0  0  0
 10  4  1  0  0  0  0
 11 15  1  0  0  0  0
 11  5  2  0  0  0  0
 12 16  2  0  0  0  0
 12  7  1  0  0  0  0
 13  9  2  0  0  0  0
 14 11  1  0  0  0  0
 15 12  1  0  0  0  0
 16 13  1  0  0  0  0
 18 19  1  0  0  0  0
 18 17  1  0  0  0  0
 20 19  2  0  0  0  0
 21 22  2  0  0  0  0
 21 20  1  0  0  0  0
 22 23  1  0  0  0  0
 23 18  2  0  0  0  0
 24 16  1  0  0  0  0
 25 30  1  0  0  0  0
 25 24  1  0  0  0  0
 26 25  2  0  0  0  0
 27 28  2  0  0  0  0
 27 26  1  0  0  0  0
 28 29  1  0  0  0  0
 29 30  2  0  0  0  0
M  END
