pdbs/div5-1126.pdb
 OpenBabel07211515343D

 24 27  0  0  1  0  0  0  0  0999 V2000
   -0.0890    0.4810    0.0520 N   0  0  0  0  0  0  0  0  0  0  0  0
    0.4080   -3.5290   -0.9800 C   0  0  0  0  0  0  0  0  0  0  0  0
    0.4080   -3.1550    0.3690 C   0  0  0  0  0  0  0  0  0  0  0  0
    0.2400   -2.5670   -1.9640 C   0  0  0  0  0  0  0  0  0  0  0  0
    0.2450   -1.8340    0.8240 C   0  0  0  0  0  0  0  0  0  0  0  0
    0.0760   -1.2420   -1.5920 C   0  0  0  0  0  0  0  0  0  0  0  0
    0.0790   -0.8990   -0.2290 C   0  0  2  0  0  0  0  0  0  0  0  0
    2.9450   -0.0610   -0.3230 C   0  0  0  0  0  0  0  0  0  0  0  0
    2.4000    1.1750    0.0250 C   0  0  0  0  0  0  0  0  0  0  0  0
    4.3220   -0.2460   -0.4330 C   0  0  0  0  0  0  0  0  0  0  0  0
    5.1840    0.8200   -0.2010 C   0  0  0  0  0  0  0  0  0  0  0  0
    3.2870    2.2340    0.2520 C   0  0  0  0  0  0  0  0  0  0  0  0
    0.9520    1.4140    0.1560 C   0  0  0  0  0  0  0  0  0  0  0  0
    0.3510    2.6310    0.4220 C   0  0  0  0  0  0  0  0  0  0  0  0
   -1.0350    2.4520    0.4740 C   0  0  0  0  0  0  0  0  0  0  0  0
   -2.9180   -0.7720   -0.2590 C   0  0  0  0  0  0  0  0  0  0  0  0
   -2.6670    0.5190    0.2060 C   0  0  0  0  0  0  0  0  0  0  0  0
   -4.2110   -1.2910   -0.3060 C   0  0  0  0  0  0  0  0  0  0  0  0
   -3.7650    1.2880    0.6120 C   0  0  0  0  0  0  0  0  0  0  0  0
   -1.3230    1.1190    0.2400 C   0  0  0  0  0  0  0  0  0  0  0  0
   -5.2860   -0.5090    0.1000 C   0  0  0  0  0  0  0  0  0  0  0  0
    4.6660    2.0640    0.1400 C   0  0  0  0  0  0  0  0  0  0  0  0
   -5.0640    0.7840    0.5590 C   0  0  0  0  0  0  0  0  0  0  0  0
    0.2550   -1.5580    2.0710 O   0  0  0  0  0  0  0  0  0  0  0  0
  1 13  1  0  0  0  0
  1 20  1  0  0  0  0
  2  3  2  0  0  0  0
  3  5  1  0  0  0  0
  4  6  2  0  0  0  0
  4  2  1  0  0  0  0
  5 24  2  0  0  0  0
  6  7  1  0  0  0  0
  7  1  1  6  0  0  0
  7  5  1  0  0  0  0
  8  9  1  0  0  0  0
  9 13  1  0  0  0  0
  9 12  2  0  0  0  0
 10  8  2  0  0  0  0
 10 11  1  0  0  0  0
 11 22  2  0  0  0  0
 13 14  2  0  0  0  0
 14 15  1  0  0  0  0
 16 17  1  0  0  0  0
 17 20  1  0  0  0  0
 17 19  2  0  0  0  0
 18 16  2  0  0  0  0
 18 21  1  0  0  0  0
 20 15  2  0  0  0  0
 21 23  2  0  0  0  0
 22 12  1  0  0  0  0
 23 19  1  0  0  0  0
M  END
