pdbs/div5-1456.pdb
 OpenBabel07211515343D

 32 33  0  0  1  0  0  0  0  0999 V2000
   -0.8650    0.8510    2.4790 O   0  0  0  0  0  0  0  0  0  0  0  0
   -0.8670   -1.0090   -3.0850 O   0  0  0  0  0  0  0  0  0  0  0  0
    2.9110   -0.0320   -0.3180 C   0  0  2  0  0  0  0  0  0  0  0  0
    2.4790    0.5360   -1.6720 C   0  0  0  0  0  0  0  0  0  0  0  0
    1.6220   -0.5770    0.3000 C   0  0  1  0  0  0  0  0  0  0  0  0
    0.9190    0.5600    1.0070 C   0  0  0  0  0  0  0  0  0  0  0  0
   -0.4820    0.3020    1.4520 C   0  0  0  0  0  0  0  0  0  0  0  0
    1.0730    0.0580   -1.9620 C   0  0  0  0  0  0  0  0  0  0  0  0
    0.7390   -0.9660   -0.8760 C   0  0  2  0  0  0  0  0  0  0  0  0
   -1.4230   -0.4210    0.5140 C   0  0  2  0  0  0  0  0  0  0  0  0
   -0.7500   -1.1290   -0.6780 C   0  0  1  0  0  0  0  0  0  0  0  0
   -2.5000    0.5970    0.1890 C   0  0  2  0  0  0  0  0  0  0  0  0
   -3.0870    1.0900    1.5170 C   0  0  0  0  0  0  0  0  0  0  0  0
   -3.8660    0.0420    2.2970 C   0  0  0  0  0  0  0  0  0  0  0  0
   -1.3830   -0.7510   -2.0030 C   0  0  0  0  0  0  0  0  0  0  0  0
   -3.5560    0.1430   -0.7960 C   0  0  1  0  0  0  0  0  0  0  0  0
   -4.8770   -0.7470    1.4530 C   0  0  0  0  0  0  0  0  0  0  0  0
   -2.8530   -0.4540   -2.0180 C   0  0  0  0  0  0  0  0  0  0  0  0
   -4.5100   -0.9450   -0.3440 C   0  0  0  0  0  0  0  0  0  0  0  0
   -5.6250   -1.7270    2.0380 O   0  0  0  0  0  0  0  0  0  0  0  0
   -4.8750   -0.7480    1.4450 C   0  0  0  0  0  0  0  0  0  0  0  0
   -4.8750   -0.7480    1.4460 C   0  0  0  0  0  0  0  0  0  0  0  0
   -1.8690    1.8950   -0.3280 C   0  0  0  0  0  0  0  0  0  0  0  0
    1.9380   -1.8070    1.1460 C   0  0  0  0  0  0  0  0  0  0  0  0
    1.3300   -2.1920   -1.5970 C   0  0  0  0  0  0  0  0  0  0  0  0
    3.4990    1.0710    0.5180 C   0  0  2  0  0  0  0  0  0  0  0  0
    4.3400    0.4560    1.6410 C   0  0  0  0  0  0  0  0  0  0  0  0
    2.3540    1.9520    1.0520 C   0  0  0  0  0  0  0  0  0  0  0  0
    2.1810    3.4400    0.6930 C   0  0  0  0  0  0  0  0  0  0  0  0
    3.3260    4.2480    0.1430 C   0  0  0  0  0  0  0  0  0  0  0  0
    4.0630    4.8290    0.9940 O   0  0  0  0  0  0  0  0  0  0  0  0
    3.5510    4.1170   -1.0970 O   0  0  0  0  0  0  0  0  0  0  0  0
  2 15  2  0  0  0  0
  3  4  1  1  0  0  0
  3  5  1  0  0  0  0
  3 26  1  0  0  0  0
  5  6  1  0  0  0  0
  5 24  1  1  0  0  0
  6  7  1  0  0  0  0
  7  1  2  0  0  0  0
  8  4  1  0  0  0  0
  8  9  1  0  0  0  0
  9 25  1  6  0  0  0
  9 11  1  0  0  0  0
  9  5  1  0  0  0  0
 10  7  1  6  0  0  0
 11 15  1  6  0  0  0
 11 10  1  0  0  0  0
 12 23  1  6  0  0  0
 12 10  1  0  0  0  0
 12 13  1  0  0  0  0
 13 14  1  0  0  0  0
 16 19  1  1  0  0  0
 16 12  1  0  0  0  0
 17 20  1  0  0  0  0
 17 14  1  0  0  0  0
 18 15  1  0  0  0  0
 18 16  1  0  0  0  0
 19 21  1  0  0  0  0
 26 28  1  1  0  0  0
 26 27  1  0  0  0  0
 29 28  1  0  0  0  0
 30 29  1  0  0  0  0
 30 31  1  0  0  0  0
 32 30  2  0  0  0  0
M  END
