pdbs/ncv1.pdb
 OpenBabel07211515353D

 22 23  0  0  0  0  0  0  0  0999 V2000
    0.2990   -0.4630    0.1280 C   0  0  0  0  0  0  0  0  0  0  0  0
   -0.5920   -1.4470    0.3900 C   0  0  0  0  0  0  0  0  0  0  0  0
    1.6620   -0.5590    0.1570 C   0  0  0  0  0  0  0  0  0  0  0  0
    2.2230   -1.5980    0.4360 O   0  0  0  0  0  0  0  0  0  0  0  0
    2.3650    0.5740   -0.1460 C   0  0  0  0  0  0  0  0  0  0  0  0
    3.7110    0.6480   -0.1630 C   0  0  0  0  0  0  0  0  0  0  0  0
    4.4770    1.7240   -0.4510 C   0  0  0  0  0  0  0  0  0  0  0  0
    5.8200    1.5930   -0.4130 C   0  0  0  0  0  0  0  0  0  0  0  0
    6.6430    2.6180   -0.6860 C   0  0  0  0  0  0  0  0  0  0  0  0
    6.1380    3.8160   -1.0090 C   0  0  0  0  0  0  0  0  0  0  0  0
    4.8080    3.9720   -1.0540 C   0  0  0  0  0  0  0  0  0  0  0  0
    3.9940    2.9400   -0.7780 C   0  0  0  0  0  0  0  0  0  0  0  0
   -1.9070   -1.1400    0.3050 C   0  0  0  0  0  0  0  0  0  0  0  0
   -2.9000   -2.0200    0.5390 C   0  0  0  0  0  0  0  0  0  0  0  0
   -4.2330   -1.8030    0.4770 C   0  0  0  0  0  0  0  0  0  0  0  0
   -5.0700   -2.8260    0.7500 C   0  0  0  0  0  0  0  0  0  0  0  0
   -6.4040   -2.6840    0.7080 C   0  0  0  0  0  0  0  0  0  0  0  0
   -6.9430   -1.5000    0.3880 C   0  0  0  0  0  0  0  0  0  0  0  0
   -6.1330   -0.4690    0.1120 C   0  0  0  0  0  0  0  0  0  0  0  0
   -4.8000   -0.6220    0.1580 C   0  0  0  0  0  0  0  0  0  0  0  0
   -0.2220   -2.7160    0.7310 O   0  0  0  0  0  0  0  0  0  0  0  0
    0.7330   -2.8490    0.7680 H   0  0  0  0  0  0  0  0  0  0  0  0
  1  3  1  0  0  0  0
  1  2  2  0  0  0  0
  2 21  1  0  0  0  0
  3  4  2  0  0  0  0
  5  3  1  0  0  0  0
  6  5  2  0  0  0  0
  7  8  1  0  0  0  0
  7  6  1  0  0  0  0
  9  8  2  0  0  0  0
 10  9  1  0  0  0  0
 11 10  2  0  0  0  0
 11 12  1  0  0  0  0
 12  7  2  0  0  0  0
 13  2  1  0  0  0  0
 13 14  2  0  0  0  0
 15 14  1  0  0  0  0
 15 16  2  0  0  0  0
 17 16  1  0  0  0  0
 18 17  2  0  0  0  0
 19 20  2  0  0  0  0
 19 18  1  0  0  0  0
 20 15  1  0  0  0  0
 21 22  1  0  0  0  0
M  END
