pdbs/ncv1a.pdb
 OpenBabel07211515353D

 26 27  0  0  0  0  0  0  0  0999 V2000
    0.6600   -0.8120    0.2210 C   0  0  0  0  0  0  0  0  0  0  0  0
    1.2090   -1.8560    0.5020 O   0  0  0  0  0  0  0  0  0  0  0  0
    1.3750    0.3140   -0.0800 C   0  0  0  0  0  0  0  0  0  0  0  0
    2.7220    0.3750   -0.0930 C   0  0  0  0  0  0  0  0  0  0  0  0
    3.5000    1.4430   -0.3780 C   0  0  0  0  0  0  0  0  0  0  0  0
    4.8430    1.3120   -0.3400 C   0  0  0  0  0  0  0  0  0  0  0  0
    5.7120    2.3100   -0.6060 C   0  0  0  0  0  0  0  0  0  0  0  0
    5.1950    3.5140   -0.9280 C   0  0  0  0  0  0  0  0  0  0  0  0
    3.8630    3.6700   -0.9710 C   0  0  0  0  0  0  0  0  0  0  0  0
    3.0260    2.6590   -0.7030 C   0  0  0  0  0  0  0  0  0  0  0  0
    7.0830    2.1920   -0.5720 O   0  0  0  0  0  0  0  0  0  0  0  0
    7.6620    0.9510   -0.2410 C   0  0  0  0  0  0  0  0  0  0  0  0
    6.0070    4.5710   -1.2090 O   0  0  0  0  0  0  0  0  0  0  0  0
    5.4590    5.3450   -1.4160 H   0  0  0  0  0  0  0  0  0  0  0  0
   -0.7020   -0.7010    0.1880 C   0  0  0  0  0  0  0  0  0  0  0  0
   -1.6050   -1.6760    0.4480 C   0  0  0  0  0  0  0  0  0  0  0  0
   -2.9170   -1.3540    0.3580 C   0  0  0  0  0  0  0  0  0  0  0  0
   -3.9200   -2.2230    0.5890 C   0  0  0  0  0  0  0  0  0  0  0  0
   -5.2500   -1.9920    0.5240 C   0  0  0  0  0  0  0  0  0  0  0  0
   -6.0990   -3.0060    0.7950 C   0  0  0  0  0  0  0  0  0  0  0  0
   -7.4310   -2.8490    0.7500 C   0  0  0  0  0  0  0  0  0  0  0  0
   -7.9570   -1.6590    0.4290 C   0  0  0  0  0  0  0  0  0  0  0  0
   -7.1350   -0.6360    0.1560 C   0  0  0  0  0  0  0  0  0  0  0  0
   -5.8030   -0.8040    0.2040 C   0  0  0  0  0  0  0  0  0  0  0  0
   -1.2500   -2.9490    0.7900 O   0  0  0  0  0  0  0  0  0  0  0  0
   -0.2960   -3.0910    0.8330 H   0  0  0  0  0  0  0  0  0  0  0  0
  1  2  2  0  0  0  0
  3  1  1  0  0  0  0
  4  3  2  0  0  0  0
  5  6  1  0  0  0  0
  5  4  1  0  0  0  0
  7 11  1  0  0  0  0
  7  6  2  0  0  0  0
  8  7  1  0  0  0  0
  9  8  2  0  0  0  0
  9 10  1  0  0  0  0
 10  5  2  0  0  0  0
 11 12  1  0  0  0  0
 13  8  1  0  0  0  0
 14 13  1  0  0  0  0
 15  1  1  0  0  0  0
 15 16  2  0  0  0  0
 16 25  1  0  0  0  0
 17 16  1  0  0  0  0
 17 18  2  0  0  0  0
 19 18  1  0  0  0  0
 19 20  2  0  0  0  0
 21 20  1  0  0  0  0
 22 21  2  0  0  0  0
 23 24  2  0  0  0  0
 23 22  1  0  0  0  0
 24 19  1  0  0  0  0
 25 26  1  0  0  0  0
M  END
