pdbs/ncv1mo.pdb
 OpenBabel07211515353D

 26 27  0  0  0  0  0  0  0  0999 V2000
    0.3580   -0.6160    0.1650 C   0  0  0  0  0  0  0  0  0  0  0  0
   -0.5340   -1.6000    0.4260 C   0  0  0  0  0  0  0  0  0  0  0  0
    1.7210   -0.7130    0.1930 C   0  0  0  0  0  0  0  0  0  0  0  0
    2.2810   -1.7530    0.4720 O   0  0  0  0  0  0  0  0  0  0  0  0
    2.4260    0.4200   -0.1080 C   0  0  0  0  0  0  0  0  0  0  0  0
    3.7710    0.4910   -0.1250 C   0  0  0  0  0  0  0  0  0  0  0  0
    4.5390    1.5670   -0.4100 C   0  0  0  0  0  0  0  0  0  0  0  0
    5.8810    1.4390   -0.3740 C   0  0  0  0  0  0  0  0  0  0  0  0
    6.7000    2.4670   -0.6460 C   0  0  0  0  0  0  0  0  0  0  0  0
    6.2170    3.6770   -0.9700 C   0  0  0  0  0  0  0  0  0  0  0  0
    4.8820    3.8120   -1.0080 C   0  0  0  0  0  0  0  0  0  0  0  0
    4.0620    2.7850   -0.7350 C   0  0  0  0  0  0  0  0  0  0  0  0
    7.0390    4.7250   -1.2480 O   0  0  0  0  0  0  0  0  0  0  0  0
    6.4990    5.5050   -1.4560 H   0  0  0  0  0  0  0  0  0  0  0  0
   -1.8490   -1.2910    0.3410 C   0  0  0  0  0  0  0  0  0  0  0  0
   -2.8410   -2.1720    0.5750 C   0  0  0  0  0  0  0  0  0  0  0  0
   -4.1730   -1.9550    0.5140 C   0  0  0  0  0  0  0  0  0  0  0  0
   -5.0140   -2.9750    0.7850 C   0  0  0  0  0  0  0  0  0  0  0  0
   -6.3470   -2.8260    0.7430 C   0  0  0  0  0  0  0  0  0  0  0  0
   -6.9090   -1.6480    0.4280 C   0  0  0  0  0  0  0  0  0  0  0  0
   -6.0790   -0.6290    0.1580 C   0  0  0  0  0  0  0  0  0  0  0  0
   -4.7450   -0.7760    0.1990 C   0  0  0  0  0  0  0  0  0  0  0  0
   -8.2590   -1.4880    0.3830 O   0  0  0  0  0  0  0  0  0  0  0  0
   -8.4600   -0.5700    0.1380 H   0  0  0  0  0  0  0  0  0  0  0  0
   -0.1650   -2.8690    0.7650 O   0  0  0  0  0  0  0  0  0  0  0  0
    0.7900   -3.0040    0.8020 H   0  0  0  0  0  0  0  0  0  0  0  0
  1  3  1  0  0  0  0
  1  2  2  0  0  0  0
  2 25  1  0  0  0  0
  3  4  2  0  0  0  0
  5  3  1  0  0  0  0
  6  5  2  0  0  0  0
  7  8  1  0  0  0  0
  7  6  1  0  0  0  0
  9  8  2  0  0  0  0
 10  9  1  0  0  0  0
 11 10  2  0  0  0  0
 11 12  1  0  0  0  0
 12  7  2  0  0  0  0
 13 10  1  0  0  0  0
 14 13  1  0  0  0  0
 15  2  1  0  0  0  0
 15 16  2  0  0  0  0
 17 16  1  0  0  0  0
 17 18  2  0  0  0  0
 19 18  1  0  0  0  0
 20 19  2  0  0  0  0
 21 22  2  0  0  0  0
 21 20  1  0  0  0  0
 22 17  1  0  0  0  0
 23 20  1  0  0  0  0
 24 23  1  0  0  0  0
 25 26  1  0  0  0  0
M  END
