pdbs/ncv1h.pdb
 OpenBabel07211515353D

 26 27  0  0  0  0  0  0  0  0999 V2000
    0.2950   -0.2270    0.0730 C   0  0  0  0  0  0  0  0  0  0  0  0
   -0.6110   -1.1970    0.3340 C   0  0  0  0  0  0  0  0  0  0  0  0
    1.6570   -0.3420    0.1090 C   0  0  0  0  0  0  0  0  0  0  0  0
    2.2020   -1.3870    0.3960 O   0  0  0  0  0  0  0  0  0  0  0  0
    2.3770    0.7810   -0.1940 C   0  0  0  0  0  0  0  0  0  0  0  0
    3.7240    0.8360   -0.2060 C   0  0  0  0  0  0  0  0  0  0  0  0
    4.5080    1.9000   -0.4930 C   0  0  0  0  0  0  0  0  0  0  0  0
    5.8510    1.7550   -0.4520 C   0  0  0  0  0  0  0  0  0  0  0  0
    6.7280    2.7450   -0.7190 C   0  0  0  0  0  0  0  0  0  0  0  0
    6.1960    3.9370   -1.0440 C   0  0  0  0  0  0  0  0  0  0  0  0
    4.8720    4.1280   -1.0980 C   0  0  0  0  0  0  0  0  0  0  0  0
    4.0360    3.1160   -0.8240 C   0  0  0  0  0  0  0  0  0  0  0  0
    8.0990    2.6320   -0.6870 O   0  0  0  0  0  0  0  0  0  0  0  0
    8.6770    1.3910   -0.3560 C   0  0  0  0  0  0  0  0  0  0  0  0
   -1.9220   -0.8710    0.2390 C   0  0  0  0  0  0  0  0  0  0  0  0
   -2.9290   -1.7360    0.4700 C   0  0  0  0  0  0  0  0  0  0  0  0
   -4.2570   -1.4990    0.3980 C   0  0  0  0  0  0  0  0  0  0  0  0
   -5.1170   -2.5040    0.6670 C   0  0  0  0  0  0  0  0  0  0  0  0
   -6.4610   -2.3930    0.6300 C   0  0  0  0  0  0  0  0  0  0  0  0
   -6.9490   -1.1830    0.2980 C   0  0  0  0  0  0  0  0  0  0  0  0
   -6.1320   -0.1570    0.0220 C   0  0  0  0  0  0  0  0  0  0  0  0
   -4.8010   -0.3120    0.0720 C   0  0  0  0  0  0  0  0  0  0  0  0
   -7.2220   -3.5000    0.9280 O   0  0  0  0  0  0  0  0  0  0  0  0
   -8.6260   -3.3880    0.8920 C   0  0  0  0  0  0  0  0  0  0  0  0
   -0.2610   -2.4700    0.6820 O   0  0  0  0  0  0  0  0  0  0  0  0
    0.6920   -2.6150    0.7260 H   0  0  0  0  0  0  0  0  0  0  0  0
  1  3  1  0  0  0  0
  1  2  2  0  0  0  0
  2 25  1  0  0  0  0
  3  4  2  0  0  0  0
  5  3  1  0  0  0  0
  6  5  2  0  0  0  0
  7  8  1  0  0  0  0
  7  6  1  0  0  0  0
  9 13  1  0  0  0  0
  9  8  2  0  0  0  0
 10  9  1  0  0  0  0
 11 10  2  0  0  0  0
 11 12  1  0  0  0  0
 12  7  2  0  0  0  0
 13 14  1  0  0  0  0
 15  2  1  0  0  0  0
 15 16  2  0  0  0  0
 17 16  1  0  0  0  0
 17 18  2  0  0  0  0
 19 18  1  0  0  0  0
 19 23  1  0  0  0  0
 20 19  2  0  0  0  0
 21 22  2  0  0  0  0
 21 20  1  0  0  0  0
 22 17  1  0  0  0  0
 24 23  1  0  0  0  0
 25 26  1  0  0  0  0
M  END
