pdbs/ncv4oh.pdb
 OpenBabel07211515353D

 15 15  0  0  0  0  0  0  0  0999 V2000
    1.5410    2.4360   -0.5810 C   0  0  0  0  0  0  0  0  0  0  0  0
    2.0030    1.2780   -0.0560 C   0  0  0  0  0  0  0  0  0  0  0  0
    1.1050    0.2870    0.1280 C   0  0  0  0  0  0  0  0  0  0  0  0
   -0.2070    0.3640   -0.1700 C   0  0  0  0  0  0  0  0  0  0  0  0
   -0.6290    1.5280   -0.6900 C   0  0  0  0  0  0  0  0  0  0  0  0
    0.2360    2.5320   -0.8850 C   0  0  0  0  0  0  0  0  0  0  0  0
   -1.0060   -0.6990    0.0610 C   0  0  0  0  0  0  0  0  0  0  0  0
   -2.3250   -0.8010   -0.1740 C   0  0  0  0  0  0  0  0  0  0  0  0
   -3.1300   -2.0410    0.1250 C   0  0  0  0  0  0  0  0  0  0  0  0
   -4.1670   -1.7490    1.0530 O   0  0  0  0  0  0  0  0  0  0  0  0
   -4.6630   -2.5510    1.2340 H   0  0  0  0  0  0  0  0  0  0  0  0
    3.3010    1.0000    0.3140 O   0  0  0  0  0  0  0  0  0  0  0  0
    4.3210    1.9580    0.1650 C   0  0  0  0  0  0  0  0  0  0  0  0
    2.3250    3.5220   -0.8230 O   0  0  0  0  0  0  0  0  0  0  0  0
    1.7850    4.2380   -1.1960 H   0  0  0  0  0  0  0  0  0  0  0  0
  1  2  2  0  0  0  0
  2  3  1  0  0  0  0
  2 12  1  0  0  0  0
  4  7  1  0  0  0  0
  4  3  2  0  0  0  0
  5  4  1  0  0  0  0
  6  5  2  0  0  0  0
  6  1  1  0  0  0  0
  8  7  2  0  0  0  0
  8  9  1  0  0  0  0
  9 10  1  0  0  0  0
 10 11  1  0  0  0  0
 13 12  1  0  0  0  0
 14  1  1  0  0  0  0
 15 14  1  0  0  0  0
M  END
