pdbs/nev1ar.pdb
 OpenBabel07211515353D

 41 44  0  0  0  0  0  0  0  0999 V2000
   -3.7620   -0.8250   -0.6870 C   0  0  0  0  0  0  0  0  0  0  0  0
   -3.4950   -2.1390   -0.7340 C   0  0  0  0  0  0  0  0  0  0  0  0
   -2.2690   -2.6410   -0.5010 C   0  0  0  0  0  0  0  0  0  0  0  0
   -1.2720   -1.7770   -0.2160 C   0  0  0  0  0  0  0  0  0  0  0  0
   -1.5040   -0.4560   -0.1670 C   0  0  0  0  0  0  0  0  0  0  0  0
   -2.7460    0.0040   -0.4000 C   0  0  0  0  0  0  0  0  0  0  0  0
   -0.0150   -2.1780    0.0260 C   0  0  0  0  0  0  0  0  0  0  0  0
    1.0110   -1.3510    0.3150 C   0  0  0  0  0  0  0  0  0  0  0  0
    0.7790   -0.0130    0.3890 C   0  0  0  0  0  0  0  0  0  0  0  0
   -0.4900    0.3770    0.1280 C   0  0  0  0  0  0  0  0  0  0  0  0
    1.7140    0.9280    0.7070 C   0  0  0  0  0  0  0  0  0  0  0  0
    1.6050    2.2180    0.3210 C   0  0  0  0  0  0  0  0  0  0  0  0
    2.5040    3.1750    0.6100 C   0  0  0  0  0  0  0  0  0  0  0  0
    3.5920    2.8550    1.3260 C   0  0  0  0  0  0  0  0  0  0  0  0
    3.7500    1.5920    1.7470 C   0  0  0  0  0  0  0  0  0  0  0  0
    2.8180    0.6740    1.4400 C   0  0  0  0  0  0  0  0  0  0  0  0
    2.2320   -1.9630    0.4700 O   0  0  0  0  0  0  0  0  0  0  0  0
    3.2430   -1.6510   -0.4150 C   0  0  0  0  0  0  0  0  0  0  0  0
    2.9680   -1.0240   -1.4210 O   0  0  0  0  0  0  0  0  0  0  0  0
    4.5270   -2.0570   -0.1690 C   0  0  0  0  0  0  0  0  0  0  0  0
    5.5380   -1.7800   -1.0110 C   0  0  0  0  0  0  0  0  0  0  0  0
    6.7930   -2.1950   -0.7680 C   0  0  0  0  0  0  0  0  0  0  0  0
    7.0460   -2.9040    0.3460 C   0  0  0  0  0  0  0  0  0  0  0  0
    6.0560   -3.1870    1.2080 C   0  0  0  0  0  0  0  0  0  0  0  0
    4.8100   -2.7630    0.9410 C   0  0  0  0  0  0  0  0  0  0  0  0
    7.8120   -1.9210   -1.6270 O   0  0  0  0  0  0  0  0  0  0  0  0
    8.6260   -2.3200   -1.2760 H   0  0  0  0  0  0  0  0  0  0  0  0
    8.3070   -3.3400    0.6060 O   0  0  0  0  0  0  0  0  0  0  0  0
    8.3020   -3.8410    1.4380 H   0  0  0  0  0  0  0  0  0  0  0  0
    6.3240   -3.9080    2.3290 O   0  0  0  0  0  0  0  0  0  0  0  0
    5.5050   -4.0720    2.8230 H   0  0  0  0  0  0  0  0  0  0  0  0
   -2.0740   -3.9870   -0.5700 O   0  0  0  0  0  0  0  0  0  0  0  0
   -1.1350   -4.1930   -0.4460 H   0  0  0  0  0  0  0  0  0  0  0  0
    2.3470    4.4560    0.1790 O   0  0  0  0  0  0  0  0  0  0  0  0
    3.1180    4.9720    0.4690 H   0  0  0  0  0  0  0  0  0  0  0  0
    4.8400    1.2620    2.4890 O   0  0  0  0  0  0  0  0  0  0  0  0
    4.8230    0.3130    2.6910 H   0  0  0  0  0  0  0  0  0  0  0  0
   -5.0130   -0.3450   -0.9260 O   0  0  0  0  0  0  0  0  0  0  0  0
   -4.9970    0.6240   -0.8650 H   0  0  0  0  0  0  0  0  0  0  0  0
    4.5240    3.7960    1.6300 O   0  0  0  0  0  0  0  0  0  0  0  0
    5.2330    3.3780    2.1450 H   0  0  0  0  0  0  0  0  0  0  0  0
  1  6  1  0  0  0  0
  2  1  2  0  0  0  0
  2  3  1  0  0  0  0
  3  4  2  0  0  0  0
  4  5  1  0  0  0  0
  4  7  1  0  0  0  0
  5 10  1  0  0  0  0
  6  5  2  0  0  0  0
  7  8  2  0  0  0  0
  8  9  1  0  0  0  0
  8 17  1  0  0  0  0
  9 11  1  0  0  0  0
 10  9  2  0  0  0  0
 11 16  2  0  0  0  0
 12 13  2  0  0  0  0
 12 11  1  0  0  0  0
 13 14  1  0  0  0  0
 14 40  1  0  0  0  0
 14 15  2  0  0  0  0
 15 36  1  0  0  0  0
 16 15  1  0  0  0  0
 18 20  1  0  0  0  0
 18 17  1  0  0  0  0
 19 18  2  0  0  0  0
 20 25  2  0  0  0  0
 21 22  2  0  0  0  0
 21 20  1  0  0  0  0
 22 23  1  0  0  0  0
 23 28  1  0  0  0  0
 23 24  2  0  0  0  0
 24 30  1  0  0  0  0
 25 24  1  0  0  0  0
 26 27  1  0  0  0  0
 26 22  1  0  0  0  0
 28 29  1  0  0  0  0
 30 31  1  0  0  0  0
 32  3  1  0  0  0  0
 32 33  1  0  0  0  0
 34 35  1  0  0  0  0
 34 13  1  0  0  0  0
 36 37  1  0  0  0  0
 38 39  1  0  0  0  0
 38  1  1  0  0  0  0
 40 41  1  0  0  0  0
M  END
