pdbs/nev1h.pdb
 OpenBabel07211515353D

 41 44  0  0  1  0  0  0  0  0999 V2000
   -4.4290   -1.6190    2.1040 C   0  0  0  0  0  0  0  0  0  0  0  0
   -4.6050   -0.3170    2.3760 C   0  0  0  0  0  0  0  0  0  0  0  0
   -3.7290    0.6250    1.9900 C   0  0  0  0  0  0  0  0  0  0  0  0
   -2.6290    0.2530    1.3040 C   0  0  0  0  0  0  0  0  0  0  0  0
   -2.4230   -1.0490    1.0200 C   0  0  0  0  0  0  0  0  0  0  0  0
   -3.3250   -1.9600    1.4240 C   0  0  0  0  0  0  0  0  0  0  0  0
   -1.6370    1.3140    0.8720 C   0  0  0  0  0  0  0  0  0  0  0  0
   -0.7030    0.8490   -0.2520 C   0  0  2  0  0  0  0  0  0  0  0  0
   -0.0700   -0.4880    0.1550 C   0  0  2  0  0  0  0  0  0  0  0  0
   -1.1960   -1.5290    0.2740 C   0  0  0  0  0  0  0  0  0  0  0  0
    0.2460    1.8470   -0.4510 O   0  0  0  0  0  0  0  0  0  0  0  0
    1.1450    2.0010   -1.4880 C   0  0  0  0  0  0  0  0  0  0  0  0
    1.9030    2.9410   -1.3030 O   0  0  0  0  0  0  0  0  0  0  0  0
    1.3090    1.2920   -2.6580 C   0  0  0  0  0  0  0  0  0  0  0  0
    0.5410    0.2630   -3.0610 C   0  0  0  0  0  0  0  0  0  0  0  0
    0.7350   -0.4100   -4.2080 C   0  0  0  0  0  0  0  0  0  0  0  0
    1.7430   -0.0520   -5.0180 C   0  0  0  0  0  0  0  0  0  0  0  0
    2.5360    0.9720   -4.6690 C   0  0  0  0  0  0  0  0  0  0  0  0
    2.3060    1.6150   -3.5120 C   0  0  0  0  0  0  0  0  0  0  0  0
   -0.0690   -1.4460   -4.5710 O   0  0  0  0  0  0  0  0  0  0  0  0
    0.2370   -1.7880   -5.4280 H   0  0  0  0  0  0  0  0  0  0  0  0
    1.9630   -0.7130   -6.1840 O   0  0  0  0  0  0  0  0  0  0  0  0
    2.7270   -0.3140   -6.6310 H   0  0  0  0  0  0  0  0  0  0  0  0
    3.5580    1.3390   -5.4870 O   0  0  0  0  0  0  0  0  0  0  0  0
    4.0430    2.0840   -5.0980 H   0  0  0  0  0  0  0  0  0  0  0  0
    0.8390   -0.3810    1.3750 C   0  0  0  0  0  0  0  0  0  0  0  0
    2.1330   -0.0470    1.2210 C   0  0  0  0  0  0  0  0  0  0  0  0
    2.9770    0.0620    2.2590 C   0  0  0  0  0  0  0  0  0  0  0  0
    2.5170   -0.1670    3.5000 C   0  0  0  0  0  0  0  0  0  0  0  0
    1.2310   -0.5070    3.6910 C   0  0  0  0  0  0  0  0  0  0  0  0
    0.4150   -0.6110    2.6300 C   0  0  0  0  0  0  0  0  0  0  0  0
    4.2820    0.4020    2.0820 O   0  0  0  0  0  0  0  0  0  0  0  0
    4.7040    0.4530    2.9560 H   0  0  0  0  0  0  0  0  0  0  0  0
    3.3480   -0.0590    4.5700 O   0  0  0  0  0  0  0  0  0  0  0  0
    2.8440   -0.2480    5.3780 H   0  0  0  0  0  0  0  0  0  0  0  0
    0.7710   -0.7380    4.9490 O   0  0  0  0  0  0  0  0  0  0  0  0
   -0.1780   -0.9370    4.9200 H   0  0  0  0  0  0  0  0  0  0  0  0
   -3.9660    1.9270    2.3060 O   0  0  0  0  0  0  0  0  0  0  0  0
   -4.7920    1.9900    2.8120 H   0  0  0  0  0  0  0  0  0  0  0  0
   -5.3280   -2.5580    2.5030 O   0  0  0  0  0  0  0  0  0  0  0  0
   -5.0290   -3.4320    2.2040 H   0  0  0  0  0  0  0  0  0  0  0  0
  1  2  1  0  0  0  0
  1 40  1  0  0  0  0
  3 38  1  0  0  0  0
  3  2  2  0  0  0  0
  4  3  1  0  0  0  0
  5  4  2  0  0  0  0
  5  6  1  0  0  0  0
  6  1  2  0  0  0  0
  7  4  1  0  0  0  0
  8 11  1  1  0  0  0
  8  9  1  0  0  0  0
  8  7  1  0  0  0  0
  9 10  1  0  0  0  0
  9 26  1  1  0  0  0
 10  5  1  0  0  0  0
 12 13  2  0  0  0  0
 12 11  1  0  0  0  0
 14 12  1  0  0  0  0
 15 14  1  0  0  0  0
 16 15  2  0  0  0  0
 17 18  2  0  0  0  0
 17 16  1  0  0  0  0
 18 19  1  0  0  0  0
 19 14  2  0  0  0  0
 20 16  1  0  0  0  0
 21 20  1  0  0  0  0
 22 17  1  0  0  0  0
 23 22  1  0  0  0  0
 24 25  1  0  0  0  0
 24 18  1  0  0  0  0
 26 31  1  0  0  0  0
 27 26  2  0  0  0  0
 27 28  1  0  0  0  0
 28 29  2  0  0  0  0
 29 30  1  0  0  0  0
 29 34  1  0  0  0  0
 30 36  1  0  0  0  0
 31 30  2  0  0  0  0
 32 28  1  0  0  0  0
 32 33  1  0  0  0  0
 34 35  1  0  0  0  0
 37 36  1  0  0  0  0
 38 39  1  0  0  0  0
 41 40  1  0  0  0  0
M  END
