pdbs/nev2a.pdb
 OpenBabel07211515353D

 37 40  0  0  1  0  0  0  0  0999 V2000
   -2.2930   -5.5040    0.3980 C   0  0  0  0  0  0  0  0  0  0  0  0
   -1.0030   -5.6390    0.0660 C   0  0  0  0  0  0  0  0  0  0  0  0
   -0.2060   -4.5620    0.0930 C   0  0  0  0  0  0  0  0  0  0  0  0
   -0.6790   -3.3540    0.4510 C   0  0  0  0  0  0  0  0  0  0  0  0
   -1.9740   -3.2060    0.8040 C   0  0  0  0  0  0  0  0  0  0  0  0
   -2.7600   -4.2990    0.7540 C   0  0  0  0  0  0  0  0  0  0  0  0
    0.2590   -2.1710    0.4640 C   0  0  0  0  0  0  0  0  0  0  0  0
   -0.3320   -1.0430    1.3060 C   0  0  2  0  0  0  0  0  0  0  0  0
   -1.7890   -0.8350    0.9040 C   0  0  2  0  0  0  0  0  0  0  0  0
   -2.5350   -2.0040    1.1540 O   0  0  0  0  0  0  0  0  0  0  0  0
   -1.9580   -0.2850   -0.5080 C   0  0  0  0  0  0  0  0  0  0  0  0
   -1.8350    1.0360   -0.7290 C   0  0  0  0  0  0  0  0  0  0  0  0
   -1.9610    1.5770   -1.9510 C   0  0  0  0  0  0  0  0  0  0  0  0
   -2.2240    0.7730   -2.9950 C   0  0  0  0  0  0  0  0  0  0  0  0
   -2.3600   -0.5510   -2.8100 C   0  0  0  0  0  0  0  0  0  0  0  0
   -2.2270   -1.0580   -1.5740 C   0  0  0  0  0  0  0  0  0  0  0  0
    0.3750    0.1500    1.1210 O   0  0  0  0  0  0  0  0  0  0  0  0
    1.6180    0.3240    1.6800 C   0  0  0  0  0  0  0  0  0  0  0  0
    2.0730   -0.5400    2.4060 O   0  0  0  0  0  0  0  0  0  0  0  0
    2.3470    1.4510    1.4120 C   0  0  0  0  0  0  0  0  0  0  0  0
    1.8520    2.4020    0.5990 C   0  0  0  0  0  0  0  0  0  0  0  0
    2.5410    3.5200    0.3150 C   0  0  0  0  0  0  0  0  0  0  0  0
    3.7570    3.6970    0.8580 C   0  0  0  0  0  0  0  0  0  0  0  0
    4.2770    2.7640    1.6740 C   0  0  0  0  0  0  0  0  0  0  0  0
    3.5680    1.6550    1.9410 C   0  0  0  0  0  0  0  0  0  0  0  0
    2.0340    4.4760   -0.5090 O   0  0  0  0  0  0  0  0  0  0  0  0
    2.6830    5.1960   -0.5780 H   0  0  0  0  0  0  0  0  0  0  0  0
    4.4710    4.8210    0.5850 O   0  0  0  0  0  0  0  0  0  0  0  0
    5.3170    4.7800    1.0600 H   0  0  0  0  0  0  0  0  0  0  0  0
    5.5080    2.9540    2.2170 O   0  0  0  0  0  0  0  0  0  0  0  0
    5.7410    2.2000    2.7810 H   0  0  0  0  0  0  0  0  0  0  0  0
   -1.8270    2.9150   -2.1540 O   0  0  0  0  0  0  0  0  0  0  0  0
   -1.9370    3.0920   -3.1030 H   0  0  0  0  0  0  0  0  0  0  0  0
   -2.6310   -1.3580   -3.8690 O   0  0  0  0  0  0  0  0  0  0  0  0
   -2.7180   -2.2770   -3.5680 H   0  0  0  0  0  0  0  0  0  0  0  0
   -2.3560    1.2930   -4.2440 O   0  0  0  0  0  0  0  0  0  0  0  0
   -2.5520    0.5720   -4.8640 H   0  0  0  0  0  0  0  0  0  0  0  0
  1  6  2  0  0  0  0
  2  3  2  0  0  0  0
  2  1  1  0  0  0  0
  3  4  1  0  0  0  0
  4  7  1  0  0  0  0
  4  5  2  0  0  0  0
  5 10  1  0  0  0  0
  6  5  1  0  0  0  0
  7  8  1  0  0  0  0
  8 17  1  6  0  0  0
  9 11  1  6  0  0  0
  9 10  1  0  0  0  0
  9  8  1  0  0  0  0
 12 11  1  0  0  0  0
 13 12  2  0  0  0  0
 14 15  2  0  0  0  0
 14 13  1  0  0  0  0
 15 16  1  0  0  0  0
 16 11  2  0  0  0  0
 17 18  1  0  0  0  0
 18 19  2  0  0  0  0
 20 18  1  0  0  0  0
 20 25  2  0  0  0  0
 21 20  1  0  0  0  0
 22 21  2  0  0  0  0
 22 23  1  0  0  0  0
 23 24  2  0  0  0  0
 24 25  1  0  0  0  0
 24 30  1  0  0  0  0
 26 22  1  0  0  0  0
 27 26  1  0  0  0  0
 28 23  1  0  0  0  0
 28 29  1  0  0  0  0
 30 31  1  0  0  0  0
 32 13  1  0  0  0  0
 33 32  1  0  0  0  0
 34 35  1  0  0  0  0
 34 15  1  0  0  0  0
 36 14  1  0  0  0  0
 37 36  1  0  0  0  0
M  END
