pdbs/nev4k.pdb
 OpenBabel07211515353D

 41 44  0  0  1  0  0  0  0  0999 V2000
   -3.6270   -2.5220    2.3360 C   0  0  0  0  0  0  0  0  0  0  0  0
   -2.6430   -3.4270    2.2340 C   0  0  0  0  0  0  0  0  0  0  0  0
   -1.4770   -3.1510    1.6280 C   0  0  0  0  0  0  0  0  0  0  0  0
   -1.2890   -1.9220    1.1060 C   0  0  0  0  0  0  0  0  0  0  0  0
   -2.2500   -0.9760    1.1920 C   0  0  0  0  0  0  0  0  0  0  0  0
   -3.4030   -1.3140    1.7990 C   0  0  0  0  0  0  0  0  0  0  0  0
    0.0180   -1.6000    0.4150 C   0  0  0  0  0  0  0  0  0  0  0  0
    0.1920   -0.0870    0.2420 C   0  0  2  0  0  0  0  0  0  0  0  0
   -1.1140    0.5180   -0.2780 C   0  0  2  0  0  0  0  0  0  0  0  0
   -2.1460    0.2810    0.6510 O   0  0  0  0  0  0  0  0  0  0  0  0
   -1.5100    0.1410   -1.7040 C   0  0  0  0  0  0  0  0  0  0  0  0
   -1.2610    0.9810   -2.7250 C   0  0  0  0  0  0  0  0  0  0  0  0
   -1.5940    0.6960   -3.9950 C   0  0  0  0  0  0  0  0  0  0  0  0
   -2.2080   -0.4690   -4.2620 C   0  0  0  0  0  0  0  0  0  0  0  0
   -2.4830   -1.3280   -3.2660 C   0  0  0  0  0  0  0  0  0  0  0  0
   -2.1360   -1.0080   -2.0100 C   0  0  0  0  0  0  0  0  0  0  0  0
    1.4380    0.2390   -0.6050 C   0  0  0  0  0  0  0  0  0  0  0  0
    1.9000    1.6940   -0.4790 C   0  0  0  0  0  0  0  0  0  0  0  0
    1.6010    2.4310   -1.3970 O   0  0  0  0  0  0  0  0  0  0  0  0
    2.6150    2.1230    0.6050 C   0  0  0  0  0  0  0  0  0  0  0  0
    2.9540    1.3090    1.6220 C   0  0  0  0  0  0  0  0  0  0  0  0
    3.6540    1.7430    2.6830 C   0  0  0  0  0  0  0  0  0  0  0  0
    4.0320    3.0310    2.7400 C   0  0  0  0  0  0  0  0  0  0  0  0
    3.7110    3.8700    1.7420 C   0  0  0  0  0  0  0  0  0  0  0  0
    3.0100    3.4080    0.6940 C   0  0  0  0  0  0  0  0  0  0  0  0
    3.9870    0.9080    3.7040 O   0  0  0  0  0  0  0  0  0  0  0  0
    4.4840    1.4140    4.3670 H   0  0  0  0  0  0  0  0  0  0  0  0
    4.7410    3.4920    3.8040 O   0  0  0  0  0  0  0  0  0  0  0  0
    4.9230    4.4370    3.6760 H   0  0  0  0  0  0  0  0  0  0  0  0
    4.0970    5.1720    1.8060 O   0  0  0  0  0  0  0  0  0  0  0  0
    3.7900    5.6490    1.0190 H   0  0  0  0  0  0  0  0  0  0  0  0
   -0.5210   -4.1170    1.5390 O   0  0  0  0  0  0  0  0  0  0  0  0
    0.2390   -3.7880    1.0360 H   0  0  0  0  0  0  0  0  0  0  0  0
   -1.3320    1.5590   -5.0130 O   0  0  0  0  0  0  0  0  0  0  0  0
   -1.6640    1.1650   -5.8370 H   0  0  0  0  0  0  0  0  0  0  0  0
   -3.1160   -2.5000   -3.5380 O   0  0  0  0  0  0  0  0  0  0  0  0
   -3.2890   -2.9790   -2.7120 H   0  0  0  0  0  0  0  0  0  0  0  0
   -4.8030   -2.8300    2.9460 O   0  0  0  0  0  0  0  0  0  0  0  0
   -4.7660   -3.7470    3.2610 H   0  0  0  0  0  0  0  0  0  0  0  0
   -2.5620   -0.7830   -5.5360 O   0  0  0  0  0  0  0  0  0  0  0  0
   -3.0090   -1.6450   -5.5330 H   0  0  0  0  0  0  0  0  0  0  0  0
  1 38  1  0  0  0  0
  2  1  1  0  0  0  0
  3  2  2  0  0  0  0
  4  5  2  0  0  0  0
  4  3  1  0  0  0  0
  5  6  1  0  0  0  0
  6  1  2  0  0  0  0
  7  4  1  0  0  0  0
  8 17  1  6  0  0  0
  8  7  1  0  0  0  0
  9 11  1  1  0  0  0
  9  8  1  0  0  0  0
  9 10  1  0  0  0  0
 10  5  1  0  0  0  0
 12 11  2  0  0  0  0
 13 12  1  0  0  0  0
 14 13  2  0  0  0  0
 14 15  1  0  0  0  0
 15 16  2  0  0  0  0
 16 11  1  0  0  0  0
 17 18  1  0  0  0  0
 18 20  1  0  0  0  0
 19 18  2  0  0  0  0
 20 25  2  0  0  0  0
 20 21  1  0  0  0  0
 21 22  2  0  0  0  0
 22 23  1  0  0  0  0
 22 26  1  0  0  0  0
 23 28  1  0  0  0  0
 24 30  1  0  0  0  0
 24 23  2  0  0  0  0
 25 24  1  0  0  0  0
 26 27  1  0  0  0  0
 29 28  1  0  0  0  0
 31 30  1  0  0  0  0
 32  3  1  0  0  0  0
 33 32  1  0  0  0  0
 34 13  1  0  0  0  0
 35 34  1  0  0  0  0
 36 15  1  0  0  0  0
 36 37  1  0  0  0  0
 38 39  1  0  0  0  0
 40 41  1  0  0  0  0
 40 14  1  0  0  0  0
M  END
