pdbs/nev5c.pdb
 OpenBabel07211515353D

 42 45  0  0  1  0  0  0  0  0999 V2000
   -3.2010   -1.3950    4.1780 C   0  0  0  0  0  0  0  0  0  0  0  0
   -2.4560   -2.4380    3.7890 C   0  0  0  0  0  0  0  0  0  0  0  0
   -1.3640   -2.2910    3.0230 C   0  0  0  0  0  0  0  0  0  0  0  0
   -1.0060   -1.0500    2.6320 C   0  0  0  0  0  0  0  0  0  0  0  0
   -1.7260    0.0300    3.0000 C   0  0  0  0  0  0  0  0  0  0  0  0
   -2.8190   -0.1780    3.7580 C   0  0  0  0  0  0  0  0  0  0  0  0
    0.2250   -0.8660    1.7710 C   0  0  0  0  0  0  0  0  0  0  0  0
    0.6820    0.5910    1.7780 C   0  0  2  0  0  0  0  0  0  0  0  0
   -0.5270    1.4920    1.5500 C   0  0  2  0  0  0  0  0  0  0  0  0
   -1.4480    1.3140    2.6010 O   0  0  0  0  0  0  0  0  0  0  0  0
   -1.1450    1.3580    0.1620 C   0  0  0  0  0  0  0  0  0  0  0  0
   -0.6640    2.0880   -0.8600 C   0  0  0  0  0  0  0  0  0  0  0  0
   -1.1430    1.9850   -2.1090 C   0  0  0  0  0  0  0  0  0  0  0  0
   -2.1540    1.1350   -2.3510 C   0  0  0  0  0  0  0  0  0  0  0  0
   -2.6870    0.4180   -1.3480 C   0  0  0  0  0  0  0  0  0  0  0  0
   -2.1760    0.5390   -0.1120 C   0  0  0  0  0  0  0  0  0  0  0  0
    1.6700    0.7390    0.7980 O   0  0  0  0  0  0  0  0  0  0  0  0
    2.5230    1.8000    0.8630 C   0  0  0  0  0  0  0  0  0  0  0  0
    2.4700    2.6850    1.6870 O   0  0  0  0  0  0  0  0  0  0  0  0
    3.5730    1.7320   -0.2410 C   0  0  0  0  0  0  0  0  0  0  0  0
    3.2790    0.6870   -1.2960 C   0  0  0  0  0  0  0  0  0  0  0  0
    3.9780   -0.4560   -1.3800 C   0  0  0  0  0  0  0  0  0  0  0  0
    3.6860   -1.3910   -2.2990 C   0  0  0  0  0  0  0  0  0  0  0  0
    2.6600   -1.1850   -3.1450 C   0  0  0  0  0  0  0  0  0  0  0  0
    1.9440   -0.0480   -3.0840 C   0  0  0  0  0  0  0  0  0  0  0  0
    2.2750    0.8730   -2.1670 C   0  0  0  0  0  0  0  0  0  0  0  0
    4.3950   -2.5490   -2.3790 O   0  0  0  0  0  0  0  0  0  0  0  0
    4.0260   -3.0850   -3.1010 H   0  0  0  0  0  0  0  0  0  0  0  0
    2.3370   -2.1280   -4.0680 O   0  0  0  0  0  0  0  0  0  0  0  0
    1.5890   -1.8050   -4.5960 H   0  0  0  0  0  0  0  0  0  0  0  0
    0.8840    0.1430   -3.9150 O   0  0  0  0  0  0  0  0  0  0  0  0
    0.3520    0.8980   -3.6130 H   0  0  0  0  0  0  0  0  0  0  0  0
   -0.6540   -3.3890    2.6430 O   0  0  0  0  0  0  0  0  0  0  0  0
    0.0640   -3.1330    2.0440 H   0  0  0  0  0  0  0  0  0  0  0  0
   -0.6330    2.7150   -3.1370 O   0  0  0  0  0  0  0  0  0  0  0  0
   -1.1650    2.5420   -3.9310 H   0  0  0  0  0  0  0  0  0  0  0  0
   -3.7290   -0.4190   -1.5920 O   0  0  0  0  0  0  0  0  0  0  0  0
   -4.0230   -0.8290   -0.7630 H   0  0  0  0  0  0  0  0  0  0  0  0
   -4.3070   -1.5710    4.9490 O   0  0  0  0  0  0  0  0  0  0  0  0
   -4.4140   -2.5170    5.1400 H   0  0  0  0  0  0  0  0  0  0  0  0
   -2.6510    1.0080   -3.6080 O   0  0  0  0  0  0  0  0  0  0  0  0
   -3.3890    0.3780   -3.5930 H   0  0  0  0  0  0  0  0  0  0  0  0
  1 39  1  0  0  0  0
  2  1  1  0  0  0  0
  3  2  2  0  0  0  0
  4  5  2  0  0  0  0
  4  3  1  0  0  0  0
  5  6  1  0  0  0  0
  6  1  2  0  0  0  0
  7  8  1  0  0  0  0
  7  4  1  0  0  0  0
  8 17  1  6  0  0  0
  9 11  1  6  0  0  0
  9  8  1  0  0  0  0
  9 10  1  0  0  0  0
 10  5  1  0  0  0  0
 12 11  2  0  0  0  0
 13 12  1  0  0  0  0
 14 13  2  0  0  0  0
 14 15  1  0  0  0  0
 15 16  2  0  0  0  0
 16 11  1  0  0  0  0
 17 18  1  0  0  0  0
 18 19  2  0  0  0  0
 20 18  1  0  0  0  0
 21 20  1  0  0  0  0
 22 21  1  0  0  0  0
 23 22  2  0  0  0  0
 24 25  2  0  0  0  0
 24 23  1  0  0  0  0
 25 26  1  0  0  0  0
 26 21  2  0  0  0  0
 27 23  1  0  0  0  0
 28 27  1  0  0  0  0
 29 24  1  0  0  0  0
 30 29  1  0  0  0  0
 31 32  1  0  0  0  0
 31 25  1  0  0  0  0
 33  3  1  0  0  0  0
 34 33  1  0  0  0  0
 35 13  1  0  0  0  0
 36 35  1  0  0  0  0
 37 15  1  0  0  0  0
 37 38  1  0  0  0  0
 39 40  1  0  0  0  0
 41 42  1  0  0  0  0
 41 14  1  0  0  0  0
M  END
