pdbs/nev7b.pdb
 OpenBabel07211515353D

 29 31  0  0  1  0  0  0  0  0999 V2000
    0.4720    0.2020    0.9530 O   0  0  0  0  0  0  0  0  0  0  0  0
   -0.6620   -0.6170    0.9320 C   0  0  2  0  0  0  0  0  0  0  0  0
   -0.5360   -1.7930   -0.0330 C   0  0  0  0  0  0  0  0  0  0  0  0
   -1.8570   -2.5300   -0.1560 C   0  0  0  0  0  0  0  0  0  0  0  0
   -1.8830   -3.7340   -0.7630 C   0  0  0  0  0  0  0  0  0  0  0  0
   -2.9850   -1.9860    0.3530 C   0  0  0  0  0  0  0  0  0  0  0  0
   -3.0540   -4.3820   -0.8700 C   0  0  0  0  0  0  0  0  0  0  0  0
   -4.1980   -3.8740   -0.3890 C   0  0  0  0  0  0  0  0  0  0  0  0
   -4.1320   -2.6740    0.2060 C   0  0  0  0  0  0  0  0  0  0  0  0
   -3.0320   -0.7520    0.9540 O   0  0  0  0  0  0  0  0  0  0  0  0
   -1.9660    0.1130    0.6660 C   0  0  0  0  0  0  0  0  0  0  0  0
   -0.7550   -4.2900   -1.2850 O   0  0  0  0  0  0  0  0  0  0  0  0
   -0.0180   -3.6630   -1.2200 H   0  0  0  0  0  0  0  0  0  0  0  0
   -5.3720   -4.5480   -0.5180 O   0  0  0  0  0  0  0  0  0  0  0  0
   -5.2090   -5.3790   -0.9940 H   0  0  0  0  0  0  0  0  0  0  0  0
    0.8000    1.0610   -0.0670 C   0  0  0  0  0  0  0  0  0  0  0  0
    0.1970    1.0040   -1.1200 O   0  0  0  0  0  0  0  0  0  0  0  0
    1.7850    1.9970    0.1040 C   0  0  0  0  0  0  0  0  0  0  0  0
    2.4520    2.0750    1.2690 C   0  0  0  0  0  0  0  0  0  0  0  0
    3.4230    2.9810    1.4710 C   0  0  0  0  0  0  0  0  0  0  0  0
    3.7400    3.8340    0.4820 C   0  0  0  0  0  0  0  0  0  0  0  0
    3.0920    3.7790   -0.6930 C   0  0  0  0  0  0  0  0  0  0  0  0
    2.1240    2.8640   -0.8690 C   0  0  0  0  0  0  0  0  0  0  0  0
    4.0940    3.0540    2.6520 O   0  0  0  0  0  0  0  0  0  0  0  0
    4.7480    3.7690    2.5910 H   0  0  0  0  0  0  0  0  0  0  0  0
    4.7200    4.7590    0.6640 O   0  0  0  0  0  0  0  0  0  0  0  0
    4.8120    5.2850   -0.1470 H   0  0  0  0  0  0  0  0  0  0  0  0
    3.4210    4.6470   -1.6860 O   0  0  0  0  0  0  0  0  0  0  0  0
    2.8670    4.4850   -2.4660 H   0  0  0  0  0  0  0  0  0  0  0  0
  2  1  1  6  0  0  0
  3  2  1  0  0  0  0
  4  3  1  0  0  0  0
  4  6  2  0  0  0  0
  5  4  1  0  0  0  0
  6 10  1  0  0  0  0
  7  5  2  0  0  0  0
  7  8  1  0  0  0  0
  8  9  2  0  0  0  0
  9  6  1  0  0  0  0
 11  2  1  0  0  0  0
 11 10  1  0  0  0  0
 12 13  1  0  0  0  0
 12  5  1  0  0  0  0
 14  8  1  0  0  0  0
 15 14  1  0  0  0  0
 16 18  1  0  0  0  0
 16  1  1  0  0  0  0
 17 16  2  0  0  0  0
 18 19  2  0  0  0  0
 19 20  1  0  0  0  0
 20 24  1  0  0  0  0
 21 26  1  0  0  0  0
 21 20  2  0  0  0  0
 22 21  1  0  0  0  0
 23 22  2  0  0  0  0
 23 18  1  0  0  0  0
 25 24  1  0  0  0  0
 27 26  1  0  0  0  0
 28 22  1  0  0  0  0
 29 28  1  0  0  0  0
M  END
