pdbs/s3zcnr.pdb
 OpenBabel07211515353D

 33 36  0  0  1  0  0  0  0  0999 V2000
    1.2810   -0.2320   -2.2880 C   0  0  0  0  0  0  0  0  0  0  0  0
    2.4340    0.0290   -1.6430 C   0  0  1  0  0  0  0  0  0  0  0  0
    2.6910   -0.4320   -0.4170 C   0  0  0  0  0  0  0  0  0  0  0  0
    3.8820   -0.0500   -0.0350 N   0  0  0  0  0  0  0  0  0  0  0  0
    1.6740   -1.2350    0.0560 O   0  0  0  0  0  0  0  0  0  0  0  0
    4.5610   -0.2610    1.0230 C   0  0  0  0  0  0  0  0  0  0  0  0
    4.3460    0.6340   -0.9810 N   0  0  0  0  0  0  0  0  0  0  0  0
    4.1000   -1.0660    2.0190 C   0  0  0  0  0  0  0  0  0  0  0  0
    5.8210    0.1990    1.3050 C   0  0  0  0  0  0  0  0  0  0  0  0
    4.7550   -1.3270    3.1590 C   0  0  0  0  0  0  0  0  0  0  0  0
    5.9730   -0.8250    3.4170 C   0  0  0  0  0  0  0  0  0  0  0  0
    6.4930   -0.0570    2.4450 C   0  0  0  0  0  0  0  0  0  0  0  0
    3.5560    0.6850   -1.9570 C   0  0  0  0  0  0  0  0  0  0  0  0
    3.8000    1.4450   -3.2220 C   0  0  0  0  0  0  0  0  0  0  0  0
    6.6230   -1.0970    4.5840 C   0  0  0  0  0  0  0  0  0  0  0  0
    7.7580   -0.6190    4.8170 O   0  0  0  0  0  0  0  0  0  0  0  0
    6.0770   -1.8190    5.4520 O   0  0  0  0  0  0  0  0  0  0  0  0
    0.1130   -0.1520   -1.5830 C   0  0  0  0  0  0  0  0  0  0  0  0
    0.0380    0.4360   -0.3860 C   0  0  0  0  0  0  0  0  0  0  0  0
   -1.2520    0.5100   -0.0510 C   0  0  0  0  0  0  0  0  0  0  0  0
   -1.9700    0.0110   -1.0890 C   0  0  0  0  0  0  0  0  0  0  0  0
   -1.0530   -0.3870   -1.8650 O   0  0  0  0  0  0  0  0  0  0  0  0
   -3.3550    0.0280   -1.0030 C   0  0  0  0  0  0  0  0  0  0  0  0
   -3.9910    0.3810    0.1570 C   0  0  0  0  0  0  0  0  0  0  0  0
   -4.2800   -0.2970   -1.9510 C   0  0  0  0  0  0  0  0  0  0  0  0
   -5.3200    0.3960    0.4470 C   0  0  0  0  0  0  0  0  0  0  0  0
   -5.8700    0.7900    1.8210 C   0  0  0  0  0  0  0  0  0  0  0  0
   -6.1680    0.0360   -0.5260 C   0  0  0  0  0  0  0  0  0  0  0  0
   -7.6750   -0.0150   -0.3270 C   0  0  0  0  0  0  0  0  0  0  0  0
   -5.6100   -0.2930   -1.6970 C   0  0  0  0  0  0  0  0  0  0  0  0
   -4.1610   -0.6590   -3.1570 N   0  0  0  0  0  0  0  0  0  0  0  0
   -3.5550    0.2900   -3.8530 O   0  0  0  0  0  0  0  0  0  0  0  0
   -3.3610   -1.7010   -3.2630 O   0  0  0  0  0  0  0  0  0  0  0  0
  1 18  1  0  0  0  0
  2  1  1  6  0  0  0
  2  3  1  0  0  0  0
  3  4  1  0  0  0  0
  3  5  2  0  0  0  0
  4  6  1  0  0  0  0
  6  9  2  0  0  0  0
  6  8  1  0  0  0  0
  7  4  1  0  0  0  0
  8 10  2  0  0  0  0
  9 12  1  0  0  0  0
 10 11  1  0  0  0  0
 11 15  1  0  0  0  0
 12 11  2  0  0  0  0
 13  2  1  0  0  0  0
 13  7  2  0  0  0  0
 14 13  1  0  0  0  0
 15 16  2  0  0  0  0
 15 17  1  0  0  0  0
 18 19  2  0  0  0  0
 19 20  1  0  0  0  0
 21 23  1  0  0  0  0
 21 20  2  0  0  0  0
 22 18  1  0  0  0  0
 22 21  1  0  0  0  0
 23 24  2  0  0  0  0
 24 26  1  0  0  0  0
 25 30  2  0  0  0  0
 25 23  1  0  0  0  0
 26 27  1  0  0  0  0
 28 29  1  0  0  0  0
 28 26  2  0  0  0  0
 30 28  1  0  0  0  0
 31 25  1  0  0  0  0
 32 31  1  0  0  0  0
 33 31  1  0  0  0  0
M  END
