pdbs/s3zcar.pdb
 OpenBabel07211515353D

 33 36  0  0  1  0  0  0  0  0999 V2000
    1.2080   -0.0330   -2.2260 C   0  0  0  0  0  0  0  0  0  0  0  0
    0.2080    0.0010   -1.3160 C   0  0  1  0  0  0  0  0  0  0  0  0
    0.2070    0.6770   -0.1600 C   0  0  0  0  0  0  0  0  0  0  0  0
   -1.0380    0.5870    0.2570 C   0  0  0  0  0  0  0  0  0  0  0  0
   -1.8090   -0.0120   -0.6830 C   0  0  1  0  0  0  0  0  0  0  0  0
   -3.1870   -0.0380   -0.7430 C   0  0  0  0  0  0  0  0  0  0  0  0
   -0.8780   -0.4940   -1.4210 O   0  0  0  0  0  0  0  0  0  0  0  0
   -3.8790    0.4030    0.3410 C   0  0  0  0  0  0  0  0  0  0  0  0
   -4.0590   -0.3430   -1.7510 C   0  0  0  0  0  0  0  0  0  0  0  0
   -5.2210    0.4220    0.4310 C   0  0  0  0  0  0  0  0  0  0  0  0
   -6.0430    0.0300   -0.5400 C   0  0  0  0  0  0  0  0  0  0  0  0
   -7.5520    0.0470   -0.2050 C   0  0  0  0  0  0  0  0  0  0  0  0
   -5.4150   -0.3050   -1.6790 C   0  0  0  0  0  0  0  0  0  0  0  0
   -6.3630   -0.6930   -2.8240 C   0  0  0  0  0  0  0  0  0  0  0  0
   -3.2420    0.8240    1.3390 N   0  0  0  0  0  0  0  0  0  0  0  0
   -3.2710   -0.0110    2.3560 O   0  0  0  0  0  0  0  0  0  0  0  0
   -3.6650    2.0240    1.7260 O   0  0  0  0  0  0  0  0  0  0  0  0
    2.3700    0.1050   -1.6340 C   0  0  2  0  0  0  0  0  0  0  0  0
    3.5490    0.6590   -1.9220 C   0  0  0  0  0  0  0  0  0  0  0  0
    3.8640    1.4690   -3.1290 C   0  0  0  0  0  0  0  0  0  0  0  0
    4.2930    0.4660   -0.9210 N   0  0  0  0  0  0  0  0  0  0  0  0
    3.7290   -0.1680   -0.0230 N   0  0  0  0  0  0  0  0  0  0  0  0
    2.5550   -0.4920   -0.4450 C   0  0  0  0  0  0  0  0  0  0  0  0
    4.4160   -0.3230    1.0870 C   0  0  0  0  0  0  0  0  0  0  0  0
    1.4180   -1.2380   -0.0860 O   0  0  0  0  0  0  0  0  0  0  0  0
    3.9710   -1.0440    2.1220 C   0  0  0  0  0  0  0  0  0  0  0  0
    5.6390    0.2120    1.3510 C   0  0  0  0  0  0  0  0  0  0  0  0
    4.6960   -1.2870    3.2420 C   0  0  0  0  0  0  0  0  0  0  0  0
    5.9170   -0.7750    3.4580 C   0  0  0  0  0  0  0  0  0  0  0  0
    6.3760    0.0010    2.4670 C   0  0  0  0  0  0  0  0  0  0  0  0
    6.6220   -1.0150    4.6170 C   0  0  0  0  0  0  0  0  0  0  0  0
    6.1290   -1.7560    5.5050 O   0  0  0  0  0  0  0  0  0  0  0  0
    7.7740   -0.5530    4.8190 O   0  0  0  0  0  0  0  0  0  0  0  0
  2  1  1  6  0  0  0
  2  3  1  0  0  0  0
  3  4  1  0  0  0  0
  5  6  1  6  0  0  0
  5  4  1  0  0  0  0
  6  8  2  0  0  0  0
  7  2  1  0  0  0  0
  7  5  1  0  0  0  0
  8 10  1  0  0  0  0
  8 15  1  0  0  0  0
  9 13  2  0  0  0  0
  9  6  1  0  0  0  0
 11 12  1  0  0  0  0
 11 10  2  0  0  0  0
 13 11  1  0  0  0  0
 14 13  1  0  0  0  0
 15 17  1  0  0  0  0
 15 16  1  0  0  0  0
 18  1  1  6  0  0  0
 18 23  1  0  0  0  0
 19 18  1  0  0  0  0
 19 21  2  0  0  0  0
 20 19  1  0  0  0  0
 21 22  1  0  0  0  0
 22 24  1  0  0  0  0
 23 25  2  0  0  0  0
 23 22  1  0  0  0  0
 24 27  2  0  0  0  0
 24 26  1  0  0  0  0
 26 28  2  0  0  0  0
 27 30  1  0  0  0  0
 28 29  1  0  0  0  0
 29 31  1  0  0  0  0
 30 29  2  0  0  0  0
 31 33  2  0  0  0  0
 31 32  1  0  0  0  0
M  END
