pdbs/s3zma.pdb
 OpenBabel07211515353D

 33 36  0  0  0  0  0  0  0  0999 V2000
    5.1750   -1.7480    1.8900 C   0  0  0  0  0  0  0  0  0  0  0  0
    4.2980   -2.7410    2.1310 C   0  0  0  0  0  0  0  0  0  0  0  0
    3.0830   -2.6470    1.5650 C   0  0  0  0  0  0  0  0  0  0  0  0
    2.7610   -1.6110    0.7800 C   0  0  0  0  0  0  0  0  0  0  0  0
    3.6160   -0.6000    0.5220 C   0  0  0  0  0  0  0  0  0  0  0  0
    4.8330   -0.7050    1.1140 C   0  0  0  0  0  0  0  0  0  0  0  0
    3.3210    0.4280   -0.1780 N   0  0  0  0  0  0  0  0  0  0  0  0
    2.2600    0.6810   -0.8390 C   0  0  0  0  0  0  0  0  0  0  0  0
    2.1700    2.0250   -0.9970 C   0  0  0  0  0  0  0  0  0  0  0  0
    3.4380    2.3990   -0.7560 C   0  0  0  0  0  0  0  0  0  0  0  0
    4.0860    1.3960   -0.3410 N   0  0  0  0  0  0  0  0  0  0  0  0
    1.1250    2.7980   -1.3450 C   0  0  0  0  0  0  0  0  0  0  0  0
    4.1230    3.7230   -0.9140 C   0  0  0  0  0  0  0  0  0  0  0  0
    1.6230   -0.1030   -1.5140 O   0  0  0  0  0  0  0  0  0  0  0  0
   -0.1810    2.4820   -1.3050 C   0  0  0  0  0  0  0  0  0  0  0  0
   -1.1470    3.3740   -1.5440 C   0  0  0  0  0  0  0  0  0  0  0  0
   -2.2750    2.7150   -1.2660 C   0  0  0  0  0  0  0  0  0  0  0  0
   -1.8980    1.4810   -0.8700 C   0  0  0  0  0  0  0  0  0  0  0  0
   -2.7010    0.4550   -0.4860 C   0  0  0  0  0  0  0  0  0  0  0  0
   -0.6620    1.4080   -0.9350 O   0  0  0  0  0  0  0  0  0  0  0  0
   -2.2780   -0.7520   -0.0260 C   0  0  0  0  0  0  0  0  0  0  0  0
   -4.0360    0.6280   -0.5920 C   0  0  0  0  0  0  0  0  0  0  0  0
   -3.2050   -1.7350    0.0930 C   0  0  0  0  0  0  0  0  0  0  0  0
   -4.5350   -1.5500   -0.0330 C   0  0  0  0  0  0  0  0  0  0  0  0
   -5.5000   -2.6790    0.2670 C   0  0  0  0  0  0  0  0  0  0  0  0
   -4.9640   -0.3110   -0.3440 C   0  0  0  0  0  0  0  0  0  0  0  0
   -6.4300    0.0570   -0.4440 C   0  0  0  0  0  0  0  0  0  0  0  0
   -1.1090   -1.0540    0.3460 N   0  0  0  0  0  0  0  0  0  0  0  0
   -0.7590   -2.2570    0.7630 O   0  0  0  0  0  0  0  0  0  0  0  0
   -0.3050   -0.1340    0.8470 O   0  0  0  0  0  0  0  0  0  0  0  0
    4.6300   -3.7950    2.9250 C   0  0  0  0  0  0  0  0  0  0  0  0
    3.7860   -4.6960    3.1360 O   0  0  0  0  0  0  0  0  0  0  0  0
    5.7760   -3.8570    3.4270 O   0  0  0  0  0  0  0  0  0  0  0  0
  1  2  1  0  0  0  0
  2 31  1  0  0  0  0
  3  2  2  0  0  0  0
  4  3  1  0  0  0  0
  5  4  2  0  0  0  0
  5  6  1  0  0  0  0
  6  1  2  0  0  0  0
  7  5  1  0  0  0  0
  8  7  1  0  0  0  0
  9  8  1  0  0  0  0
  9 10  2  0  0  0  0
 10 11  1  0  0  0  0
 11  7  1  0  0  0  0
 12 15  1  0  0  0  0
 12  9  1  0  0  0  0
 13 10  1  0  0  0  0
 14  8  2  0  0  0  0
 15 20  1  0  0  0  0
 16 15  2  0  0  0  0
 16 17  1  0  0  0  0
 17 18  2  0  0  0  0
 18 19  1  0  0  0  0
 19 21  1  0  0  0  0
 20 18  1  0  0  0  0
 21 23  2  0  0  0  0
 21 28  1  0  0  0  0
 22 19  2  0  0  0  0
 22 26  1  0  0  0  0
 24 23  1  0  0  0  0
 24 25  1  0  0  0  0
 26 24  2  0  0  0  0
 27 26  1  0  0  0  0
 28 29  2  0  0  0  0
 28 30  2  0  0  0  0
 31 32  2  0  0  0  0
 31 33  1  0  0  0  0
M  END
