pdbs/s3zmar.pdb
 OpenBabel07211515353D

 33 36  0  0  1  0  0  0  0  0999 V2000
    2.4220   -0.1580   -0.4820 C   0  0  0  0  0  0  0  0  0  0  0  0
    2.4860    1.1720   -0.6610 C   0  0  1  0  0  0  0  0  0  0  0  0
    1.7790    2.0960    0.0110 C   0  0  0  0  0  0  0  0  0  0  0  0
    2.0310    3.2670   -0.4520 N   0  0  0  0  0  0  0  0  0  0  0  0
    1.0040    1.7600    1.0750 O   0  0  0  0  0  0  0  0  0  0  0  0
    1.4970    4.3950   -0.1470 C   0  0  0  0  0  0  0  0  0  0  0  0
    2.9180    3.1360   -1.3180 N   0  0  0  0  0  0  0  0  0  0  0  0
    1.8340    5.5240   -0.8050 C   0  0  0  0  0  0  0  0  0  0  0  0
    0.5580    4.5650    0.8060 C   0  0  0  0  0  0  0  0  0  0  0  0
    1.2830    6.7210   -0.5380 C   0  0  0  0  0  0  0  0  0  0  0  0
    0.3600    6.8650    0.4280 C   0  0  0  0  0  0  0  0  0  0  0  0
    0.0080    5.7560    1.1000 C   0  0  0  0  0  0  0  0  0  0  0  0
    3.2450    1.9220   -1.4630 C   0  0  0  0  0  0  0  0  0  0  0  0
    4.2650    1.4910   -2.4700 C   0  0  0  0  0  0  0  0  0  0  0  0
   -0.1940    8.0800    0.7040 C   0  0  0  0  0  0  0  0  0  0  0  0
    0.1740    9.0800    0.0470 O   0  0  0  0  0  0  0  0  0  0  0  0
   -1.0410    8.2170    1.6160 O   0  0  0  0  0  0  0  0  0  0  0  0
    1.2320   -0.7300   -0.2260 C   0  0  0  0  0  0  0  0  0  0  0  0
    0.9540   -1.9030    0.0220 O   0  0  0  0  0  0  0  0  0  0  0  0
   -0.2620   -2.1440    0.0430 C   0  0  0  0  0  0  0  0  0  0  0  0
   -0.8690   -1.0050   -0.3340 C   0  0  0  0  0  0  0  0  0  0  0  0
   -0.9270   -3.2920    0.3260 C   0  0  0  0  0  0  0  0  0  0  0  0
    0.0870   -0.1010   -0.5220 C   0  0  0  0  0  0  0  0  0  0  0  0
   -0.3660   -4.4850    0.6370 C   0  0  0  0  0  0  0  0  0  0  0  0
   -2.2770   -3.2600    0.2940 C   0  0  0  0  0  0  0  0  0  0  0  0
   -1.1790   -5.5430    0.8820 C   0  0  0  0  0  0  0  0  0  0  0  0
   -2.5210   -5.4790    0.8420 C   0  0  0  0  0  0  0  0  0  0  0  0
   -3.3570   -6.7020    1.1350 C   0  0  0  0  0  0  0  0  0  0  0  0
   -3.0870   -4.3000    0.5360 C   0  0  0  0  0  0  0  0  0  0  0  0
   -4.5830   -4.0730    0.4510 C   0  0  0  0  0  0  0  0  0  0  0  0
    0.9010   -4.5560    0.6790 N   0  0  0  0  0  0  0  0  0  0  0  0
    1.1740   -5.5360   -0.1800 O   0  0  0  0  0  0  0  0  0  0  0  0
    1.1830   -5.3130    1.7390 O   0  0  0  0  0  0  0  0  0  0  0  0
  1 18  1  0  0  0  0
  2  1  1  1  0  0  0
  2  3  1  0  0  0  0
  3  5  2  0  0  0  0
  4  6  1  0  0  0  0
  4  3  1  0  0  0  0
  6  9  2  0  0  0  0
  7  4  1  0  0  0  0
  8 10  2  0  0  0  0
  8  6  1  0  0  0  0
  9 12  1  0  0  0  0
 10 11  1  0  0  0  0
 11 15  1  0  0  0  0
 11 12  2  0  0  0  0
 13  7  2  0  0  0  0
 13  2  1  0  0  0  0
 14 13  1  0  0  0  0
 15 17  1  0  0  0  0
 16 15  2  0  0  0  0
 18 19  1  0  0  0  0
 19 20  1  0  0  0  0
 20 22  1  0  0  0  0
 21 20  2  0  0  0  0
 22 24  1  0  0  0  0
 23 21  1  0  0  0  0
 23 18  2  0  0  0  0
 24 31  1  0  0  0  0
 24 26  2  0  0  0  0
 25 22  2  0  0  0  0
 25 29  1  0  0  0  0
 27 26  1  0  0  0  0
 27 28  1  0  0  0  0
 29 27  2  0  0  0  0
 30 29  1  0  0  0  0
 31 33  1  0  0  0  0
 32 31  1  0  0  0  0
M  END
