pdbs/s4.pdb
 OpenBabel07211515353D

 26 25  0  0  0  0  0  0  0  0999 V2000
   -2.7350   -1.6840   -2.3380 C   0  0  0  0  0  0  0  0  0  0  0  0
   -4.0680   -2.4040   -2.3670 C   0  0  0  0  0  0  0  0  0  0  0  0
   -4.8390   -2.7830   -3.4150 C   0  0  0  0  0  0  0  0  0  0  0  0
   -6.0160   -3.4280   -3.0900 C   0  0  0  0  0  0  0  0  0  0  0  0
   -6.8100   -3.8280   -3.9200 O   0  0  0  0  0  0  0  0  0  0  0  0
   -6.3470   -3.6510   -1.7690 O   0  0  0  0  0  0  0  0  0  0  0  0
   -7.5460   -4.3050   -1.4470 C   0  0  0  0  0  0  0  0  0  0  0  0
   -7.6500   -4.4100    0.0720 C   0  0  0  0  0  0  0  0  0  0  0  0
   -4.4260   -2.5170   -4.7040 C   0  0  0  0  0  0  0  0  0  0  0  0
   -5.0760   -2.8320   -5.6820 O   0  0  0  0  0  0  0  0  0  0  0  0
   -3.2400   -1.8700   -4.9490 O   0  0  0  0  0  0  0  0  0  0  0  0
   -2.8300   -1.6080   -6.2640 C   0  0  0  0  0  0  0  0  0  0  0  0
   -1.4850   -0.8890   -6.2130 C   0  0  0  0  0  0  0  0  0  0  0  0
   -2.2140   -1.4420   -0.9090 C   0  0  0  0  0  0  0  0  0  0  0  0
   -0.8640   -0.7040   -0.9100 C   0  0  0  0  0  0  0  0  0  0  0  0
   -0.3460   -0.4520    0.5150 C   0  0  0  0  0  0  0  0  0  0  0  0
    0.9970    0.2970    0.5160 C   0  0  0  0  0  0  0  0  0  0  0  0
    1.5080    0.5590    1.9420 C   0  0  0  0  0  0  0  0  0  0  0  0
    2.8440    1.3190    1.9450 C   0  0  0  0  0  0  0  0  0  0  0  0
    3.3480    1.5910    3.3720 C   0  0  0  0  0  0  0  0  0  0  0  0
    4.6780    2.3610    3.3760 C   0  0  0  0  0  0  0  0  0  0  0  0
    5.1750    2.6410    4.8040 C   0  0  0  0  0  0  0  0  0  0  0  0
    6.5010    3.4190    4.8100 C   0  0  0  0  0  0  0  0  0  0  0  0
    6.9940    3.7030    6.2380 C   0  0  0  0  0  0  0  0  0  0  0  0
    8.3180    4.4840    6.2440 C   0  0  0  0  0  0  0  0  0  0  0  0
    8.8060    4.7680    7.6710 C   0  0  0  0  0  0  0  0  0  0  0  0
  1 14  1  0  0  0  0
  2  1  1  0  0  0  0
  3  4  1  0  0  0  0
  3  2  2  0  0  0  0
  4  6  1  0  0  0  0
  5  4  2  0  0  0  0
  6  7  1  0  0  0  0
  7  8  1  0  0  0  0
  9  3  1  0  0  0  0
 10  9  2  0  0  0  0
 11  9  1  0  0  0  0
 12 13  1  0  0  0  0
 12 11  1  0  0  0  0
 15 14  1  0  0  0  0
 15 16  1  0  0  0  0
 16 17  1  0  0  0  0
 17 18  1  0  0  0  0
 18 19  1  0  0  0  0
 19 20  1  0  0  0  0
 20 21  1  0  0  0  0
 21 22  1  0  0  0  0
 22 23  1  0  0  0  0
 23 24  1  0  0  0  0
 24 25  1  0  0  0  0
 25 26  1  0  0  0  0
M  END
