REMARK  15 active torsions:
REMARK  status: ('A' for Active; 'I' for Inactive)
REMARK    1  A    between atoms: C_1  and  O_7 
REMARK    2  A    between atoms: C_2  and  O_10 
REMARK    3  A    between atoms: C_3  and  O_11 
REMARK    4  A    between atoms: C_4  and  O_12 
REMARK    5  A    between atoms: C_6  and  C_8 
REMARK    6  A    between atoms: C_8  and  O_9 
REMARK    7  A    between atoms: O_12  and  C_13 
REMARK    8  A    between atoms: C_13  and  C_14 
REMARK    9  A    between atoms: C_15  and  C_16 
REMARK   10  A    between atoms: C_16  and  C_17 
REMARK   11  A    between atoms: C_17  and  C_18 
REMARK   12  A    between atoms: C_18  and  C_19 
REMARK   13  A    between atoms: C_19  and  C_20 
REMARK   14  A    between atoms: C_20  and  C_21 
REMARK   15  A    between atoms: C_21  and  C_22 
ROOT
HETATM    1  C   LIG     1       0.807   1.263  -0.309  1.00  0.00     0.180 C 
HETATM    2  C   LIG     1       1.564  -0.019   0.062  1.00  0.00     0.183 C 
HETATM    3  C   LIG     1       0.782  -1.242  -0.426  1.00  0.00     0.204 C 
HETATM    4  C   LIG     1      -0.632  -1.202   0.193  1.00  0.00     0.291 C 
HETATM    5  O   LIG     1      -1.294   0.004  -0.244  1.00  0.00    -0.348 OA
HETATM    6  C   LIG     1      -0.639   1.199   0.222  1.00  0.00     0.179 C 
ENDROOT
BRANCH   4   7
HETATM    7  O   LIG     1      -0.622  -1.248   1.626  1.00  0.00    -0.355 OA
BRANCH   7   8
HETATM    8  C   LIG     1      -0.479  -2.577   2.119  1.00  0.00     0.198 C 
BRANCH   8   9
HETATM    9  C   LIG     1      -0.499  -2.549   3.616  1.00  0.00    -0.005 C 
HETATM   10  C   LIG     1       0.318  -3.323   4.353  1.00  0.00    -0.029 C 
BRANCH  10  11
HETATM   11  C   LIG     1       0.323  -3.379   5.852  1.00  0.00     0.027 C 
BRANCH  11  12
HETATM   12  C   LIG     1       0.956  -4.687   6.340  1.00  0.00     0.004 C 
BRANCH  12  13
HETATM   13  C   LIG     1       1.003  -4.756   7.864  1.00  0.00     0.000 C 
BRANCH  13  14
HETATM   14  C   LIG     1       1.678  -6.045   8.337  1.00  0.00     0.000 C 
BRANCH  14  15
HETATM   15  C   LIG     1       1.709  -6.118   9.863  1.00  0.00     0.000 C 
BRANCH  15  16
HETATM   16  C   LIG     1       2.379  -7.403  10.349  1.00  0.00    -0.000 C 
BRANCH  16  17
HETATM   17  C   LIG     1       2.393  -7.467  11.876  1.00  0.00    -0.005 C 
HETATM   18  C   LIG     1       3.055  -8.741  12.375  1.00  0.00     0.005 C 
ENDBRANCH  16  17
ENDBRANCH  15  16
ENDBRANCH  14  15
ENDBRANCH  13  14
ENDBRANCH  12  13
ENDBRANCH  11  12
ENDBRANCH  10  11
ENDBRANCH   8   9
ENDBRANCH   7   8
ENDBRANCH   4   7
BRANCH   3  19
HETATM   19  O   LIG     1       1.513  -2.438  -0.143  1.00  0.00    -0.388 OA
HETATM   20  H   LIG     1       2.454  -2.198  -0.270  1.00  0.00     0.210 HD
ENDBRANCH   3  19
BRANCH   2  21
HETATM   21  O   LIG     1       2.861  -0.039  -0.560  1.00  0.00    -0.390 OA
HETATM   22  H   LIG     1       2.760   0.480  -1.386  1.00  0.00     0.210 HD
ENDBRANCH   2  21
BRANCH   6  23
HETATM   23  C   LIG     1      -1.478   2.406  -0.221  1.00  0.00     0.198 C 
BRANCH  23  24
HETATM   24  O   LIG     1      -0.956   3.624   0.294  1.00  0.00    -0.398 OA
HETATM   25  H   LIG     1      -1.180   3.665   1.240  1.00  0.00     0.209 HD
ENDBRANCH  23  24
ENDBRANCH   6  23
BRANCH   1  26
HETATM   26  O   LIG     1       0.855   1.371  -1.747  1.00  0.00    -0.390 OA
HETATM   27  H   LIG     1       0.019   1.014  -2.103  1.00  0.00     0.210 HD
ENDBRANCH   1  26
TORSDOF 15
