REMARK  13 active torsions:
REMARK  status: ('A' for Active; 'I' for Inactive)
REMARK    1  A    between atoms: C_1  and  O_7 
REMARK    2  A    between atoms: C_2  and  O_10 
REMARK    3  A    between atoms: C_3  and  O_11 
REMARK    4  A    between atoms: C_4  and  O_12 
REMARK    5  A    between atoms: C_6  and  C_8 
REMARK    6  A    between atoms: C_8  and  O_9 
REMARK    7  A    between atoms: O_12  and  C_13 
REMARK    8  A    between atoms: C_13  and  C_14 
REMARK    9  A    between atoms: C_15  and  C_16 
REMARK   10  A    between atoms: C_16  and  C_17 
REMARK   11  A    between atoms: C_17  and  C_18 
REMARK   12  A    between atoms: C_18  and  C_19 
REMARK   13  A    between atoms: C_19  and  C_20 
ROOT
HETATM    1  C   LIG     1       0.761   1.230  -0.274  1.00  0.00     0.180 C 
HETATM    2  C   LIG     1       1.489  -0.040   0.193  1.00  0.00     0.183 C 
HETATM    3  C   LIG     1       0.727  -1.269  -0.318  1.00  0.00     0.204 C 
HETATM    4  C   LIG     1      -0.714  -1.204   0.246  1.00  0.00     0.291 C 
HETATM    5  O   LIG     1      -1.353  -0.004  -0.237  1.00  0.00    -0.348 OA
HETATM    6  C   LIG     1      -0.699   1.196   0.219  1.00  0.00     0.179 C 
ENDROOT
BRANCH   4   7
HETATM    7  O   LIG     1      -0.770  -1.220   1.679  1.00  0.00    -0.355 OA
BRANCH   7   8
HETATM    8  C   LIG     1      -0.303  -2.456   2.196  1.00  0.00     0.198 C 
BRANCH   8   9
HETATM    9  C   LIG     1      -0.376  -2.452   3.680  1.00  0.00    -0.005 C 
HETATM   10  C   LIG     1       0.234  -3.448   4.334  1.00  0.00    -0.029 C 
BRANCH  10  11
HETATM   11  C   LIG     1       0.333  -3.479   5.828  1.00  0.00     0.027 C 
BRANCH  11  12
HETATM   12  C   LIG     1       1.026  -4.750   6.269  1.00  0.00     0.004 C 
BRANCH  12  13
HETATM   13  C   LIG     1       1.037  -4.799   7.783  1.00  0.00     0.000 C 
BRANCH  13  14
HETATM   14  C   LIG     1       1.707  -6.067   8.270  1.00  0.00    -0.000 C 
BRANCH  14  15
HETATM   15  C   LIG     1       1.707  -6.110   9.790  1.00  0.00    -0.005 C 
HETATM   16  C   LIG     1       2.368  -7.382  10.282  1.00  0.00     0.005 C 
ENDBRANCH  14  15
ENDBRANCH  13  14
ENDBRANCH  12  13
ENDBRANCH  11  12
ENDBRANCH  10  11
ENDBRANCH   8   9
ENDBRANCH   7   8
ENDBRANCH   4   7
BRANCH   3  17
HETATM   17  O   LIG     1       1.423  -2.486  -0.021  1.00  0.00    -0.388 OA
HETATM   18  H   LIG     1       2.199  -2.242   0.524  1.00  0.00     0.210 HD
ENDBRANCH   3  17
BRANCH   2  19
HETATM   19  O   LIG     1       2.830  -0.075  -0.301  1.00  0.00    -0.390 OA
HETATM   20  H   LIG     1       2.771   0.149  -1.252  1.00  0.00     0.210 HD
ENDBRANCH   2  19
BRANCH   6  21
HETATM   21  C   LIG     1      -1.503   2.409  -0.267  1.00  0.00     0.198 C 
BRANCH  21  22
HETATM   22  O   LIG     1      -0.938   3.633   0.193  1.00  0.00    -0.398 OA
HETATM   23  H   LIG     1      -0.977   3.635   1.165  1.00  0.00     0.209 HD
ENDBRANCH  21  22
ENDBRANCH   6  21
BRANCH   1  24
HETATM   24  O   LIG     1       0.838   1.262  -1.714  1.00  0.00    -0.390 OA
HETATM   25  H   LIG     1       0.099   0.732  -2.067  1.00  0.00     0.210 HD
ENDBRANCH   1  24
TORSDOF 13
