REMARK  6 active torsions:
REMARK  status: ('A' for Active; 'I' for Inactive)
REMARK    1  A    between atoms: C_1  and  O_7 
REMARK    2  A    between atoms: C_2  and  O_10 
REMARK    3  A    between atoms: C_3  and  O_11 
REMARK    4  A    between atoms: C_4  and  O_12 
REMARK    5  A    between atoms: C_6  and  C_8 
REMARK    6  A    between atoms: C_8  and  O_9 
ROOT
HETATM    1  C   LIG     1       0.801   1.201  -0.284  1.00  0.00     0.180 C 
HETATM    2  C   LIG     1       1.548  -0.057   0.184  1.00  0.00     0.183 C 
HETATM    3  C   LIG     1       0.768  -1.318  -0.206  1.00  0.00     0.204 C 
HETATM    4  C   LIG     1      -0.675  -1.218   0.335  1.00  0.00     0.290 C 
HETATM    5  O   LIG     1      -1.297  -0.036  -0.214  1.00  0.00    -0.349 OA
HETATM    6  C   LIG     1      -0.650   1.172   0.232  1.00  0.00     0.179 C 
ENDROOT
BRANCH   6   7
HETATM    7  C   LIG     1      -1.474   2.370  -0.252  1.00  0.00     0.198 C 
BRANCH   7   8
HETATM    8  O   LIG     1      -0.969   3.592   0.272  1.00  0.00    -0.398 OA
HETATM    9  H   LIG     1      -1.241   3.646   1.205  1.00  0.00     0.209 HD
ENDBRANCH   7   8
ENDBRANCH   6   7
BRANCH   1  10
HETATM   10  O   LIG     1       0.859   1.210  -1.726  1.00  0.00    -0.390 OA
HETATM   11  H   LIG     1       0.018   0.843  -2.059  1.00  0.00     0.210 HD
ENDBRANCH   1  10
BRANCH   2  12
HETATM   12  O   LIG     1       2.846  -0.123  -0.434  1.00  0.00    -0.390 OA
HETATM   13  H   LIG     1       2.749   0.344  -1.291  1.00  0.00     0.210 HD
ENDBRANCH   2  12
BRANCH   4  14
HETATM   14  O   LIG     1      -0.774  -1.159   1.760  1.00  0.00    -0.363 OA
HETATM   15  C   LIG     1      -0.478  -2.389   2.408  1.00  0.00     0.204 C 
ENDBRANCH   4  14
BRANCH   3  16
HETATM   16  O   LIG     1       1.471  -2.486   0.232  1.00  0.00    -0.388 OA
HETATM   17  H   LIG     1       2.414  -2.296   0.051  1.00  0.00     0.210 HD
ENDBRANCH   3  16
TORSDOF 6
