REMARK  6 active torsions:
REMARK  status: ('A' for Active; 'I' for Inactive)
REMARK    1  A    between atoms: C_1  and  O_7 
REMARK    2  A    between atoms: C_2  and  O_10 
REMARK    3  A    between atoms: C_3  and  O_12 
REMARK    4  A    between atoms: C_4  and  O_11 
REMARK    5  A    between atoms: C_6  and  C_8 
REMARK    6  A    between atoms: C_8  and  O_9 
ROOT
HETATM    1  C   LIG     1       0.766   1.197  -0.258  1.00  0.00     0.180 C 
HETATM    2  C   LIG     1       1.405  -0.095   0.268  1.00  0.00     0.183 C 
HETATM    3  C   LIG     1       0.595  -1.319  -0.169  1.00  0.00     0.204 C 
HETATM    4  C   LIG     1      -0.895  -1.127   0.182  1.00  0.00     0.288 C 
HETATM    5  O   LIG     1      -1.382   0.098  -0.370  1.00  0.00    -0.349 OA
HETATM    6  C   LIG     1      -0.708   1.240   0.181  1.00  0.00     0.179 C 
ENDROOT
BRANCH   6   7
HETATM    7  C   LIG     1      -1.423   2.508  -0.292  1.00  0.00     0.198 C 
BRANCH   7   8
HETATM    8  O   LIG     1      -0.896   3.657   0.361  1.00  0.00    -0.398 OA
HETATM    9  H   LIG     1      -1.385   3.772   1.195  1.00  0.00     0.209 HD
ENDBRANCH   7   8
ENDBRANCH   6   7
BRANCH   1  10
HETATM   10  O   LIG     1       0.893   1.178  -1.693  1.00  0.00    -0.390 OA
HETATM   11  H   LIG     1       0.053   0.836  -2.059  1.00  0.00     0.210 HD
ENDBRANCH   1  10
BRANCH   2  12
HETATM   12  O   LIG     1       2.743  -0.236  -0.235  1.00  0.00    -0.390 OA
HETATM   13  H   LIG     1       2.740   0.198  -1.114  1.00  0.00     0.210 HD
ENDBRANCH   2  12
BRANCH   4  14
HETATM   14  O   LIG     1      -1.666  -2.197  -0.349  1.00  0.00    -0.369 OA
HETATM   15  H   LIG     1      -1.038  -2.913  -0.560  1.00  0.00     0.212 HD
ENDBRANCH   4  14
BRANCH   3  16
HETATM   16  O   LIG     1       1.113  -2.503   0.451  1.00  0.00    -0.388 OA
HETATM   17  H   LIG     1       2.087  -2.429   0.379  1.00  0.00     0.210 HD
ENDBRANCH   3  16
TORSDOF 6
