REMARK  15 active torsions:
REMARK  status: ('A' for Active; 'I' for Inactive)
REMARK    1  A    between atoms: C_1  and  O_7 
REMARK    2  A    between atoms: C_2  and  O_10 
REMARK    3  A    between atoms: C_3  and  O_11 
REMARK    4  A    between atoms: C_4  and  O_12 
REMARK    5  A    between atoms: C_6  and  C_8 
REMARK    6  A    between atoms: C_8  and  O_9 
REMARK    7  A    between atoms: O_12  and  C_13 
REMARK    8  A    between atoms: C_13  and  C_14 
REMARK    9  A    between atoms: C_15  and  C_16 
REMARK   10  A    between atoms: C_16  and  C_17 
REMARK   11  A    between atoms: C_17  and  C_18 
REMARK   12  A    between atoms: C_18  and  C_19 
REMARK   13  A    between atoms: C_19  and  C_20 
REMARK   14  A    between atoms: C_20  and  C_21 
REMARK   15  A    between atoms: C_21  and  C_22 
ROOT
HETATM    1  C   LIG     1       0.851   1.231  -0.384  1.00  0.00     0.180 C 
HETATM    2  C   LIG     1       1.775   0.089   0.042  1.00  0.00     0.183 C 
HETATM    3  C   LIG     1       1.028  -1.249   0.149  1.00  0.00     0.204 C 
HETATM    4  C   LIG     1      -0.282  -1.091   0.965  1.00  0.00     0.291 C 
HETATM    5  O   LIG     1      -1.043   0.030   0.471  1.00  0.00    -0.348 OA
HETATM    6  C   LIG     1      -0.337   1.270   0.583  1.00  0.00     0.179 C 
ENDROOT
BRANCH   4   7
HETATM    7  O   LIG     1      -1.157  -2.215   0.841  1.00  0.00    -0.355 OA
BRANCH   7   8
HETATM    8  C   LIG     1      -0.726  -3.417   1.465  1.00  0.00     0.198 C 
BRANCH   8   9
HETATM    9  C   LIG     1      -0.758  -3.311   2.961  1.00  0.00    -0.005 C 
HETATM   10  C   LIG     1       0.324  -3.482   3.740  1.00  0.00    -0.029 C 
BRANCH  10  11
HETATM   11  C   LIG     1       0.310  -3.431   5.241  1.00  0.00     0.027 C 
BRANCH  11  12
HETATM   12  C   LIG     1       0.867  -4.729   5.833  1.00  0.00     0.004 C 
BRANCH  12  13
HETATM   13  C   LIG     1       0.900  -4.688   7.363  1.00  0.00     0.000 C 
BRANCH  13  14
HETATM   14  C   LIG     1       1.524  -5.963   7.934  1.00  0.00     0.000 C 
BRANCH  14  15
HETATM   15  C   LIG     1       1.560  -5.940   9.463  1.00  0.00     0.000 C 
BRANCH  15  16
HETATM   16  C   LIG     1       2.220  -7.203  10.020  1.00  0.00    -0.000 C 
BRANCH  16  17
HETATM   17  C   LIG     1       2.247  -7.193  11.548  1.00  0.00    -0.005 C 
HETATM   18  C   LIG     1       2.913  -8.444  12.102  1.00  0.00     0.005 C 
ENDBRANCH  16  17
ENDBRANCH  15  16
ENDBRANCH  14  15
ENDBRANCH  13  14
ENDBRANCH  12  13
ENDBRANCH  11  12
ENDBRANCH  10  11
ENDBRANCH   8   9
ENDBRANCH   7   8
ENDBRANCH   4   7
BRANCH   3  19
HETATM   19  O   LIG     1       1.941  -2.192   0.738  1.00  0.00    -0.388 OA
HETATM   20  H   LIG     1       2.778  -2.082   0.241  1.00  0.00     0.210 HD
ENDBRANCH   3  19
BRANCH   2  21
HETATM   21  O   LIG     1       2.849  -0.067  -0.902  1.00  0.00    -0.390 OA
HETATM   22  H   LIG     1       2.477   0.200  -1.768  1.00  0.00     0.210 HD
ENDBRANCH   2  21
BRANCH   6  23
HETATM   23  C   LIG     1      -1.298   2.419   0.279  1.00  0.00     0.198 C 
BRANCH  23  24
HETATM   24  O   LIG     1      -0.692   3.652   0.650  1.00  0.00    -0.398 OA
HETATM   25  H   LIG     1      -1.406   4.248   0.939  1.00  0.00     0.209 HD
ENDBRANCH  23  24
ENDBRANCH   6  23
BRANCH   1  26
HETATM   26  O   LIG     1       0.430   0.966  -1.736  1.00  0.00    -0.390 OA
HETATM   27  H   LIG     1      -0.404   0.457  -1.684  1.00  0.00     0.210 HD
ENDBRANCH   1  26
TORSDOF 15
