REMARK  8 active torsions:
REMARK  status: ('A' for Active; 'I' for Inactive)
REMARK    1  A    between atoms: C_1  and  O_7 
REMARK    2  A    between atoms: C_2  and  O_10 
REMARK    3  A    between atoms: C_3  and  O_11 
REMARK    4  A    between atoms: C_4  and  O_12 
REMARK    5  A    between atoms: C_6  and  C_8 
REMARK    6  A    between atoms: C_8  and  O_9 
REMARK    7  A    between atoms: O_12  and  C_13 
REMARK    8  A    between atoms: C_13  and  C_14 
ROOT
HETATM    1  C   LIG     1       0.907   1.389  -0.341  1.00  0.00     0.180 C 
HETATM    2  C   LIG     1       1.850   0.393   0.331  1.00  0.00     0.183 C 
HETATM    3  C   LIG     1       1.217  -1.000   0.464  1.00  0.00     0.204 C 
HETATM    4  C   LIG     1      -0.213  -0.906   1.056  1.00  0.00     0.291 C 
HETATM    5  O   LIG     1      -0.987   0.092   0.362  1.00  0.00    -0.348 OA
HETATM    6  C   LIG     1      -0.416   1.402   0.434  1.00  0.00     0.179 C 
ENDROOT
BRANCH   4   7
HETATM    7  O   LIG     1      -0.950  -2.121   0.901  1.00  0.00    -0.355 OA
BRANCH   7   8
HETATM    8  C   LIG     1      -0.546  -3.209   1.723  1.00  0.00     0.197 C 
BRANCH   8   9
HETATM    9  C   LIG     1      -0.877  -2.955   3.161  1.00  0.00    -0.011 C 
HETATM   10  C   LIG     1       0.025  -2.968   4.153  1.00  0.00     0.009 C 
ENDBRANCH   8   9
ENDBRANCH   7   8
ENDBRANCH   4   7
BRANCH   3  11
HETATM   11  O   LIG     1       2.102  -1.789   1.277  1.00  0.00    -0.388 OA
HETATM   12  H   LIG     1       2.993  -1.647   0.897  1.00  0.00     0.210 HD
ENDBRANCH   3  11
BRANCH   2  13
HETATM   13  O   LIG     1       3.066   0.264  -0.426  1.00  0.00    -0.390 OA
HETATM   14  H   LIG     1       2.806   0.401  -1.362  1.00  0.00     0.210 HD
ENDBRANCH   2  13
BRANCH   6  15
HETATM   15  C   LIG     1      -1.415   2.406  -0.148  1.00  0.00     0.198 C 
BRANCH  15  16
HETATM   16  O   LIG     1      -0.978   3.738   0.092  1.00  0.00    -0.398 OA
HETATM   17  H   LIG     1      -1.490   4.084   0.844  1.00  0.00     0.209 HD
ENDBRANCH  15  16
ENDBRANCH   6  15
BRANCH   1  18
HETATM   18  O   LIG     1       0.724   0.955  -1.702  1.00  0.00    -0.390 OA
HETATM   19  H   LIG     1      -0.074   0.389  -1.722  1.00  0.00     0.210 HD
ENDBRANCH   1  18
TORSDOF 8
