REMARK  11 active torsions:
REMARK  status: ('A' for Active; 'I' for Inactive)
REMARK    1  A    between atoms: C_1  and  O_7 
REMARK    2  A    between atoms: C_2  and  O_10 
REMARK    3  A    between atoms: C_3  and  O_11 
REMARK    4  A    between atoms: C_4  and  O_12 
REMARK    5  A    between atoms: C_6  and  C_8 
REMARK    6  A    between atoms: C_8  and  O_9 
REMARK    7  A    between atoms: O_12  and  C_13 
REMARK    8  A    between atoms: C_13  and  C_14 
REMARK    9  A    between atoms: C_15  and  C_16 
REMARK   10  A    between atoms: C_16  and  C_17 
REMARK   11  A    between atoms: C_17  and  C_18 
ROOT
HETATM    1  C   LIG     1       0.831   1.261  -0.376  1.00  0.00     0.180 C 
HETATM    2  C   LIG     1       1.514   0.004   0.177  1.00  0.00     0.183 C 
HETATM    3  C   LIG     1       0.687  -1.267  -0.079  1.00  0.00     0.204 C 
HETATM    4  C   LIG     1      -0.775  -1.029   0.353  1.00  0.00     0.291 C 
HETATM    5  O   LIG     1      -1.305   0.162  -0.240  1.00  0.00    -0.348 OA
HETATM    6  C   LIG     1      -0.598   1.331   0.184  1.00  0.00     0.179 C 
ENDROOT
BRANCH   4   7
HETATM    7  O   LIG     1      -1.618  -2.107  -0.052  1.00  0.00    -0.355 OA
BRANCH   7   8
HETATM    8  C   LIG     1      -2.033  -2.889   1.062  1.00  0.00     0.198 C 
BRANCH   8   9
HETATM    9  C   LIG     1      -3.212  -3.722   0.664  1.00  0.00    -0.005 C 
HETATM   10  C   LIG     1      -4.141  -4.107   1.551  1.00  0.00    -0.029 C 
BRANCH  10  11
HETATM   11  C   LIG     1      -5.355  -4.925   1.212  1.00  0.00     0.027 C 
BRANCH  11  12
HETATM   12  C   LIG     1      -6.034  -5.438   2.486  1.00  0.00     0.003 C 
BRANCH  12  13
HETATM   13  C   LIG     1      -7.301  -6.232   2.179  1.00  0.00    -0.004 C 
HETATM   14  C   LIG     1      -7.973  -6.706   3.459  1.00  0.00     0.005 C 
ENDBRANCH  12  13
ENDBRANCH  11  12
ENDBRANCH  10  11
ENDBRANCH   8   9
ENDBRANCH   7   8
ENDBRANCH   4   7
BRANCH   3  15
HETATM   15  O   LIG     1       1.274  -2.340   0.680  1.00  0.00    -0.388 OA
HETATM   16  H   LIG     1       2.242  -2.237   0.576  1.00  0.00     0.210 HD
ENDBRANCH   3  15
BRANCH   2  17
HETATM   17  O   LIG     1       2.814  -0.165  -0.408  1.00  0.00    -0.390 OA
HETATM   18  H   LIG     1       2.740   0.184  -1.322  1.00  0.00     0.210 HD
ENDBRANCH   2  17
BRANCH   6  19
HETATM   19  C   LIG     1      -1.373   2.559  -0.292  1.00  0.00     0.198 C 
BRANCH  19  20
HETATM   20  O   LIG     1      -0.830   3.747   0.270  1.00  0.00    -0.398 OA
HETATM   21  H   LIG     1      -1.210   3.852   1.159  1.00  0.00     0.209 HD
ENDBRANCH  19  20
ENDBRANCH   6  19
BRANCH   1  22
HETATM   22  O   LIG     1       0.840   1.160  -1.811  1.00  0.00    -0.390 OA
HETATM   23  H   LIG     1      -0.003   0.746  -2.083  1.00  0.00     0.210 HD
ENDBRANCH   1  22
TORSDOF 11
