REMARK  12 active torsions:
REMARK  status: ('A' for Active; 'I' for Inactive)
REMARK    1  A    between atoms: C_1  and  O_7 
REMARK    2  A    between atoms: C_2  and  O_10 
REMARK    3  A    between atoms: C_3  and  O_11 
REMARK    4  A    between atoms: C_4  and  O_12 
REMARK    5  A    between atoms: C_6  and  C_8 
REMARK    6  A    between atoms: C_8  and  O_9 
REMARK    7  A    between atoms: O_12  and  C_13 
REMARK    8  A    between atoms: C_13  and  C_14 
REMARK    9  A    between atoms: C_15  and  C_16 
REMARK   10  A    between atoms: C_16  and  C_17 
REMARK   11  A    between atoms: C_17  and  C_18 
REMARK   12  A    between atoms: C_18  and  C_19 
ROOT
HETATM    1  C   LIG     1       0.736   1.155  -0.427  1.00  0.00     0.180 C 
HETATM    2  C   LIG     1       1.697   0.086   0.090  1.00  0.00     0.183 C 
HETATM    3  C   LIG     1       1.001  -1.269   0.281  1.00  0.00     0.204 C 
HETATM    4  C   LIG     1      -0.320  -1.107   1.078  1.00  0.00     0.291 C 
HETATM    5  O   LIG     1      -1.120  -0.048   0.514  1.00  0.00    -0.348 OA
HETATM    6  C   LIG     1      -0.468   1.225   0.520  1.00  0.00     0.179 C 
ENDROOT
BRANCH   4   7
HETATM    7  O   LIG     1      -1.157  -2.265   1.018  1.00  0.00    -0.355 OA
BRANCH   7   8
HETATM    8  C   LIG     1      -0.676  -3.430   1.672  1.00  0.00     0.198 C 
BRANCH   8   9
HETATM    9  C   LIG     1      -0.697  -3.283   3.164  1.00  0.00    -0.005 C 
HETATM   10  C   LIG     1       0.390  -3.430   3.939  1.00  0.00    -0.029 C 
BRANCH  10  11
HETATM   11  C   LIG     1       0.384  -3.359   5.440  1.00  0.00     0.027 C 
BRANCH  11  12
HETATM   12  C   LIG     1       0.927  -4.657   6.045  1.00  0.00     0.004 C 
BRANCH  12  13
HETATM   13  C   LIG     1       0.948  -4.606   7.574  1.00  0.00    -0.000 C 
BRANCH  13  14
HETATM   14  C   LIG     1       1.547  -5.886   8.160  1.00  0.00    -0.005 C 
HETATM   15  C   LIG     1       1.566  -5.853   9.680  1.00  0.00     0.005 C 
ENDBRANCH  13  14
ENDBRANCH  12  13
ENDBRANCH  11  12
ENDBRANCH  10  11
ENDBRANCH   8   9
ENDBRANCH   7   8
ENDBRANCH   4   7
BRANCH   3  16
HETATM   16  O   LIG     1       1.945  -2.135   0.937  1.00  0.00    -0.388 OA
HETATM   17  H   LIG     1       2.779  -2.029   0.435  1.00  0.00     0.210 HD
ENDBRANCH   3  16
BRANCH   2  18
HETATM   18  O   LIG     1       2.788  -0.094  -0.829  1.00  0.00    -0.390 OA
HETATM   19  H   LIG     1       2.415   0.093  -1.717  1.00  0.00     0.210 HD
ENDBRANCH   2  18
BRANCH   6  20
HETATM   20  C   LIG     1      -1.477   2.293   0.088  1.00  0.00     0.198 C 
BRANCH  20  21
HETATM   21  O   LIG     1      -0.937   3.594   0.289  1.00  0.00    -0.398 OA
HETATM   22  H   LIG     1      -1.364   3.969   1.079  1.00  0.00     0.209 HD
ENDBRANCH  20  21
ENDBRANCH   6  20
BRANCH   1  23
HETATM   23  O   LIG     1       0.348   0.771  -1.760  1.00  0.00    -0.390 OA
HETATM   24  H   LIG     1      -0.478   0.252  -1.685  1.00  0.00     0.210 HD
ENDBRANCH   1  23
TORSDOF 12
