REMARK  13 active torsions:
REMARK  status: ('A' for Active; 'I' for Inactive)
REMARK    1  A    between atoms: C_1  and  O_7 
REMARK    2  A    between atoms: C_2  and  O_10 
REMARK    3  A    between atoms: C_3  and  O_11 
REMARK    4  A    between atoms: C_4  and  O_12 
REMARK    5  A    between atoms: C_6  and  C_8 
REMARK    6  A    between atoms: C_8  and  O_9 
REMARK    7  A    between atoms: O_12  and  C_13 
REMARK    8  A    between atoms: C_13  and  C_14 
REMARK    9  A    between atoms: C_15  and  C_16 
REMARK   10  A    between atoms: C_16  and  C_17 
REMARK   11  A    between atoms: C_17  and  C_18 
REMARK   12  A    between atoms: C_18  and  C_19 
REMARK   13  A    between atoms: C_19  and  C_20 
ROOT
HETATM    1  C   LIG     1       0.845   1.275  -0.383  1.00  0.00     0.180 C 
HETATM    2  C   LIG     1       1.527   0.021   0.177  1.00  0.00     0.183 C 
HETATM    3  C   LIG     1       0.693  -1.249  -0.062  1.00  0.00     0.204 C 
HETATM    4  C   LIG     1      -0.770  -1.004   0.367  1.00  0.00     0.291 C 
HETATM    5  O   LIG     1      -1.293   0.185  -0.237  1.00  0.00    -0.348 OA
HETATM    6  C   LIG     1      -0.581   1.354   0.180  1.00  0.00     0.179 C 
ENDROOT
BRANCH   4   7
HETATM    7  O   LIG     1      -1.617  -2.080  -0.038  1.00  0.00    -0.355 OA
BRANCH   7   8
HETATM    8  C   LIG     1      -1.970  -2.916   1.058  1.00  0.00     0.198 C 
BRANCH   8   9
HETATM    9  C   LIG     1      -3.152  -3.750   0.666  1.00  0.00    -0.005 C 
HETATM   10  C   LIG     1      -4.132  -4.061   1.528  1.00  0.00    -0.029 C 
BRANCH  10  11
HETATM   11  C   LIG     1      -5.340  -4.886   1.184  1.00  0.00     0.027 C 
BRANCH  11  12
HETATM   12  C   LIG     1      -6.011  -5.419   2.455  1.00  0.00     0.004 C 
BRANCH  12  13
HETATM   13  C   LIG     1      -7.277  -6.217   2.143  1.00  0.00     0.000 C 
BRANCH  13  14
HETATM   14  C   LIG     1      -7.948  -6.694   3.432  1.00  0.00    -0.000 C 
BRANCH  14  15
HETATM   15  C   LIG     1      -9.217  -7.493   3.141  1.00  0.00    -0.005 C 
HETATM   16  C   LIG     1      -9.879  -7.967   4.425  1.00  0.00     0.005 C 
ENDBRANCH  14  15
ENDBRANCH  13  14
ENDBRANCH  12  13
ENDBRANCH  11  12
ENDBRANCH  10  11
ENDBRANCH   8   9
ENDBRANCH   7   8
ENDBRANCH   4   7
BRANCH   3  17
HETATM   17  O   LIG     1       1.285  -2.319   0.696  1.00  0.00    -0.388 OA
HETATM   18  H   LIG     1       2.245  -2.265   0.512  1.00  0.00     0.210 HD
ENDBRANCH   3  17
BRANCH   2  19
HETATM   19  O   LIG     1       2.821  -0.159  -0.418  1.00  0.00    -0.390 OA
HETATM   20  H   LIG     1       2.743   0.195  -1.329  1.00  0.00     0.210 HD
ENDBRANCH   2  19
BRANCH   6  21
HETATM   21  C   LIG     1      -1.351   2.584  -0.301  1.00  0.00     0.198 C 
BRANCH  21  22
HETATM   22  O   LIG     1      -0.812   3.769   0.270  1.00  0.00    -0.398 OA
HETATM   23  H   LIG     1      -1.211   3.878   1.152  1.00  0.00     0.209 HD
ENDBRANCH  21  22
ENDBRANCH   6  21
BRANCH   1  24
HETATM   24  O   LIG     1       0.848   1.160  -1.818  1.00  0.00    -0.390 OA
HETATM   25  H   LIG     1       0.003   0.745  -2.081  1.00  0.00     0.210 HD
ENDBRANCH   1  24
TORSDOF 13
