REMARK  6 active torsions:
REMARK  status: ('A' for Active; 'I' for Inactive)
REMARK    1  A    between atoms: C_1  and  O_7 
REMARK    2  A    between atoms: C_2  and  O_10 
REMARK    3  A    between atoms: C_3  and  O_12 
REMARK    4  A    between atoms: C_4  and  O_11 
REMARK    5  A    between atoms: C_6  and  C_8 
REMARK    6  A    between atoms: C_8  and  O_9 
ROOT
HETATM    1  C   LIG     1       0.776   1.194  -0.330  1.00  0.00     0.180 C 
HETATM    2  C   LIG     1       1.533  -0.008   0.235  1.00  0.00     0.183 C 
HETATM    3  C   LIG     1       0.771  -1.315  -0.006  1.00  0.00     0.204 C 
HETATM    4  C   LIG     1      -0.705  -1.176   0.424  1.00  0.00     0.290 C 
HETATM    5  O   LIG     1      -1.315  -0.001  -0.128  1.00  0.00    -0.349 OA
HETATM    6  C   LIG     1      -0.643   1.206   0.259  1.00  0.00     0.179 C 
ENDROOT
BRANCH   6   7
HETATM    7  C   LIG     1      -1.458   2.407  -0.233  1.00  0.00     0.198 C 
BRANCH   7   8
HETATM    8  O   LIG     1      -0.942   3.620   0.301  1.00  0.00    -0.398 OA
HETATM    9  H   LIG     1      -1.346   3.753   1.179  1.00  0.00     0.209 HD
ENDBRANCH   7   8
ENDBRANCH   6   7
BRANCH   1  10
HETATM   10  O   LIG     1       0.757   1.058  -1.764  1.00  0.00    -0.390 OA
HETATM   11  H   LIG     1      -0.063   0.583  -2.004  1.00  0.00     0.210 HD
ENDBRANCH   1  10
BRANCH   2  12
HETATM   12  O   LIG     1       2.829  -0.115  -0.377  1.00  0.00    -0.390 OA
HETATM   13  H   LIG     1       2.713   0.208  -1.295  1.00  0.00     0.210 HD
ENDBRANCH   2  12
BRANCH   4  14
HETATM   14  O   LIG     1      -1.412  -2.319  -0.065  1.00  0.00    -0.363 OA
HETATM   15  C   LIG     1      -2.517  -2.658   0.757  1.00  0.00     0.204 C 
ENDBRANCH   4  14
BRANCH   3  16
HETATM   16  O   LIG     1       1.428  -2.359   0.734  1.00  0.00    -0.388 OA
HETATM   17  H   LIG     1       2.369  -2.304   0.477  1.00  0.00     0.210 HD
ENDBRANCH   3  16
TORSDOF 6
