REMARK  19 active torsions:
REMARK  status: ('A' for Active; 'I' for Inactive)
REMARK    1  A    between atoms: C_1  and  C_3 
REMARK    2  A    between atoms: C_1  and  O_13 
REMARK    3  A    between atoms: O_2  and  C_3 
REMARK    4  A    between atoms: C_3  and  C_11 
REMARK    5  A    between atoms: O_4  and  C_5 
REMARK    6  A    between atoms: O_6  and  C_7 
REMARK    7  A    between atoms: O_8  and  C_9 
REMARK    8  A    between atoms: C_12  and  O_40 
REMARK    9  A    between atoms: C_22  and  N_23 
REMARK   10  A    between atoms: C_24  and  O_25 
REMARK   11  A    between atoms: C_26  and  O_27 
REMARK   12  A    between atoms: C_28  and  C_31 
REMARK   13  A    between atoms: C_31  and  O_32 
REMARK   14  A    between atoms: O_32  and  P_33 
REMARK   15  A    between atoms: P_33  and  O_35 
REMARK   16  A    between atoms: P_33  and  O_36 
REMARK   17  A    between atoms: O_36  and  P_37 
REMARK   18  A    between atoms: P_37  and  O_40 
REMARK   19  A    between atoms: P_37  and  O_39 
ROOT
HETATM    1  P           1      42.624   9.514   1.285  0.00  0.00     0.401 P 
HETATM    2  O           1      41.872  10.267   0.247  0.00  0.00    -0.631 OA
ENDROOT
BRANCH   1   3
HETATM    3  O           1      43.359  10.649   2.235  0.00  0.00    -0.294 OA
BRANCH   3   4
HETATM    4  C           1      44.478  10.285   3.003  0.00  0.00     0.215 C 
BRANCH   4   5
HETATM    5  C           1      44.881  11.460   3.886  0.00  0.00     0.180 C 
HETATM    6  C           1      45.385  12.685   3.128  0.00  0.00     0.182 C 
HETATM    7  C           1      46.744  12.959   3.746  0.00  0.00     0.198 C 
HETATM    8  C           1      46.658  12.214   5.064  0.00  0.00     0.262 C 
HETATM    9  N           1      47.953  11.875   5.668  0.00  0.00    -0.294 N 
HETATM   10  O           1      45.905  11.064   4.756  0.00  0.00    -0.353 OA
HETATM   11  C           1      48.789  11.082   5.147  0.00  0.00     0.214 A 
HETATM   12  C           1      48.360  12.325   6.776  0.00  0.00     0.167 A 
HETATM   13  N           1      49.796  10.975   5.905  0.00  0.00    -0.236 NA
HETATM   14  C           1      49.556  11.723   6.902  0.00  0.00     0.149 A 
HETATM   15  C           1      50.298  11.966   7.995  0.00  0.00     0.155 A 
HETATM   16  N           1      49.827  12.761   8.865  0.00  0.00    -0.222 NA
HETATM   17  C           1      48.689  13.283   8.657  0.00  0.00     0.237 A 
HETATM   18  N           1      47.924  13.111   7.662  0.00  0.00    -0.222 NA
BRANCH   6  19
HETATM   19  O           1      44.549  13.791   3.373  0.00  0.00    -0.390 OA
HETATM   20  H           1      43.718  13.700   2.902  0.00  0.00     0.210 HD
ENDBRANCH   6  19
BRANCH   7  21
HETATM   21  O           1      46.959  14.338   3.934  0.00  0.00    -0.388 OA
HETATM   22  H           1      46.111  14.780   4.022  0.00  0.00     0.210 HD
ENDBRANCH   7  21
BRANCH  15  23
HETATM   23  N           1      51.426  11.398   8.108  0.00  0.00    -0.382 N 
HETATM   24  H           1      52.022  11.577   8.952  0.00  0.00     0.157 HD
HETATM   25  H           1      51.768  10.748   7.358  0.00  0.00     0.157 HD
ENDBRANCH  15  23
ENDBRANCH   4   5
ENDBRANCH   3   4
ENDBRANCH   1   3
BRANCH   1  26
HETATM   26  O           1      41.595   9.117   2.476  0.00  0.00    -0.307 OA
HETATM   27  H           1      41.582   9.796   3.126  0.00  0.00     0.222 HD
ENDBRANCH   1  26
BRANCH   1  28
HETATM   28  O           1      43.636   8.425   0.723  0.00  0.00    -0.195 OA
BRANCH  28  29
HETATM   29  P           1      43.277   6.889   0.951  0.00  0.00     0.404 P 
HETATM   30  O           1      43.717   6.016  -0.170  0.00  0.00    -0.631 OA
BRANCH  29  31
HETATM   31  O           1      41.830   6.421   1.548  0.00  0.00    -0.263 OA
BRANCH  31  32
HETATM   32  C           1      41.110   5.357   0.959  0.00  0.00     0.303 C 
HETATM   33  C           1      40.088   4.835   1.947  0.00  0.00     0.205 C 
HETATM   34  C           1      39.242   3.776   1.265  0.00  0.00     0.183 C 
HETATM   35  C           1      38.608   4.436   0.059  0.00  0.00     0.181 C 
HETATM   36  C           1      39.693   4.987  -0.864  0.00  0.00     0.186 C 
HETATM   37  O           1      40.461   5.929  -0.161  0.00  0.00    -0.347 OA
BRANCH  33  38
HETATM   38  O           1      40.741   4.246   3.044  0.00  0.00    -0.388 OA
HETATM   39  H           1      40.083   4.045   3.715  0.00  0.00     0.210 HD
ENDBRANCH  33  38
BRANCH  34  40
HETATM   40  O           1      38.252   3.300   2.144  0.00  0.00    -0.390 OA
HETATM   41  H           1      38.353   2.352   2.263  0.00  0.00     0.210 HD
ENDBRANCH  34  40
BRANCH  35  42
HETATM   42  O           1      37.797   3.503  -0.607  0.00  0.00    -0.390 OA
HETATM   43  H           1      37.107   3.226   0.002  0.00  0.00     0.210 HD
ENDBRANCH  35  42
BRANCH  36  44
HETATM   44  C           1      39.116   5.605  -2.138  0.00  0.00     0.173 C 
BRANCH  44  45
HETATM   45  C           1      40.081   6.486  -2.910  0.00  0.00     0.198 C 
BRANCH  45  46
HETATM   46  O           1      41.257   5.773  -3.229  0.00  0.00    -0.398 OA
HETATM   47  H           1      41.942   6.392  -3.491  0.00  0.00     0.209 HD
ENDBRANCH  45  46
ENDBRANCH  44  45
BRANCH  44  48
HETATM   48  O           1      37.971   6.368  -1.837  0.00  0.00    -0.391 OA
HETATM   49  H           1      37.227   5.772  -1.714  0.00  0.00     0.210 HD
ENDBRANCH  44  48
ENDBRANCH  36  44
ENDBRANCH  31  32
ENDBRANCH  29  31
BRANCH  29  50
HETATM   50  O           1      44.071   6.300   2.258  0.00  0.00    -0.307 OA
HETATM   51  H           1      43.443   6.035   2.908  0.00  0.00     0.222 HD
ENDBRANCH  29  50
ENDBRANCH  28  29
ENDBRANCH   1  28
TORSDOF 19
