REMARK  15 active torsions:
REMARK  status: ('A' for Active; 'I' for Inactive)
REMARK    1  A    between atoms: C_1  and  O_23 
REMARK    2  A    between atoms: C_2  and  O_9 
REMARK    3  A    between atoms: C_3  and  O_10 
REMARK    4  A    between atoms: C_4  and  O_11 
REMARK    5  A    between atoms: C_6  and  C_7 
REMARK    6  A    between atoms: C_7  and  O_8 
REMARK    7  A    between atoms: O_11  and  C_12 
REMARK    8  A    between atoms: C_12  and  C_13 
REMARK    9  A    between atoms: C_14  and  C_15 
REMARK   10  A    between atoms: C_15  and  C_16 
REMARK   11  A    between atoms: C_16  and  C_17 
REMARK   12  A    between atoms: C_17  and  C_18 
REMARK   13  A    between atoms: C_18  and  C_19 
REMARK   14  A    between atoms: C_19  and  C_20 
REMARK   15  A    between atoms: C_20  and  C_21 
ROOT
HETATM    1  C   LIG     1       0.769   1.299  -0.252  1.00  0.00     0.180 C 
HETATM    2  C   LIG     1       1.518  -0.011   0.031  1.00  0.00     0.183 C 
HETATM    3  C   LIG     1       0.704  -1.201  -0.461  1.00  0.00     0.204 C 
HETATM    4  C   LIG     1      -0.675  -1.171   0.223  1.00  0.00     0.291 C 
HETATM    5  O   LIG     1      -1.353   0.033  -0.163  1.00  0.00    -0.348 OA
HETATM    6  C   LIG     1      -0.689   1.237   0.256  1.00  0.00     0.179 C 
ENDROOT
BRANCH   4   7
HETATM    7  O   LIG     1      -0.594  -1.234   1.651  1.00  0.00    -0.355 OA
BRANCH   7   8
HETATM    8  C   LIG     1      -0.484  -2.576   2.117  1.00  0.00     0.198 C 
BRANCH   8   9
HETATM    9  C   LIG     1      -0.486  -2.567   3.615  1.00  0.00    -0.005 C 
HETATM   10  C   LIG     1       0.345  -3.327   4.342  1.00  0.00    -0.029 C 
BRANCH  10  11
HETATM   11  C   LIG     1       0.348  -3.388   5.843  1.00  0.00     0.027 C 
BRANCH  11  12
HETATM   12  C   LIG     1       0.971  -4.698   6.335  1.00  0.00     0.004 C 
BRANCH  12  13
HETATM   13  C   LIG     1       1.008  -4.764   7.861  1.00  0.00     0.000 C 
BRANCH  13  14
HETATM   14  C   LIG     1       1.685  -6.049   8.341  1.00  0.00     0.000 C 
BRANCH  14  15
HETATM   15  C   LIG     1       1.712  -6.119   9.867  1.00  0.00     0.000 C 
BRANCH  15  16
HETATM   16  C   LIG     1       2.383  -7.403  10.358  1.00  0.00    -0.000 C 
BRANCH  16  17
HETATM   17  C   LIG     1       2.396  -7.467  11.884  1.00  0.00    -0.005 C 
HETATM   18  C   LIG     1       3.057  -8.740  12.385  1.00  0.00     0.005 C 
ENDBRANCH  16  17
ENDBRANCH  15  16
ENDBRANCH  14  15
ENDBRANCH  13  14
ENDBRANCH  12  13
ENDBRANCH  11  12
ENDBRANCH  10  11
ENDBRANCH   8   9
ENDBRANCH   7   8
ENDBRANCH   4   7
BRANCH   3  19
HETATM   19  O   LIG     1       1.434  -2.411  -0.236  1.00  0.00    -0.388 OA
HETATM   20  H   LIG     1       2.371  -2.174  -0.398  1.00  0.00     0.210 HD
ENDBRANCH   3  19
BRANCH   2  21
HETATM   21  O   LIG     1       2.794  -0.047  -0.635  1.00  0.00    -0.390 OA
HETATM   22  H   LIG     1       2.965   0.848  -0.986  1.00  0.00     0.210 HD
ENDBRANCH   2  21
BRANCH   6  23
HETATM   23  C   LIG     1      -1.536   2.408  -0.278  1.00  0.00     0.198 C 
BRANCH  23  24
HETATM   24  O   LIG     1      -1.099   3.684   0.164  1.00  0.00    -0.398 OA
HETATM   25  H   LIG     1      -1.020   3.660   1.131  1.00  0.00     0.209 HD
ENDBRANCH  23  24
ENDBRANCH   6  23
BRANCH   1  26
HETATM   26  O   LIG     1       1.519   2.375   0.322  1.00  0.00    -0.390 OA
HETATM   27  H   LIG     1       1.659   2.187   1.267  1.00  0.00     0.210 HD
ENDBRANCH   1  26
TORSDOF 15
