REMARK  13 active torsions:
REMARK  status: ('A' for Active; 'I' for Inactive)
REMARK    1  A    between atoms: C_1  and  O_21 
REMARK    2  A    between atoms: C_2  and  O_9 
REMARK    3  A    between atoms: C_3  and  O_10 
REMARK    4  A    between atoms: C_4  and  O_11 
REMARK    5  A    between atoms: C_6  and  C_7 
REMARK    6  A    between atoms: C_7  and  O_8 
REMARK    7  A    between atoms: O_11  and  C_12 
REMARK    8  A    between atoms: C_12  and  C_13 
REMARK    9  A    between atoms: C_14  and  C_15 
REMARK   10  A    between atoms: C_15  and  C_16 
REMARK   11  A    between atoms: C_16  and  C_17 
REMARK   12  A    between atoms: C_17  and  C_18 
REMARK   13  A    between atoms: C_18  and  C_19 
ROOT
HETATM    1  C   LIG     1       0.766   1.297  -0.242  1.00  0.00     0.180 C 
HETATM    2  C   LIG     1       1.517  -0.012   0.048  1.00  0.00     0.183 C 
HETATM    3  C   LIG     1       0.707  -1.204  -0.447  1.00  0.00     0.204 C 
HETATM    4  C   LIG     1      -0.672  -1.176   0.237  1.00  0.00     0.291 C 
HETATM    5  O   LIG     1      -1.353   0.024  -0.153  1.00  0.00    -0.348 OA
HETATM    6  C   LIG     1      -0.693   1.232   0.263  1.00  0.00     0.179 C 
ENDROOT
BRANCH   4   7
HETATM    7  O   LIG     1      -0.592  -1.236   1.666  1.00  0.00    -0.355 OA
BRANCH   7   8
HETATM    8  C   LIG     1      -0.466  -2.576   2.136  1.00  0.00     0.198 C 
BRANCH   8   9
HETATM    9  C   LIG     1      -0.474  -2.566   3.633  1.00  0.00    -0.005 C 
HETATM   10  C   LIG     1       0.350  -3.338   4.364  1.00  0.00    -0.029 C 
BRANCH  10  11
HETATM   11  C   LIG     1       0.350  -3.399   5.864  1.00  0.00     0.027 C 
BRANCH  11  12
HETATM   12  C   LIG     1       0.973  -4.711   6.355  1.00  0.00     0.004 C 
BRANCH  12  13
HETATM   13  C   LIG     1       1.014  -4.783   7.882  1.00  0.00     0.000 C 
BRANCH  13  14
HETATM   14  C   LIG     1       1.691  -6.072   8.352  1.00  0.00    -0.000 C 
BRANCH  14  15
HETATM   15  C   LIG     1       1.728  -6.156   9.877  1.00  0.00    -0.005 C 
HETATM   16  C   LIG     1       2.400  -7.437  10.348  1.00  0.00     0.005 C 
ENDBRANCH  14  15
ENDBRANCH  13  14
ENDBRANCH  12  13
ENDBRANCH  11  12
ENDBRANCH  10  11
ENDBRANCH   8   9
ENDBRANCH   7   8
ENDBRANCH   4   7
BRANCH   3  17
HETATM   17  O   LIG     1       1.440  -2.412  -0.223  1.00  0.00    -0.388 OA
HETATM   18  H   LIG     1       2.378  -2.170  -0.373  1.00  0.00     0.210 HD
ENDBRANCH   3  17
BRANCH   2  19
HETATM   19  O   LIG     1       2.800  -0.051  -0.605  1.00  0.00    -0.390 OA
HETATM   20  H   LIG     1       2.936   0.812  -1.040  1.00  0.00     0.210 HD
ENDBRANCH   2  19
BRANCH   6  21
HETATM   21  C   LIG     1      -1.544   2.399  -0.275  1.00  0.00     0.198 C 
BRANCH  21  22
HETATM   22  O   LIG     1      -1.110   3.679   0.159  1.00  0.00    -0.398 OA
HETATM   23  H   LIG     1      -1.006   3.653   1.125  1.00  0.00     0.209 HD
ENDBRANCH  21  22
ENDBRANCH   6  21
BRANCH   1  24
HETATM   24  O   LIG     1       1.507   2.379   0.331  1.00  0.00    -0.390 OA
HETATM   25  H   LIG     1       1.674   2.182   1.269  1.00  0.00     0.210 HD
ENDBRANCH   1  24
TORSDOF 13
