REMARK  6 active torsions:
REMARK  status: ('A' for Active; 'I' for Inactive)
REMARK    1  A    between atoms: C_1  and  O_13 
REMARK    2  A    between atoms: C_2  and  O_9 
REMARK    3  A    between atoms: C_3  and  O_10 
REMARK    4  A    between atoms: C_4  and  O_11 
REMARK    5  A    between atoms: C_6  and  C_7 
REMARK    6  A    between atoms: C_7  and  O_8 
ROOT
HETATM    1  C   LIG     1       0.798   1.169  -0.215  1.00  0.00     0.180 C 
HETATM    2  C   LIG     1       1.516  -0.141   0.128  1.00  0.00     0.183 C 
HETATM    3  C   LIG     1       0.670  -1.345  -0.282  1.00  0.00     0.204 C 
HETATM    4  C   LIG     1      -0.726  -1.229   0.365  1.00  0.00     0.290 C 
HETATM    5  O   LIG     1      -1.352  -0.029  -0.126  1.00  0.00    -0.349 OA
HETATM    6  C   LIG     1      -0.655   1.150   0.299  1.00  0.00     0.179 C 
ENDROOT
BRANCH   6   7
HETATM    7  C   LIG     1      -1.425   2.375  -0.210  1.00  0.00     0.198 C 
BRANCH   7   8
HETATM    8  O   LIG     1      -0.900   3.568   0.372  1.00  0.00    -0.398 OA
HETATM    9  H   LIG     1      -1.455   3.763   1.151  1.00  0.00     0.209 HD
ENDBRANCH   7   8
ENDBRANCH   6   7
BRANCH   1  10
HETATM   10  O   LIG     1       1.563   2.248   0.339  1.00  0.00    -0.390 OA
HETATM   11  H   LIG     1       0.968   3.028   0.376  1.00  0.00     0.210 HD
ENDBRANCH   1  10
BRANCH   2  12
HETATM   12  O   LIG     1       2.778  -0.204  -0.564  1.00  0.00    -0.390 OA
HETATM   13  H   LIG     1       3.188   0.672  -0.414  1.00  0.00     0.210 HD
ENDBRANCH   2  12
BRANCH   4  14
HETATM   14  O   LIG     1      -0.720  -1.180   1.794  1.00  0.00    -0.363 OA
HETATM   15  C   LIG     1      -0.421  -2.421   2.414  1.00  0.00     0.204 C 
ENDBRANCH   4  14
BRANCH   3  16
HETATM   16  O   LIG     1       1.354  -2.560   0.045  1.00  0.00    -0.388 OA
HETATM   17  H   LIG     1       2.282  -2.402  -0.227  1.00  0.00     0.210 HD
ENDBRANCH   3  16
TORSDOF 6
