REMARK  6 active torsions:
REMARK  status: ('A' for Active; 'I' for Inactive)
REMARK    1  A    between atoms: C_1  and  O_12 
REMARK    2  A    between atoms: C_2  and  O_9 
REMARK    3  A    between atoms: C_3  and  O_11 
REMARK    4  A    between atoms: C_4  and  O_10 
REMARK    5  A    between atoms: C_6  and  C_7 
REMARK    6  A    between atoms: C_7  and  O_8 
ROOT
HETATM    1  C   LIG     1       0.607   1.328  -0.063  1.00  0.00     0.180 C 
HETATM    2  C   LIG     1       1.363   0.047   0.301  1.00  0.00     0.183 C 
HETATM    3  C   LIG     1       0.653  -1.181  -0.276  1.00  0.00     0.204 C 
HETATM    4  C   LIG     1      -0.819  -1.165   0.187  1.00  0.00     0.288 C 
HETATM    5  O   LIG     1      -1.449   0.021  -0.287  1.00  0.00    -0.349 OA
HETATM    6  C   LIG     1      -0.885   1.204   0.293  1.00  0.00     0.179 C 
ENDROOT
BRANCH   6   7
HETATM    7  C   LIG     1      -1.660   2.429  -0.217  1.00  0.00     0.198 C 
BRANCH   7   8
HETATM    8  O   LIG     1      -1.279   3.624   0.456  1.00  0.00    -0.398 OA
HETATM    9  H   LIG     1      -0.305   3.597   0.572  1.00  0.00     0.209 HD
ENDBRANCH   7   8
ENDBRANCH   6   7
BRANCH   1  10
HETATM   10  O   LIG     1       1.204   2.441   0.614  1.00  0.00    -0.390 OA
HETATM   11  H   LIG     1       2.173   2.306   0.535  1.00  0.00     0.210 HD
ENDBRANCH   1  10
BRANCH   2  12
HETATM   12  O   LIG     1       2.710   0.177  -0.181  1.00  0.00    -0.390 OA
HETATM   13  H   LIG     1       2.846  -0.481  -0.889  1.00  0.00     0.210 HD
ENDBRANCH   2  12
BRANCH   4  14
HETATM   14  O   LIG     1      -1.529  -2.292  -0.303  1.00  0.00    -0.369 OA
HETATM   15  H   LIG     1      -1.032  -2.653  -1.057  1.00  0.00     0.212 HD
ENDBRANCH   4  14
BRANCH   3  16
HETATM   16  O   LIG     1       1.337  -2.381   0.092  1.00  0.00    -0.388 OA
HETATM   17  H   LIG     1       1.405  -2.418   1.064  1.00  0.00     0.210 HD
ENDBRANCH   3  16
TORSDOF 6
