REMARK  15 active torsions:
REMARK  status: ('A' for Active; 'I' for Inactive)
REMARK    1  A    between atoms: C_1  and  O_23 
REMARK    2  A    between atoms: C_2  and  O_9 
REMARK    3  A    between atoms: C_3  and  O_10 
REMARK    4  A    between atoms: C_4  and  O_11 
REMARK    5  A    between atoms: C_6  and  C_7 
REMARK    6  A    between atoms: C_7  and  O_8 
REMARK    7  A    between atoms: O_11  and  C_12 
REMARK    8  A    between atoms: C_12  and  C_13 
REMARK    9  A    between atoms: C_14  and  C_15 
REMARK   10  A    between atoms: C_15  and  C_16 
REMARK   11  A    between atoms: C_16  and  C_17 
REMARK   12  A    between atoms: C_17  and  C_18 
REMARK   13  A    between atoms: C_18  and  C_19 
REMARK   14  A    between atoms: C_19  and  C_20 
REMARK   15  A    between atoms: C_20  and  C_21 
ROOT
HETATM    1  C   LIG     1       0.756   1.408  -0.139  1.00  0.00     0.180 C 
HETATM    2  C   LIG     1       1.503   0.111   0.201  1.00  0.00     0.183 C 
HETATM    3  C   LIG     1       0.746  -1.144  -0.257  1.00  0.00     0.204 C 
HETATM    4  C   LIG     1      -0.677  -1.056   0.324  1.00  0.00     0.291 C 
HETATM    5  O   LIG     1      -1.327   0.111  -0.171  1.00  0.00    -0.348 OA
HETATM    6  C   LIG     1      -0.723   1.326   0.275  1.00  0.00     0.179 C 
ENDROOT
BRANCH   4   7
HETATM    7  O   LIG     1      -1.455  -2.185  -0.065  1.00  0.00    -0.355 OA
BRANCH   7   8
HETATM    8  C   LIG     1      -1.998  -2.846   1.070  1.00  0.00     0.198 C 
BRANCH   8   9
HETATM    9  C   LIG     1      -3.157  -3.692   0.651  1.00  0.00    -0.005 C 
HETATM   10  C   LIG     1      -4.106  -4.061   1.523  1.00  0.00    -0.029 C 
BRANCH  10  11
HETATM   11  C   LIG     1      -5.309  -4.885   1.172  1.00  0.00     0.027 C 
BRANCH  11  12
HETATM   12  C   LIG     1      -5.988  -5.405   2.442  1.00  0.00     0.004 C 
BRANCH  12  13
HETATM   13  C   LIG     1      -7.252  -6.201   2.125  1.00  0.00     0.000 C 
BRANCH  13  14
HETATM   14  C   LIG     1      -7.925  -6.677   3.413  1.00  0.00     0.000 C 
BRANCH  14  15
HETATM   15  C   LIG     1      -9.192  -7.474   3.113  1.00  0.00     0.000 C 
BRANCH  15  16
HETATM   16  C   LIG     1      -9.860  -7.954   4.402  1.00  0.00    -0.000 C 
BRANCH  16  17
HETATM   17  C   LIG     1     -11.124  -8.758   4.101  1.00  0.00    -0.005 C 
HETATM   18  C   LIG     1     -11.791  -9.242   5.377  1.00  0.00     0.005 C 
ENDBRANCH  16  17
ENDBRANCH  15  16
ENDBRANCH  14  15
ENDBRANCH  13  14
ENDBRANCH  12  13
ENDBRANCH  11  12
ENDBRANCH  10  11
ENDBRANCH   8   9
ENDBRANCH   7   8
ENDBRANCH   4   7
BRANCH   3  19
HETATM   19  O   LIG     1       1.435  -2.326   0.178  1.00  0.00    -0.388 OA
HETATM   20  H   LIG     1       1.879  -2.146   1.023  1.00  0.00     0.210 HD
ENDBRANCH   3  19
BRANCH   2  21
HETATM   21  O   LIG     1       2.830   0.176  -0.343  1.00  0.00    -0.390 OA
HETATM   22  H   LIG     1       2.803  -0.165  -1.256  1.00  0.00     0.210 HD
ENDBRANCH   2  21
BRANCH   6  23
HETATM   23  C   LIG     1      -1.556   2.483  -0.306  1.00  0.00     0.198 C 
BRANCH  23  24
HETATM   24  O   LIG     1      -1.172   3.773   0.148  1.00  0.00    -0.398 OA
HETATM   25  H   LIG     1      -0.578   3.671   0.914  1.00  0.00     0.209 HD
ENDBRANCH  23  24
ENDBRANCH   6  23
BRANCH   1  26
HETATM   26  O   LIG     1       1.399   2.481   0.563  1.00  0.00    -0.390 OA
HETATM   27  H   LIG     1       2.361   2.342   0.441  1.00  0.00     0.210 HD
ENDBRANCH   1  26
TORSDOF 15
