REMARK  8 active torsions:
REMARK  status: ('A' for Active; 'I' for Inactive)
REMARK    1  A    between atoms: C_1  and  O_15 
REMARK    2  A    between atoms: C_2  and  O_9 
REMARK    3  A    between atoms: C_3  and  O_10 
REMARK    4  A    between atoms: C_4  and  O_11 
REMARK    5  A    between atoms: C_6  and  C_7 
REMARK    6  A    between atoms: C_7  and  O_8 
REMARK    7  A    between atoms: O_11  and  C_12 
REMARK    8  A    between atoms: C_12  and  C_13 
ROOT
HETATM    1  C   LIG     1       0.919   1.317  -0.329  1.00  0.00     0.180 C 
HETATM    2  C   LIG     1       1.781   0.087  -0.051  1.00  0.00     0.183 C 
HETATM    3  C   LIG     1       0.962  -1.201  -0.113  1.00  0.00     0.204 C 
HETATM    4  C   LIG     1      -0.281  -1.082   0.796  1.00  0.00     0.291 C 
HETATM    5  O   LIG     1      -1.034   0.095   0.478  1.00  0.00    -0.348 OA
HETATM    6  C   LIG     1      -0.295   1.308   0.613  1.00  0.00     0.179 C 
ENDROOT
BRANCH   4   7
HETATM    7  O   LIG     1      -1.157  -2.187   0.564  1.00  0.00    -0.355 OA
BRANCH   7   8
HETATM    8  C   LIG     1      -0.969  -3.279   1.456  1.00  0.00     0.197 C 
BRANCH   8   9
HETATM    9  C   LIG     1      -1.792  -3.058   2.690  1.00  0.00    -0.011 C 
HETATM   10  C   LIG     1      -1.547  -3.636   3.871  1.00  0.00     0.009 C 
ENDBRANCH   8   9
ENDBRANCH   7   8
ENDBRANCH   4   7
BRANCH   3  11
HETATM   11  O   LIG     1       1.815  -2.291   0.274  1.00  0.00    -0.388 OA
HETATM   12  H   LIG     1       2.618  -2.184  -0.275  1.00  0.00     0.210 HD
ENDBRANCH   3  11
BRANCH   2  13
HETATM   13  O   LIG     1       2.855   0.012  -1.004  1.00  0.00    -0.390 OA
HETATM   14  H   LIG     1       3.217   0.922  -1.042  1.00  0.00     0.210 HD
ENDBRANCH   2  13
BRANCH   6  15
HETATM   15  C   LIG     1      -1.251   2.469   0.305  1.00  0.00     0.198 C 
BRANCH  15  16
HETATM   16  O   LIG     1      -0.575   3.722   0.371  1.00  0.00    -0.398 OA
HETATM   17  H   LIG     1      -1.261   4.409   0.274  1.00  0.00     0.209 HD
ENDBRANCH  15  16
ENDBRANCH   6  15
BRANCH   1  18
HETATM   18  O   LIG     1       1.748   2.473  -0.155  1.00  0.00    -0.390 OA
HETATM   19  H   LIG     1       1.138   3.236  -0.043  1.00  0.00     0.210 HD
ENDBRANCH   1  18
TORSDOF 8
