REMARK  11 active torsions:
REMARK  status: ('A' for Active; 'I' for Inactive)
REMARK    1  A    between atoms: C_1  and  O_19 
REMARK    2  A    between atoms: C_2  and  O_9 
REMARK    3  A    between atoms: C_3  and  O_10 
REMARK    4  A    between atoms: C_4  and  O_11 
REMARK    5  A    between atoms: C_6  and  C_7 
REMARK    6  A    between atoms: C_7  and  O_8 
REMARK    7  A    between atoms: O_11  and  C_12 
REMARK    8  A    between atoms: C_12  and  C_13 
REMARK    9  A    between atoms: C_14  and  C_15 
REMARK   10  A    between atoms: C_15  and  C_16 
REMARK   11  A    between atoms: C_16  and  C_17 
ROOT
HETATM    1  C   LIG     1       0.765   1.292  -0.230  1.00  0.00     0.180 C 
HETATM    2  C   LIG     1       1.517  -0.014   0.072  1.00  0.00     0.183 C 
HETATM    3  C   LIG     1       0.708  -1.208  -0.423  1.00  0.00     0.204 C 
HETATM    4  C   LIG     1      -0.670  -1.181   0.263  1.00  0.00     0.291 C 
HETATM    5  O   LIG     1      -1.353   0.017  -0.134  1.00  0.00    -0.348 OA
HETATM    6  C   LIG     1      -0.694   1.228   0.274  1.00  0.00     0.179 C 
ENDROOT
BRANCH   4   7
HETATM    7  O   LIG     1      -0.589  -1.233   1.692  1.00  0.00    -0.355 OA
BRANCH   7   8
HETATM    8  C   LIG     1      -0.434  -2.568   2.167  1.00  0.00     0.198 C 
BRANCH   8   9
HETATM    9  C   LIG     1      -0.447  -2.559   3.666  1.00  0.00    -0.005 C 
HETATM   10  C   LIG     1       0.351  -3.354   4.393  1.00  0.00    -0.029 C 
BRANCH  10  11
HETATM   11  C   LIG     1       0.355  -3.423   5.894  1.00  0.00     0.027 C 
BRANCH  11  12
HETATM   12  C   LIG     1       0.987  -4.733   6.377  1.00  0.00     0.003 C 
BRANCH  12  13
HETATM   13  C   LIG     1       1.035  -4.817   7.901  1.00  0.00    -0.004 C 
HETATM   14  C   LIG     1       1.713  -6.099   8.361  1.00  0.00     0.005 C 
ENDBRANCH  12  13
ENDBRANCH  11  12
ENDBRANCH  10  11
ENDBRANCH   8   9
ENDBRANCH   7   8
ENDBRANCH   4   7
BRANCH   3  15
HETATM   15  O   LIG     1       1.442  -2.416  -0.200  1.00  0.00    -0.388 OA
HETATM   16  H   LIG     1       2.382  -2.171  -0.331  1.00  0.00     0.210 HD
ENDBRANCH   3  15
BRANCH   2  17
HETATM   17  O   LIG     1       2.807  -0.062  -0.565  1.00  0.00    -0.390 OA
HETATM   18  H   LIG     1       2.904   0.745  -1.105  1.00  0.00     0.210 HD
ENDBRANCH   2  17
BRANCH   6  19
HETATM   19  C   LIG     1      -1.547   2.391  -0.271  1.00  0.00     0.198 C 
BRANCH  19  20
HETATM   20  O   LIG     1      -1.117   3.674   0.157  1.00  0.00    -0.398 OA
HETATM   21  H   LIG     1      -1.007   3.652   1.122  1.00  0.00     0.209 HD
ENDBRANCH  19  20
ENDBRANCH   6  19
BRANCH   1  22
HETATM   22  O   LIG     1       1.499   2.383   0.334  1.00  0.00    -0.390 OA
HETATM   23  H   LIG     1       1.685   2.185   1.269  1.00  0.00     0.210 HD
ENDBRANCH   1  22
TORSDOF 11
