REMARK  12 active torsions:
REMARK  status: ('A' for Active; 'I' for Inactive)
REMARK    1  A    between atoms: C_1  and  O_20 
REMARK    2  A    between atoms: C_2  and  O_9 
REMARK    3  A    between atoms: C_3  and  O_10 
REMARK    4  A    between atoms: C_4  and  O_11 
REMARK    5  A    between atoms: C_6  and  C_7 
REMARK    6  A    between atoms: C_7  and  O_8 
REMARK    7  A    between atoms: O_11  and  C_12 
REMARK    8  A    between atoms: C_12  and  C_13 
REMARK    9  A    between atoms: C_14  and  C_15 
REMARK   10  A    between atoms: C_15  and  C_16 
REMARK   11  A    between atoms: C_16  and  C_17 
REMARK   12  A    between atoms: C_17  and  C_18 
ROOT
HETATM    1  C   LIG     1       0.786   1.207  -0.207  1.00  0.00     0.180 C 
HETATM    2  C   LIG     1       1.791   0.098   0.084  1.00  0.00     0.183 C 
HETATM    3  C   LIG     1       1.109  -1.238   0.376  1.00  0.00     0.204 C 
HETATM    4  C   LIG     1       0.032  -1.060   1.474  1.00  0.00     0.291 C 
HETATM    5  O   LIG     1      -0.869   0.003   1.114  1.00  0.00    -0.348 OA
HETATM    6  C   LIG     1      -0.236   1.269   0.937  1.00  0.00     0.179 C 
ENDROOT
BRANCH   4   7
HETATM    7  O   LIG     1      -0.797  -2.210   1.653  1.00  0.00    -0.355 OA
BRANCH   7   8
HETATM    8  C   LIG     1      -0.179  -3.402   2.122  1.00  0.00     0.198 C 
BRANCH   8   9
HETATM    9  C   LIG     1       0.338  -3.268   3.525  1.00  0.00    -0.005 C 
HETATM   10  C   LIG     1      -0.133  -3.956   4.577  1.00  0.00    -0.029 C 
BRANCH  10  11
HETATM   11  C   LIG     1       0.389  -3.811   5.979  1.00  0.00     0.027 C 
BRANCH  11  12
HETATM   12  C   LIG     1       1.053  -5.098   6.473  1.00  0.00     0.004 C 
BRANCH  12  13
HETATM   13  C   LIG     1       1.465  -4.974   7.942  1.00  0.00    -0.000 C 
BRANCH  13  14
HETATM   14  C   LIG     1       2.152  -6.244   8.444  1.00  0.00    -0.005 C 
HETATM   15  C   LIG     1       2.484  -6.146   9.925  1.00  0.00     0.005 C 
ENDBRANCH  13  14
ENDBRANCH  12  13
ENDBRANCH  11  12
ENDBRANCH  10  11
ENDBRANCH   8   9
ENDBRANCH   7   8
ENDBRANCH   4   7
BRANCH   3  16
HETATM   16  O   LIG     1       2.148  -2.156   0.760  1.00  0.00    -0.388 OA
HETATM   17  H   LIG     1       2.826  -2.072   0.058  1.00  0.00     0.210 HD
ENDBRANCH   3  16
BRANCH   2  18
HETATM   18  O   LIG     1       2.687  -0.063  -1.031  1.00  0.00    -0.390 OA
HETATM   19  H   LIG     1       2.955   0.849  -1.266  1.00  0.00     0.210 HD
ENDBRANCH   2  18
BRANCH   6  20
HETATM   20  C   LIG     1      -1.332   2.305   0.647  1.00  0.00     0.198 C 
BRANCH  20  21
HETATM   21  O   LIG     1      -0.767   3.593   0.408  1.00  0.00    -0.398 OA
HETATM   22  H   LIG     1      -1.517   4.214   0.340  1.00  0.00     0.209 HD
ENDBRANCH  20  21
ENDBRANCH   6  20
BRANCH   1  23
HETATM   23  O   LIG     1       1.525   2.426  -0.360  1.00  0.00    -0.390 OA
HETATM   24  H   LIG     1       0.880   3.158  -0.239  1.00  0.00     0.210 HD
ENDBRANCH   1  23
TORSDOF 12
