REMARK  13 active torsions:
REMARK  status: ('A' for Active; 'I' for Inactive)
REMARK    1  A    between atoms: C_1  and  O_21 
REMARK    2  A    between atoms: C_2  and  O_9 
REMARK    3  A    between atoms: C_3  and  O_10 
REMARK    4  A    between atoms: C_4  and  O_11 
REMARK    5  A    between atoms: C_6  and  C_7 
REMARK    6  A    between atoms: C_7  and  O_8 
REMARK    7  A    between atoms: O_11  and  C_12 
REMARK    8  A    between atoms: C_12  and  C_13 
REMARK    9  A    between atoms: C_14  and  C_15 
REMARK   10  A    between atoms: C_15  and  C_16 
REMARK   11  A    between atoms: C_16  and  C_17 
REMARK   12  A    between atoms: C_17  and  C_18 
REMARK   13  A    between atoms: C_18  and  C_19 
ROOT
HETATM    1  C   LIG     1       0.749   1.395  -0.141  1.00  0.00     0.180 C 
HETATM    2  C   LIG     1       1.489   0.094   0.204  1.00  0.00     0.183 C 
HETATM    3  C   LIG     1       0.728  -1.159  -0.251  1.00  0.00     0.204 C 
HETATM    4  C   LIG     1      -0.696  -1.064   0.327  1.00  0.00     0.291 C 
HETATM    5  O   LIG     1      -1.339   0.106  -0.171  1.00  0.00    -0.348 OA
HETATM    6  C   LIG     1      -0.731   1.319   0.272  1.00  0.00     0.179 C 
ENDROOT
BRANCH   4   7
HETATM    7  O   LIG     1      -1.480  -2.190  -0.060  1.00  0.00    -0.355 OA
BRANCH   7   8
HETATM    8  C   LIG     1      -2.022  -2.851   1.077  1.00  0.00     0.198 C 
BRANCH   8   9
HETATM    9  C   LIG     1      -3.183  -3.695   0.660  1.00  0.00    -0.005 C 
HETATM   10  C   LIG     1      -4.123  -4.077   1.535  1.00  0.00    -0.029 C 
BRANCH  10  11
HETATM   11  C   LIG     1      -5.329  -4.901   1.185  1.00  0.00     0.027 C 
BRANCH  11  12
HETATM   12  C   LIG     1      -6.009  -5.422   2.455  1.00  0.00     0.004 C 
BRANCH  12  13
HETATM   13  C   LIG     1      -7.274  -6.217   2.142  1.00  0.00     0.000 C 
BRANCH  13  14
HETATM   14  C   LIG     1      -7.946  -6.693   3.431  1.00  0.00    -0.000 C 
BRANCH  14  15
HETATM   15  C   LIG     1      -9.216  -7.489   3.141  1.00  0.00    -0.005 C 
HETATM   16  C   LIG     1      -9.879  -7.960   4.425  1.00  0.00     0.005 C 
ENDBRANCH  14  15
ENDBRANCH  13  14
ENDBRANCH  12  13
ENDBRANCH  11  12
ENDBRANCH  10  11
ENDBRANCH   8   9
ENDBRANCH   7   8
ENDBRANCH   4   7
BRANCH   3  17
HETATM   17  O   LIG     1       1.408  -2.343   0.192  1.00  0.00    -0.388 OA
HETATM   18  H   LIG     1       1.890  -2.148   1.014  1.00  0.00     0.210 HD
ENDBRANCH   3  17
BRANCH   2  19
HETATM   19  O   LIG     1       2.818   0.151  -0.335  1.00  0.00    -0.390 OA
HETATM   20  H   LIG     1       2.785  -0.148  -1.263  1.00  0.00     0.210 HD
ENDBRANCH   2  19
BRANCH   6  21
HETATM   21  C   LIG     1      -1.561   2.478  -0.310  1.00  0.00     0.198 C 
BRANCH  21  22
HETATM   22  O   LIG     1      -1.172   3.768   0.139  1.00  0.00    -0.398 OA
HETATM   23  H   LIG     1      -0.617   3.668   0.933  1.00  0.00     0.209 HD
ENDBRANCH  21  22
ENDBRANCH   6  21
BRANCH   1  24
HETATM   24  O   LIG     1       1.396   2.466   0.560  1.00  0.00    -0.390 OA
HETATM   25  H   LIG     1       2.358   2.310   0.461  1.00  0.00     0.210 HD
ENDBRANCH   1  24
TORSDOF 13
