REMARK  6 active torsions:
REMARK  status: ('A' for Active; 'I' for Inactive)
REMARK    1  A    between atoms: C_1  and  O_13 
REMARK    2  A    between atoms: C_2  and  O_9 
REMARK    3  A    between atoms: C_3  and  O_11 
REMARK    4  A    between atoms: C_4  and  O_10 
REMARK    5  A    between atoms: C_6  and  C_7 
REMARK    6  A    between atoms: C_7  and  O_8 
ROOT
HETATM    1  C   LIG     1       0.685   1.472  -0.061  1.00  0.00     0.180 C 
HETATM    2  C   LIG     1       1.504   0.244   0.342  1.00  0.00     0.183 C 
HETATM    3  C   LIG     1       0.888  -1.040  -0.208  1.00  0.00     0.204 C 
HETATM    4  C   LIG     1      -0.611  -1.092   0.156  1.00  0.00     0.290 C 
HETATM    5  O   LIG     1      -1.299   0.071  -0.300  1.00  0.00    -0.349 OA
HETATM    6  C   LIG     1      -0.793   1.265   0.314  1.00  0.00     0.179 C 
ENDROOT
BRANCH   6   7
HETATM    7  C   LIG     1      -1.646   2.462  -0.129  1.00  0.00     0.198 C 
BRANCH   7   8
HETATM    8  O   LIG     1      -1.329   3.643   0.600  1.00  0.00    -0.398 OA
HETATM    9  H   LIG     1      -0.350   3.684   0.668  1.00  0.00     0.209 HD
ENDBRANCH   7   8
ENDBRANCH   6   7
BRANCH   1  10
HETATM   10  O   LIG     1       1.222   2.634   0.583  1.00  0.00    -0.390 OA
HETATM   11  H   LIG     1       2.194   2.563   0.467  1.00  0.00     0.210 HD
ENDBRANCH   1  10
BRANCH   2  12
HETATM   12  O   LIG     1       2.846   0.403  -0.147  1.00  0.00    -0.390 OA
HETATM   13  H   LIG     1       3.263  -0.478  -0.046  1.00  0.00     0.210 HD
ENDBRANCH   2  12
BRANCH   4  14
HETATM   14  O   LIG     1      -1.227  -2.295  -0.317  1.00  0.00    -0.363 OA
HETATM   15  C   LIG     1      -1.322  -2.399  -1.731  1.00  0.00     0.204 C 
ENDBRANCH   4  14
BRANCH   3  16
HETATM   16  O   LIG     1       1.612  -2.155   0.339  1.00  0.00    -0.388 OA
HETATM   17  H   LIG     1       0.982  -2.896   0.399  1.00  0.00     0.210 HD
ENDBRANCH   3  16
TORSDOF 6
