REMARK AutoDockVina VirtualScreeningResult  Sat Mar  5 21:35:00 2016
USER  AD>  8 of 9 MODELS
USER  AD>  ligand efficiency  -0.2700
USER  AD>  -5.40, 24.087, 26.809
USER  AD> macro_close_ats: 14
USER  AD> hepi:A:ASN319:CG
USER  AD> hepi:A:ALA320:N
USER  AD> hepi:A:ALA320:CA
USER  AD> hepi:A:ASN293:H
USER  AD> hepi:A:LYS255:CG
USER  AD> hepi:A:ASN319:H
USER  AD> hepi:A:ASN319:O
USER  AD> hepi:A:ASN293:ND2
USER  AD> hepi:A:ASN319:C
USER  AD> hepi:A:ASN293:H
USER  AD> hepi:A:PRO274:CB
USER  AD> hepi:A:ASN319:ND2
USER  AD> hepi:A:ASN319:CB
USER  AD> hepi:A:PHE256:CB

USER  AD> lig_close_ats: 10
USER  AD> h11_gb7_m8_model1: :LIG1:C,O,O,H,O,C,C,C,H,C
MODEL 8
REMARK VINA RESULT:      -5.4     24.087     26.809
REMARK  12 active torsions:
REMARK  status: ('A' for Active; 'I' for Inactive)
REMARK    1  A    between atoms: C_1  and  O_20 
REMARK    2  A    between atoms: C_2  and  O_9 
REMARK    3  A    between atoms: C_3  and  O_10 
REMARK    4  A    between atoms: C_4  and  O_11 
REMARK    5  A    between atoms: C_6  and  C_7 
REMARK    6  A    between atoms: C_7  and  O_8 
REMARK    7  A    between atoms: O_11  and  C_12 
REMARK    8  A    between atoms: C_12  and  C_13 
REMARK    9  A    between atoms: C_14  and  C_15 
REMARK   10  A    between atoms: C_15  and  C_16 
REMARK   11  A    between atoms: C_16  and  C_17 
REMARK   12  A    between atoms: C_17  and  C_18 
ROOT
HETATM    1  C   LIG     1      35.275   1.841  23.235  1.00  0.00     0.180 C 
HETATM    2  C   LIG     1      35.971   0.879  24.191  1.00  0.00     0.183 C 
HETATM    3  C   LIG     1      36.071   1.444  25.608  1.00  0.00     0.204 C 
HETATM    4  C   LIG     1      36.694   2.861  25.576  1.00  0.00     0.291 C 
HETATM    5  O   LIG     1      35.974   3.696  24.651  1.00  0.00    -0.348 OA
HETATM    6  C   LIG     1      35.967   3.210  23.310  1.00  0.00     0.179 C 
ENDROOT
BRANCH   4   7
HETATM    7  O   LIG     1      36.625   3.544  26.829  1.00  0.00    -0.355 OA
BRANCH   7   8
HETATM    8  C   LIG     1      35.618   4.535  26.986  1.00  0.00     0.198 C 
BRANCH   8   9
HETATM    9  C   LIG     1      36.188   5.898  27.251  1.00  0.00    -0.005 C 
HETATM   10  C   LIG     1      36.386   6.835  26.310  1.00  0.00    -0.029 C 
BRANCH  10  11
HETATM   11  C   LIG     1      36.963   8.195  26.586  1.00  0.00     0.027 C 
BRANCH  11  12
HETATM   12  C   LIG     1      38.100   8.133  27.608  1.00  0.00     0.004 C 
BRANCH  12  13
HETATM   13  C   LIG     1      39.166   9.190  27.308  1.00  0.00    -0.000 C 
BRANCH  13  14
HETATM   14  C   LIG     1      39.493  10.027  28.544  1.00  0.00    -0.005 C 
HETATM   15  C   LIG     1      38.276  10.800  29.028  1.00  0.00     0.005 C 
ENDBRANCH  13  14
ENDBRANCH  12  13
ENDBRANCH  11  12
ENDBRANCH  10  11
ENDBRANCH   8   9
ENDBRANCH   7   8
ENDBRANCH   4   7
BRANCH   3  16
HETATM   16  O   LIG     1      36.855   0.509  26.370  1.00  0.00    -0.388 OA
HETATM   17  H   LIG     1      37.717   0.955  26.499  1.00  0.00     0.210 HD
ENDBRANCH   3  16
BRANCH   2  18
HETATM   18  O   LIG     1      35.266  -0.375  24.231  1.00  0.00    -0.390 OA
HETATM   19  H   LIG     1      35.563  -0.799  25.063  1.00  0.00     0.210 HD
ENDBRANCH   2  18
BRANCH   6  20
HETATM   20  C   LIG     1      35.243   4.247  22.438  1.00  0.00     0.198 C 
BRANCH  20  21
HETATM   21  O   LIG     1      34.058   3.695  21.867  1.00  0.00    -0.398 OA
HETATM   22  H   LIG     1      33.667   3.118  22.549  1.00  0.00     0.209 HD
ENDBRANCH  20  21
ENDBRANCH   6  20
BRANCH   1  23
HETATM   23  O   LIG     1      35.331   1.260  21.925  1.00  0.00    -0.390 OA
HETATM   24  H   LIG     1      34.540   1.588  21.442  1.00  0.00     0.210 HD
ENDBRANCH   1  23
TORSDOF 12
ENDMDL
