REMARK AutoDockVina VirtualScreeningResult  Sat Mar  5 21:14:27 2016
USER  AD>  8 of 9 MODELS
USER  AD>  ligand efficiency  -0.3692
USER  AD>  -4.80,  9.922, 11.735
USER  AD> macro_close_ats: 10
USER  AD> hepi:A:THR144:H
USER  AD> hepi:A:GLN94:O
USER  AD> hepi:A:GLN94:C
USER  AD> hepi:A:THR144:OG1
USER  AD> hepi:A:ARG120:CD
USER  AD> hepi:A:LYS7:H
USER  AD> hepi:A:MET114:CE
USER  AD> hepi:A:LYS7:NZ
USER  AD> hepi:A:LYS7:H
USER  AD> hepi:A:LYS7:H

USER  AD> lig_close_ats: 8
USER  AD> h11_gam_m8_model1: :LIG1:C,O,O,H,H,C,H,C
MODEL 8
REMARK VINA RESULT:      -4.8      9.922     11.735
REMARK  6 active torsions:
REMARK  status: ('A' for Active; 'I' for Inactive)
REMARK    1  A    between atoms: C_1  and  O_13 
REMARK    2  A    between atoms: C_2  and  O_9 
REMARK    3  A    between atoms: C_3  and  O_10 
REMARK    4  A    between atoms: C_4  and  O_11 
REMARK    5  A    between atoms: C_6  and  C_7 
REMARK    6  A    between atoms: C_7  and  O_8 
ROOT
HETATM    1  C   LIG     1      43.497  -7.056  -3.527  1.00  0.00     0.180 C 
HETATM    2  C   LIG     1      42.717  -5.981  -4.292  1.00  0.00     0.183 C 
HETATM    3  C   LIG     1      41.818  -5.188  -3.345  1.00  0.00     0.204 C 
HETATM    4  C   LIG     1      40.908  -6.165  -2.571  1.00  0.00     0.290 C 
HETATM    5  O   LIG     1      41.746  -7.042  -1.795  1.00  0.00    -0.349 OA
HETATM    6  C   LIG     1      42.557  -7.882  -2.628  1.00  0.00     0.179 C 
ENDROOT
BRANCH   6   7
HETATM    7  C   LIG     1      43.362  -8.824  -1.724  1.00  0.00     0.198 C 
BRANCH   7   8
HETATM    8  O   LIG     1      44.694  -8.338  -1.562  1.00  0.00    -0.398 OA
HETATM    9  H   LIG     1      45.160  -8.988  -1.004  1.00  0.00     0.209 HD
ENDBRANCH   7   8
ENDBRANCH   6   7
BRANCH   1  10
HETATM   10  O   LIG     1      44.190  -7.864  -4.488  1.00  0.00    -0.390 OA
HETATM   11  H   LIG     1      44.768  -7.260  -5.002  1.00  0.00     0.210 HD
ENDBRANCH   1  10
BRANCH   2  12
HETATM   12  O   LIG     1      43.633  -5.071  -4.932  1.00  0.00    -0.390 OA
HETATM   13  H   LIG     1      44.472  -5.177  -4.439  1.00  0.00     0.210 HD
ENDBRANCH   2  12
BRANCH   4  14
HETATM   14  O   LIG     1      40.057  -6.968  -3.393  1.00  0.00    -0.363 OA
HETATM   15  C   LIG     1      38.674  -6.694  -3.234  1.00  0.00     0.204 C 
ENDBRANCH   4  14
BRANCH   3  16
HETATM   16  O   LIG     1      41.096  -4.189  -4.074  1.00  0.00    -0.388 OA
HETATM   17  H   LIG     1      41.777  -3.536  -4.340  1.00  0.00     0.210 HD
ENDBRANCH   3  16
TORSDOF 6
ENDMDL
