REMARK AutoDockVina VirtualScreeningResult  Sat Mar  5 21:14:13 2016
USER  AD>  7 of 9 MODELS
USER  AD>  ligand efficiency  -0.2550
USER  AD>  -5.10, 18.483, 20.165
USER  AD> macro_close_ats: 12
USER  AD> hepi:A:ARG225:H
USER  AD> hepi:A:ASP191:CB
USER  AD> hepi:A:ARG225:NH1
USER  AD> hepi:A:LEU304:H
USER  AD> hepi:A:PRO195:CG
USER  AD> hepi:A:HIS193:ND1
USER  AD> hepi:A:HIS193:CG
USER  AD> hepi:A:SER305:H
USER  AD> hepi:A:GLU196:H
USER  AD> hepi:A:GLU303:CG
USER  AD> hepi:A:HIS193:CB
USER  AD> hepi:A:HIS193:CD2

USER  AD> lig_close_ats: 10
USER  AD> h11_ab7_m7_model1: :LIG1:O,C,C,C,H,C,C,C,C,O
MODEL 7
REMARK VINA RESULT:      -5.1     18.483     20.165
REMARK  12 active torsions:
REMARK  status: ('A' for Active; 'I' for Inactive)
REMARK    1  A    between atoms: C_1  and  O_7 
REMARK    2  A    between atoms: C_2  and  O_10 
REMARK    3  A    between atoms: C_3  and  O_11 
REMARK    4  A    between atoms: C_4  and  O_12 
REMARK    5  A    between atoms: C_6  and  C_8 
REMARK    6  A    between atoms: C_8  and  O_9 
REMARK    7  A    between atoms: O_12  and  C_13 
REMARK    8  A    between atoms: C_13  and  C_14 
REMARK    9  A    between atoms: C_15  and  C_16 
REMARK   10  A    between atoms: C_16  and  C_17 
REMARK   11  A    between atoms: C_17  and  C_18 
REMARK   12  A    between atoms: C_18  and  C_19 
ROOT
HETATM    1  C   LIG     1      35.885  20.733   2.925  1.00  0.00     0.180 C 
HETATM    2  C   LIG     1      35.851  20.295   4.389  1.00  0.00     0.183 C 
HETATM    3  C   LIG     1      34.464  19.783   4.804  1.00  0.00     0.204 C 
HETATM    4  C   LIG     1      33.353  20.774   4.370  1.00  0.00     0.291 C 
HETATM    5  O   LIG     1      33.516  21.135   2.983  1.00  0.00    -0.348 OA
HETATM    6  C   LIG     1      34.770  21.761   2.700  1.00  0.00     0.179 C 
ENDROOT
BRANCH   4   7
HETATM    7  O   LIG     1      32.040  20.214   4.448  1.00  0.00    -0.355 OA
BRANCH   7   8
HETATM    8  C   LIG     1      31.792  19.065   3.651  1.00  0.00     0.198 C 
BRANCH   8   9
HETATM    9  C   LIG     1      30.473  19.148   2.943  1.00  0.00    -0.005 C 
HETATM   10  C   LIG     1      29.702  18.080   2.684  1.00  0.00    -0.029 C 
BRANCH  10  11
HETATM   11  C   LIG     1      28.412  18.125   1.915  1.00  0.00     0.027 C 
BRANCH  11  12
HETATM   12  C   LIG     1      28.209  16.830   1.122  1.00  0.00     0.004 C 
BRANCH  12  13
HETATM   13  C   LIG     1      28.658  15.602   1.916  1.00  0.00    -0.000 C 
BRANCH  13  14
HETATM   14  C   LIG     1      28.317  14.309   1.171  1.00  0.00    -0.005 C 
HETATM   15  C   LIG     1      27.854  14.585  -0.251  1.00  0.00     0.005 C 
ENDBRANCH  13  14
ENDBRANCH  12  13
ENDBRANCH  11  12
ENDBRANCH  10  11
ENDBRANCH   8   9
ENDBRANCH   7   8
ENDBRANCH   4   7
BRANCH   3  16
HETATM   16  O   LIG     1      34.504  19.578   6.228  1.00  0.00    -0.388 OA
HETATM   17  H   LIG     1      35.452  19.458   6.442  1.00  0.00     0.210 HD
ENDBRANCH   3  16
BRANCH   2  18
HETATM   18  O   LIG     1      36.807  19.247   4.621  1.00  0.00    -0.390 OA
HETATM   19  H   LIG     1      36.819  18.717   3.795  1.00  0.00     0.210 HD
ENDBRANCH   2  18
BRANCH   6  20
HETATM   20  C   LIG     1      34.745  22.274   1.257  1.00  0.00     0.198 C 
BRANCH  20  21
HETATM   21  O   LIG     1      35.985  22.003   0.614  1.00  0.00    -0.398 OA
HETATM   22  H   LIG     1      36.454  21.340   1.151  1.00  0.00     0.209 HD
ENDBRANCH  20  21
ENDBRANCH   6  20
BRANCH   1  23
HETATM   23  O   LIG     1      35.694  19.552   2.123  1.00  0.00    -0.390 OA
HETATM   24  H   LIG     1      34.887  19.689   1.589  1.00  0.00     0.210 HD
ENDBRANCH   1  23
TORSDOF 12
ENDMDL
