REMARK AutoDockVina VirtualScreeningResult  Sat Mar  5 21:34:23 2016
USER  AD>  7 of 9 MODELS
USER  AD>  ligand efficiency  -0.2000
USER  AD>  -8.00,  7.041, 11.142
USER  AD> macro_close_ats: 16
USER  AD> hepi:A:LYS7:H
USER  AD> hepi:A:ASP13:OD1
USER  AD> hepi:A:GLY263:H
USER  AD> hepi:A:ILE287:CB
USER  AD> hepi:A:HIS16:H
USER  AD> hepi:A:HIS266:NE2
USER  AD> hepi:A:GLY263:N
USER  AD> hepi:A:LYS7:NZ
USER  AD> hepi:A:ARG143:H
USER  AD> hepi:A:ALA140:CB
USER  AD> hepi:A:ILE287:O
USER  AD> hepi:A:ASP261:OD2
USER  AD> hepi:A:LYS7:H
USER  AD> hepi:A:GLN94:O
USER  AD> hepi:A:ARG120:H
USER  AD> hepi:A:ASP261:CG

USER  AD> lig_close_ats: 13
USER  AD> h11_adph_m7_model1: :   1:O,H,H,O,C,O,H,C,O,H,H,C,H
MODEL 7
REMARK VINA RESULT:      -8.0      7.041     11.142
REMARK  19 active torsions:
REMARK  status: ('A' for Active; 'I' for Inactive)
REMARK    1  A    between atoms: C_1  and  C_3 
REMARK    2  A    between atoms: C_1  and  O_13 
REMARK    3  A    between atoms: O_2  and  C_3 
REMARK    4  A    between atoms: C_3  and  C_11 
REMARK    5  A    between atoms: O_4  and  C_5 
REMARK    6  A    between atoms: O_6  and  C_7 
REMARK    7  A    between atoms: O_8  and  C_9 
REMARK    8  A    between atoms: C_12  and  O_40 
REMARK    9  A    between atoms: C_22  and  N_23 
REMARK   10  A    between atoms: C_24  and  O_25 
REMARK   11  A    between atoms: C_26  and  O_27 
REMARK   12  A    between atoms: C_28  and  C_31 
REMARK   13  A    between atoms: C_31  and  O_32 
REMARK   14  A    between atoms: O_32  and  P_33 
REMARK   15  A    between atoms: P_33  and  O_35 
REMARK   16  A    between atoms: P_33  and  O_36 
REMARK   17  A    between atoms: O_36  and  P_37 
REMARK   18  A    between atoms: P_37  and  O_40 
REMARK   19  A    between atoms: P_37  and  O_39 
ROOT
HETATM    1  P   LIG L   1      39.857  -2.249  -0.096  0.00  0.00     0.401 P 
HETATM    2  O   LIG L   1      38.571  -2.784   0.425  0.00  0.00    -0.631 OA
ENDROOT
BRANCH   1   3
HETATM    3  O   LIG L   1      40.102  -0.808   0.675  0.00  0.00    -0.294 OA
BRANCH   3   4
HETATM    4  C   LIG L   1      40.653   0.270  -0.039  0.00  0.00     0.215 C 
BRANCH   4   5
HETATM    5  C   LIG L   1      40.611   1.519   0.833  0.00  0.00     0.180 C 
HETATM    6  C   LIG L   1      39.242   2.188   0.924  0.00  0.00     0.182 C 
HETATM    7  C   LIG L   1      39.511   3.622   0.506  0.00  0.00     0.198 C 
HETATM    8  C   LIG L   1      41.010   3.741   0.699  0.00  0.00     0.262 C 
HETATM    9  N   LIG L   1      41.647   4.821  -0.065  0.00  0.00    -0.294 N 
HETATM   10  O   LIG L   1      41.503   2.475   0.328  0.00  0.00    -0.353 OA
HETATM   11  C   LIG L   1      41.695   4.860  -1.328  0.00  0.00     0.214 A 
HETATM   12  C   LIG L   1      42.228   5.814   0.457  0.00  0.00     0.167 A 
HETATM   13  N   LIG L   1      42.321   5.896  -1.694  0.00  0.00    -0.236 NA
HETATM   14  C   LIG L   1      42.655   6.492  -0.624  0.00  0.00     0.149 A 
HETATM   15  C   LIG L   1      43.339   7.634  -0.451  0.00  0.00     0.155 A 
HETATM   16  N   LIG L   1      43.552   8.022   0.738  0.00  0.00    -0.222 NA
HETATM   17  C   LIG L   1      43.108   7.317   1.695  0.00  0.00     0.237 A 
HETATM   18  N   LIG L   1      42.458   6.231   1.626  0.00  0.00    -0.222 NA
BRANCH   6  19
HETATM   19  O   LIG L   1      38.785   2.187   2.256  0.00  0.00    -0.390 OA
HETATM   20  H   LIG L   1      38.368   1.350   2.472  0.00  0.00     0.210 HD
ENDBRANCH   6  19
BRANCH   7  21
HETATM   21  O   LIG L   1      38.802   4.537   1.308  0.00  0.00    -0.388 OA
HETATM   22  H   LIG L   1      37.891   4.580   1.008  0.00  0.00     0.210 HD
ENDBRANCH   7  21
BRANCH  15  23
HETATM   23  N   LIG L   1      43.736   8.271  -1.473  0.00  0.00    -0.382 N 
HETATM   24  H   LIG L   1      43.104   8.966  -1.938  0.00  0.00     0.157 HD
HETATM   25  H   LIG L   1      44.698   8.103  -1.859  0.00  0.00     0.157 HD
ENDBRANCH  15  23
ENDBRANCH   4   5
ENDBRANCH   3   4
ENDBRANCH   1   3
BRANCH   1  26
HETATM   26  O   LIG L   1      41.071  -2.947   0.725  0.00  0.00    -0.307 OA
HETATM   27  H   LIG L   1      41.761  -2.324   0.865  0.00  0.00     0.222 HD
ENDBRANCH   1  26
BRANCH   1  28
HETATM   28  O   LIG L   1      39.943  -2.130  -1.678  0.00  0.00    -0.195 OA
BRANCH  28  29
HETATM   29  P   LIG L   1      39.078  -3.148  -2.548  0.00  0.00     0.404 P 
HETATM   30  O   LIG L   1      37.613  -2.926  -2.417  0.00  0.00    -0.631 OA
BRANCH  29  31
HETATM   31  O   LIG L   1      39.443  -4.738  -2.631  0.00  0.00    -0.263 OA
BRANCH  31  32
HETATM   32  C   LIG L   1      40.784  -5.181  -2.564  0.00  0.00     0.303 C 
HETATM   33  C   LIG L   1      40.857  -6.628  -3.003  0.00  0.00     0.205 C 
HETATM   34  C   LIG L   1      42.312  -7.057  -3.042  0.00  0.00     0.183 C 
HETATM   35  C   LIG L   1      43.016  -6.117  -3.998  0.00  0.00     0.181 C 
HETATM   36  C   LIG L   1      42.855  -4.674  -3.524  0.00  0.00     0.186 C 
HETATM   37  O   LIG L   1      41.488  -4.357  -3.473  0.00  0.00    -0.347 OA
BRANCH  33  38
HETATM   38  O   LIG L   1      40.176  -7.442  -2.081  0.00  0.00    -0.388 OA
HETATM   39  H   LIG L   1      39.978  -6.916  -1.302  0.00  0.00     0.210 HD
ENDBRANCH  33  38
BRANCH  34  40
HETATM   40  O   LIG L   1      42.418  -8.386  -3.489  0.00  0.00    -0.390 OA
HETATM   41  H   LIG L   1      43.321  -8.564  -3.765  0.00  0.00     0.210 HD
ENDBRANCH  34  40
BRANCH  35  42
HETATM   42  O   LIG L   1      44.371  -6.477  -4.086  0.00  0.00    -0.390 OA
HETATM   43  H   LIG L   1      44.895  -5.688  -3.923  0.00  0.00     0.210 HD
ENDBRANCH  35  42
BRANCH  36  44
HETATM   44  C   LIG L   1      43.606  -3.682  -4.412  0.00  0.00     0.173 C 
BRANCH  44  45
HETATM   45  C   LIG L   1      42.829  -2.425  -4.759  0.00  0.00     0.198 C 
BRANCH  45  46
HETATM   46  O   LIG L   1      42.344  -1.803  -3.588  0.00  0.00    -0.398 OA
HETATM   47  H   LIG L   1      41.792  -1.056  -3.832  0.00  0.00     0.209 HD
ENDBRANCH  45  46
ENDBRANCH  44  45
BRANCH  44  48
HETATM   48  O   LIG L   1      43.999  -4.301  -5.614  0.00  0.00    -0.391 OA
HETATM   49  H   LIG L   1      44.824  -4.771  -5.464  0.00  0.00     0.210 HD
ENDBRANCH  44  48
ENDBRANCH  36  44
ENDBRANCH  31  32
ENDBRANCH  29  31
BRANCH  29  50
HETATM   50  O   LIG L   1      39.377  -2.937  -4.146  0.00  0.00    -0.307 OA
HETATM   51  H   LIG L   1      39.458  -3.780  -4.559  0.00  0.00     0.222 HD
ENDBRANCH  29  50
ENDBRANCH  28  29
ENDBRANCH   1  28
TORSDOF 19
ENDMDL
