REMARK AutoDockVina VirtualScreeningResult  Sat Mar  5 21:34:55 2016
USER  AD>  4 of 9 MODELS
USER  AD>  ligand efficiency  -0.3467
USER  AD>  -5.20, 22.572, 24.175
USER  AD> macro_close_ats: 12
USER  AD> hepi:A:LYS136:CB
USER  AD> hepi:A:ARG143:H
USER  AD> hepi:A:ARG143:NH1
USER  AD> hepi:A:ASP13:OD1
USER  AD> hepi:A:LYS7:H
USER  AD> hepi:A:LYS7:H
USER  AD> hepi:A:ARG143:H
USER  AD> hepi:A:LYS7:NZ
USER  AD> hepi:A:ARG120:CB
USER  AD> hepi:A:GLN94:C
USER  AD> hepi:A:ARG120:CD
USER  AD> hepi:A:ASP13:CG

USER  AD> lig_close_ats: 12
USER  AD> h11_gb3_m4_model1: :LIG1:C,O,H,C,O,H,C,O,C,C,H,O
MODEL 4
REMARK VINA RESULT:      -5.2     22.572     24.175
REMARK  8 active torsions:
REMARK  status: ('A' for Active; 'I' for Inactive)
REMARK    1  A    between atoms: C_1  and  O_15 
REMARK    2  A    between atoms: C_2  and  O_9 
REMARK    3  A    between atoms: C_3  and  O_10 
REMARK    4  A    between atoms: C_4  and  O_11 
REMARK    5  A    between atoms: C_6  and  C_7 
REMARK    6  A    between atoms: C_7  and  O_8 
REMARK    7  A    between atoms: O_11  and  C_12 
REMARK    8  A    between atoms: C_12  and  C_13 
ROOT
HETATM    1  C   LIG     1      43.208  -6.371  -3.656  1.00  0.00     0.180 C 
HETATM    2  C   LIG     1      42.437  -5.319  -2.862  1.00  0.00     0.183 C 
HETATM    3  C   LIG     1      41.190  -5.909  -2.207  1.00  0.00     0.204 C 
HETATM    4  C   LIG     1      40.340  -6.653  -3.261  1.00  0.00     0.291 C 
HETATM    5  O   LIG     1      41.132  -7.618  -3.965  1.00  0.00    -0.348 OA
HETATM    6  C   LIG     1      42.254  -7.059  -4.646  1.00  0.00     0.179 C 
ENDROOT
BRANCH   4   7
HETATM    7  O   LIG     1      39.302  -7.390  -2.612  1.00  0.00    -0.355 OA
BRANCH   7   8
HETATM    8  C   LIG     1      37.990  -6.907  -2.875  1.00  0.00     0.197 C 
BRANCH   8   9
HETATM    9  C   LIG     1      37.062  -8.070  -3.061  1.00  0.00    -0.011 C 
HETATM   10  C   LIG     1      36.792  -8.635  -4.242  1.00  0.00     0.009 C 
ENDBRANCH   8   9
ENDBRANCH   7   8
ENDBRANCH   4   7
BRANCH   3  11
HETATM   11  O   LIG     1      40.464  -4.837  -1.584  1.00  0.00    -0.388 OA
HETATM   12  H   LIG     1      39.592  -5.223  -1.364  1.00  0.00     0.210 HD
ENDBRANCH   3  11
BRANCH   2  13
HETATM   13  O   LIG     1      43.282  -4.751  -1.847  1.00  0.00    -0.390 OA
HETATM   14  H   LIG     1      43.554  -3.881  -2.208  1.00  0.00     0.210 HD
ENDBRANCH   2  13
BRANCH   6  15
HETATM   15  C   LIG     1      42.955  -8.199  -5.398  1.00  0.00     0.198 C 
BRANCH  15  16
HETATM   16  O   LIG     1      44.280  -8.398  -4.911  1.00  0.00    -0.398 OA
HETATM   17  H   LIG     1      44.793  -8.763  -5.656  1.00  0.00     0.209 HD
ENDBRANCH  15  16
ENDBRANCH   6  15
BRANCH   1  18
HETATM   18  O   LIG     1      44.299  -5.708  -4.307  1.00  0.00    -0.390 OA
HETATM   19  H   LIG     1      44.405  -4.841  -3.854  1.00  0.00     0.210 HD
ENDBRANCH   1  18
TORSDOF 8
ENDMDL
