REMARK AutoDockVina VirtualScreeningResult  Sat Mar  5 21:34:33 2016
USER  AD>  5 of 9 MODELS
USER  AD>  ligand efficiency  -0.3333
USER  AD>  -5.00,  6.882,  9.204
USER  AD> macro_close_ats: 13
USER  AD> hepi:A:THR188:H
USER  AD> hepi:A:THR262:H
USER  AD> hepi:A:LEU264:CG
USER  AD> hepi:A:GLY263:H
USER  AD> hepi:A:MET11:H
USER  AD> hepi:A:THR188:N
USER  AD> hepi:A:THR188:CG2
USER  AD> hepi:A:THR187:OG1
USER  AD> hepi:A:MET11:CB
USER  AD> hepi:A:LYS192:H
USER  AD> hepi:A:MET11:CE
USER  AD> hepi:A:THR187:H
USER  AD> hepi:A:MET11:N

USER  AD> lig_close_ats: 11
USER  AD> h11_ab3_m5_model1: :LIG1:C,H,O,C,O,O,H,H,H,O,C
MODEL 5
REMARK VINA RESULT:      -5.0      6.882      9.204
REMARK  8 active torsions:
REMARK  status: ('A' for Active; 'I' for Inactive)
REMARK    1  A    between atoms: C_1  and  O_7 
REMARK    2  A    between atoms: C_2  and  O_10 
REMARK    3  A    between atoms: C_3  and  O_11 
REMARK    4  A    between atoms: C_4  and  O_12 
REMARK    5  A    between atoms: C_6  and  C_8 
REMARK    6  A    between atoms: C_8  and  O_9 
REMARK    7  A    between atoms: O_12  and  C_13 
REMARK    8  A    between atoms: C_13  and  C_14 
ROOT
HETATM    1  C   LIG     1      43.682   6.616   0.970  1.00  0.00     0.180 C 
HETATM    2  C   LIG     1      45.207   6.579   1.042  1.00  0.00     0.183 C 
HETATM    3  C   LIG     1      45.731   7.038   2.411  1.00  0.00     0.204 C 
HETATM    4  C   LIG     1      45.058   8.365   2.846  1.00  0.00     0.291 C 
HETATM    5  O   LIG     1      43.627   8.284   2.696  1.00  0.00    -0.348 OA
HETATM    6  C   LIG     1      43.213   8.025   1.351  1.00  0.00     0.179 C 
ENDROOT
BRANCH   4   7
HETATM    7  O   LIG     1      45.270   8.657   4.230  1.00  0.00    -0.355 OA
BRANCH   7   8
HETATM    8  C   LIG     1      45.937   9.879   4.518  1.00  0.00     0.197 C 
BRANCH   8   9
HETATM    9  C   LIG     1      45.325  10.568   5.698  1.00  0.00    -0.011 C 
HETATM   10  C   LIG     1      45.114  11.890   5.770  1.00  0.00     0.009 C 
ENDBRANCH   8   9
ENDBRANCH   7   8
ENDBRANCH   4   7
BRANCH   3  11
HETATM   11  O   LIG     1      47.159   7.152   2.298  1.00  0.00    -0.388 OA
HETATM   12  H   LIG     1      47.516   6.364   2.756  1.00  0.00     0.210 HD
ENDBRANCH   3  11
BRANCH   2  13
HETATM   13  O   LIG     1      45.688   5.246   0.800  1.00  0.00    -0.390 OA
HETATM   14  H   LIG     1      45.554   5.090  -0.160  1.00  0.00     0.210 HD
ENDBRANCH   2  13
BRANCH   6  15
HETATM   15  C   LIG     1      41.691   8.168   1.270  1.00  0.00     0.198 C 
BRANCH  15  16
HETATM   16  O   LIG     1      41.266   9.352   1.934  1.00  0.00    -0.398 OA
HETATM   17  H   LIG     1      40.611   9.790   1.363  1.00  0.00     0.209 HD
ENDBRANCH  15  16
ENDBRANCH   6  15
BRANCH   1  18
HETATM   18  O   LIG     1      43.185   5.622   1.888  1.00  0.00    -0.390 OA
HETATM   19  H   LIG     1      42.332   5.950   2.237  1.00  0.00     0.210 HD
ENDBRANCH   1  18
TORSDOF 8
ENDMDL
