REMARK AutoDockVina VirtualScreeningResult  Sat Mar  5 21:14:33 2016
USER  AD>  8 of 9 MODELS
USER  AD>  ligand efficiency  -0.2789
USER  AD>  -5.30,  6.492,  8.843
USER  AD> macro_close_ats: 12
USER  AD> hepi:A:THR188:N
USER  AD> hepi:A:THR187:CA
USER  AD> hepi:A:ALA186:CB
USER  AD> hepi:A:THR262:H
USER  AD> hepi:A:ALA186:C
USER  AD> hepi:A:GLU222:OE2
USER  AD> hepi:A:TRP217:H
USER  AD> hepi:A:THR262:OG1
USER  AD> hepi:A:THR187:N
USER  AD> hepi:A:THR187:C
USER  AD> hepi:A:ALA186:O
USER  AD> hepi:A:LEU264:CD1

USER  AD> lig_close_ats: 6
USER  AD> h11_gb6_m8_model1: :LIG1:C,C,H,H,O,H
MODEL 8
REMARK VINA RESULT:      -5.3      6.492      8.843
REMARK  11 active torsions:
REMARK  status: ('A' for Active; 'I' for Inactive)
REMARK    1  A    between atoms: C_1  and  O_19 
REMARK    2  A    between atoms: C_2  and  O_9 
REMARK    3  A    between atoms: C_3  and  O_10 
REMARK    4  A    between atoms: C_4  and  O_11 
REMARK    5  A    between atoms: C_6  and  C_7 
REMARK    6  A    between atoms: C_7  and  O_8 
REMARK    7  A    between atoms: O_11  and  C_12 
REMARK    8  A    between atoms: C_12  and  C_13 
REMARK    9  A    between atoms: C_14  and  C_15 
REMARK   10  A    between atoms: C_15  and  C_16 
REMARK   11  A    between atoms: C_16  and  C_17 
ROOT
HETATM    1  C   LIG     1      44.273  11.862   4.004  1.00  0.00     0.180 C 
HETATM    2  C   LIG     1      44.700  11.259   2.656  1.00  0.00     0.183 C 
HETATM    3  C   LIG     1      45.097   9.798   2.841  1.00  0.00     0.204 C 
HETATM    4  C   LIG     1      46.237   9.730   3.873  1.00  0.00     0.291 C 
HETATM    5  O   LIG     1      45.745  10.221   5.128  1.00  0.00    -0.348 OA
HETATM    6  C   LIG     1      45.333  11.599   5.096  1.00  0.00     0.179 C 
ENDROOT
BRANCH   4   7
HETATM    7  O   LIG     1      47.393  10.483   3.487  1.00  0.00    -0.355 OA
BRANCH   7   8
HETATM    8  C   LIG     1      48.557  10.071   4.198  1.00  0.00     0.198 C 
BRANCH   8   9
HETATM    9  C   LIG     1      49.080  11.228   4.994  1.00  0.00    -0.005 C 
HETATM   10  C   LIG     1      49.178  11.192   6.330  1.00  0.00    -0.029 C 
BRANCH  10  11
HETATM   11  C   LIG     1      49.652  12.332   7.186  1.00  0.00     0.027 C 
BRANCH  11  12
HETATM   12  C   LIG     1      49.703  11.921   8.662  1.00  0.00     0.003 C 
BRANCH  12  13
HETATM   13  C   LIG     1      48.934  12.892   9.553  1.00  0.00    -0.004 C 
HETATM   14  C   LIG     1      49.851  13.548  10.575  1.00  0.00     0.005 C 
ENDBRANCH  12  13
ENDBRANCH  11  12
ENDBRANCH  10  11
ENDBRANCH   8   9
ENDBRANCH   7   8
ENDBRANCH   4   7
BRANCH   3  15
HETATM   15  O   LIG     1      45.429   9.223   1.573  1.00  0.00    -0.388 OA
HETATM   16  H   LIG     1      45.376   8.254   1.711  1.00  0.00     0.210 HD
ENDBRANCH   3  15
BRANCH   2  17
HETATM   17  O   LIG     1      43.645  11.307   1.677  1.00  0.00    -0.390 OA
HETATM   18  H   LIG     1      43.196  12.169   1.764  1.00  0.00     0.210 HD
ENDBRANCH   2  17
BRANCH   6  19
HETATM   19  C   LIG     1      44.806  11.927   6.507  1.00  0.00     0.198 C 
BRANCH  19  20
HETATM   20  O   LIG     1      43.811  11.030   6.976  1.00  0.00    -0.398 OA
HETATM   21  H   LIG     1      43.900  10.194   6.489  1.00  0.00     0.209 HD
ENDBRANCH  19  20
ENDBRANCH   6  19
BRANCH   1  22
HETATM   22  O   LIG     1      44.003  13.254   3.816  1.00  0.00    -0.390 OA
HETATM   23  H   LIG     1      43.132  13.459   4.199  1.00  0.00     0.210 HD
ENDBRANCH   1  22
TORSDOF 11
ENDMDL
