REMARK AutoDockVina VirtualScreeningResult  Sat Mar  5 21:34:43 2016
USER  AD>  8 of 9 MODELS
USER  AD>  ligand efficiency  -0.2524
USER  AD>  -5.30,  2.787,  5.501
USER  AD> macro_close_ats: 12
USER  AD> hepi:A:PHE41:CZ
USER  AD> hepi:A:LEU264:CG
USER  AD> hepi:A:MET11:CE
USER  AD> hepi:A:LYS192:NZ
USER  AD> hepi:A:SER10:CA
USER  AD> hepi:A:LYS192:H
USER  AD> hepi:A:MET11:H
USER  AD> hepi:A:GLY263:H
USER  AD> hepi:A:SER10:OG
USER  AD> hepi:A:GLY263:N
USER  AD> hepi:A:THR262:CA
USER  AD> hepi:A:LYS192:H

USER  AD> lig_close_ats: 12
USER  AD> h11_ab8_m8_model1: :LIG1:C,C,O,C,C,O,C,O,H,C,O,H
MODEL 8
REMARK VINA RESULT:      -5.3      2.787      5.501
REMARK  13 active torsions:
REMARK  status: ('A' for Active; 'I' for Inactive)
REMARK    1  A    between atoms: C_1  and  O_7 
REMARK    2  A    between atoms: C_2  and  O_10 
REMARK    3  A    between atoms: C_3  and  O_11 
REMARK    4  A    between atoms: C_4  and  O_12 
REMARK    5  A    between atoms: C_6  and  C_8 
REMARK    6  A    between atoms: C_8  and  O_9 
REMARK    7  A    between atoms: O_12  and  C_13 
REMARK    8  A    between atoms: C_13  and  C_14 
REMARK    9  A    between atoms: C_15  and  C_16 
REMARK   10  A    between atoms: C_16  and  C_17 
REMARK   11  A    between atoms: C_17  and  C_18 
REMARK   12  A    between atoms: C_18  and  C_19 
REMARK   13  A    between atoms: C_19  and  C_20 
ROOT
HETATM    1  C   LIG     1      40.486   4.547   1.086  1.00  0.00     0.180 C 
HETATM    2  C   LIG     1      41.183   5.740   1.750  1.00  0.00     0.183 C 
HETATM    3  C   LIG     1      42.649   5.877   1.307  1.00  0.00     0.204 C 
HETATM    4  C   LIG     1      43.359   4.510   1.416  1.00  0.00     0.291 C 
HETATM    5  O   LIG     1      42.617   3.487   0.742  1.00  0.00    -0.348 OA
HETATM    6  C   LIG     1      41.328   3.286   1.330  1.00  0.00     0.179 C 
ENDROOT
BRANCH   4   7
HETATM    7  O   LIG     1      44.653   4.548   0.812  1.00  0.00    -0.355 OA
BRANCH   7   8
HETATM    8  C   LIG     1      44.628   5.203  -0.451  1.00  0.00     0.198 C 
BRANCH   8   9
HETATM    9  C   LIG     1      45.552   6.382  -0.399  1.00  0.00    -0.005 C 
HETATM   10  C   LIG     1      46.386   6.600   0.630  1.00  0.00    -0.029 C 
BRANCH  10  11
HETATM   11  C   LIG     1      47.336   7.760   0.727  1.00  0.00     0.027 C 
BRANCH  11  12
HETATM   12  C   LIG     1      47.501   8.203   2.185  1.00  0.00     0.004 C 
BRANCH  12  13
HETATM   13  C   LIG     1      46.251   8.906   2.715  1.00  0.00     0.000 C 
BRANCH  13  14
HETATM   14  C   LIG     1      46.047   8.601   4.200  1.00  0.00    -0.000 C 
BRANCH  14  15
HETATM   15  C   LIG     1      46.148   9.865   5.051  1.00  0.00    -0.005 C 
HETATM   16  C   LIG     1      47.573  10.100   5.526  1.00  0.00     0.005 C 
ENDBRANCH  14  15
ENDBRANCH  13  14
ENDBRANCH  12  13
ENDBRANCH  11  12
ENDBRANCH  10  11
ENDBRANCH   8   9
ENDBRANCH   7   8
ENDBRANCH   4   7
BRANCH   3  17
HETATM   17  O   LIG     1      43.279   6.859   2.149  1.00  0.00    -0.388 OA
HETATM   18  H   LIG     1      44.162   6.492   2.357  1.00  0.00     0.210 HD
ENDBRANCH   3  17
BRANCH   2  19
HETATM   19  O   LIG     1      40.493   6.962   1.444  1.00  0.00    -0.390 OA
HETATM   20  H   LIG     1      39.714   6.698   0.911  1.00  0.00     0.210 HD
ENDBRANCH   2  19
BRANCH   6  21
HETATM   21  C   LIG     1      40.713   2.025   0.724  1.00  0.00     0.198 C 
BRANCH  21  22
HETATM   22  O   LIG     1      39.911   1.347   1.681  1.00  0.00    -0.398 OA
HETATM   23  H   LIG     1      39.176   1.940   1.922  1.00  0.00     0.209 HD
ENDBRANCH  21  22
ENDBRANCH   6  21
BRANCH   1  24
HETATM   24  O   LIG     1      40.366   4.846  -0.317  1.00  0.00    -0.390 OA
HETATM   25  H   LIG     1      40.313   5.818  -0.406  1.00  0.00     0.210 HD
ENDBRANCH   1  24
TORSDOF 13
ENDMDL
