REMARK AutoDockVina VirtualScreeningResult  Sat Mar  5 21:35:00 2016
USER  AD>  5 of 9 MODELS
USER  AD>  ligand efficiency  -0.2750
USER  AD>  -5.50,  6.322,  8.195
USER  AD> macro_close_ats: 11
USER  AD> hepi:A:THR187:OG1
USER  AD> hepi:A:MET11:CB
USER  AD> hepi:A:THR262:OG1
USER  AD> hepi:A:ASP261:O
USER  AD> hepi:A:GLY263:H
USER  AD> hepi:A:THR262:CA
USER  AD> hepi:A:MET11:H
USER  AD> hepi:A:MET11:N
USER  AD> hepi:A:GLY263:N
USER  AD> hepi:A:LEU264:CD1
USER  AD> hepi:A:THR262:CB

USER  AD> lig_close_ats: 11
USER  AD> h11_gb7_m5_model1: :LIG1:O,C,O,C,H,H,C,C,C,O,C
MODEL 5
REMARK VINA RESULT:      -5.5      6.322      8.195
REMARK  12 active torsions:
REMARK  status: ('A' for Active; 'I' for Inactive)
REMARK    1  A    between atoms: C_1  and  O_20 
REMARK    2  A    between atoms: C_2  and  O_9 
REMARK    3  A    between atoms: C_3  and  O_10 
REMARK    4  A    between atoms: C_4  and  O_11 
REMARK    5  A    between atoms: C_6  and  C_7 
REMARK    6  A    between atoms: C_7  and  O_8 
REMARK    7  A    between atoms: O_11  and  C_12 
REMARK    8  A    between atoms: C_12  and  C_13 
REMARK    9  A    between atoms: C_14  and  C_15 
REMARK   10  A    between atoms: C_15  and  C_16 
REMARK   11  A    between atoms: C_16  and  C_17 
REMARK   12  A    between atoms: C_17  and  C_18 
ROOT
HETATM    1  C   LIG L   1      43.731   6.457   1.094  1.00  0.00     0.180 C 
HETATM    2  C   LIG L   1      45.245   6.634   1.073  1.00  0.00     0.183 C 
HETATM    3  C   LIG L   1      45.773   7.251   2.367  1.00  0.00     0.204 C 
HETATM    4  C   LIG L   1      44.992   8.545   2.700  1.00  0.00     0.291 C 
HETATM    5  O   LIG L   1      43.577   8.282   2.699  1.00  0.00    -0.348 OA
HETATM    6  C   LIG L   1      43.075   7.797   1.455  1.00  0.00     0.179 C 
ENDROOT
BRANCH   4   7
HETATM    7  O   LIG L   1      45.276   9.065   4.001  1.00  0.00    -0.355 OA
BRANCH   7   8
HETATM    8  C   LIG L   1      45.575  10.452   4.106  1.00  0.00     0.198 C 
BRANCH   8   9
HETATM    9  C   LIG L   1      46.355  10.779   5.346  1.00  0.00    -0.005 C 
HETATM   10  C   LIG L   1      47.274  11.754   5.430  1.00  0.00    -0.029 C 
BRANCH  10  11
HETATM   11  C   LIG L   1      48.053  12.071   6.676  1.00  0.00     0.027 C 
BRANCH  11  12
HETATM   12  C   LIG L   1      49.092  10.991   6.985  1.00  0.00     0.004 C 
BRANCH  12  13
HETATM   13  C   LIG L   1      50.049  11.451   8.088  1.00  0.00    -0.000 C 
BRANCH  13  14
HETATM   14  C   LIG L   1      49.332  12.299   9.139  1.00  0.00    -0.005 C 
HETATM   15  C   LIG L   1      50.315  13.152   9.927  1.00  0.00     0.005 C 
ENDBRANCH  13  14
ENDBRANCH  12  13
ENDBRANCH  11  12
ENDBRANCH  10  11
ENDBRANCH   8   9
ENDBRANCH   7   8
ENDBRANCH   4   7
BRANCH   3  16
HETATM   16  O   LIG L   1      47.179   7.485   2.169  1.00  0.00    -0.388 OA
HETATM   17  H   LIG L   1      47.337   8.376   2.543  1.00  0.00     0.210 HD
ENDBRANCH   3  16
BRANCH   2  18
HETATM   18  O   LIG L   1      45.889   5.365   0.857  1.00  0.00    -0.390 OA
HETATM   19  H   LIG L   1      46.703   5.406   1.400  1.00  0.00     0.210 HD
ENDBRANCH   2  18
BRANCH   6  20
HETATM   20  C   LIG L   1      41.552   7.652   1.588  1.00  0.00     0.198 C 
BRANCH  20  21
HETATM   21  O   LIG L   1      40.952   8.891   1.964  1.00  0.00    -0.398 OA
HETATM   22  H   LIG L   1      40.385   8.699   2.735  1.00  0.00     0.209 HD
ENDBRANCH  20  21
ENDBRANCH   6  20
BRANCH   1  23
HETATM   23  O   LIG L   1      43.337   5.975  -0.198  1.00  0.00    -0.390 OA
HETATM   24  H   LIG L   1      43.956   5.244  -0.421  1.00  0.00     0.210 HD
ENDBRANCH   1  23
TORSDOF 12
ENDMDL
