REMARK AutoDockVina VirtualScreeningResult  Sat Mar  5 21:35:00 2016
USER  AD>  2 of 9 MODELS
USER  AD>  ligand efficiency  -0.2850
USER  AD>  -5.70,  2.689,  4.092
USER  AD> macro_close_ats: 14
USER  AD> hepi:A:THR262:H
USER  AD> hepi:A:LYS192:H
USER  AD> hepi:A:HIS266:NE2
USER  AD> hepi:A:MET11:CB
USER  AD> hepi:A:MET11:H
USER  AD> hepi:A:HIS266:CD2
USER  AD> hepi:A:SER10:OG
USER  AD> hepi:A:GLY263:H
USER  AD> hepi:A:THR262:CA
USER  AD> hepi:A:GLY12:H
USER  AD> hepi:A:GLY263:N
USER  AD> hepi:A:SER10:H
USER  AD> hepi:A:THR262:C
USER  AD> hepi:A:LEU264:CG

USER  AD> lig_close_ats: 12
USER  AD> h11_gb7_m2_model1: :LIG1:O,C,O,O,C,C,C,O,H,C,C,C
MODEL 2
REMARK VINA RESULT:      -5.7      2.689      4.092
REMARK  12 active torsions:
REMARK  status: ('A' for Active; 'I' for Inactive)
REMARK    1  A    between atoms: C_1  and  O_20 
REMARK    2  A    between atoms: C_2  and  O_9 
REMARK    3  A    between atoms: C_3  and  O_10 
REMARK    4  A    between atoms: C_4  and  O_11 
REMARK    5  A    between atoms: C_6  and  C_7 
REMARK    6  A    between atoms: C_7  and  O_8 
REMARK    7  A    between atoms: O_11  and  C_12 
REMARK    8  A    between atoms: C_12  and  C_13 
REMARK    9  A    between atoms: C_14  and  C_15 
REMARK   10  A    between atoms: C_15  and  C_16 
REMARK   11  A    between atoms: C_16  and  C_17 
REMARK   12  A    between atoms: C_17  and  C_18 
ROOT
HETATM    1  C   LIG     1      40.245   3.402   1.144  1.00  0.00     0.180 C 
HETATM    2  C   LIG     1      40.613   4.766   1.719  1.00  0.00     0.183 C 
HETATM    3  C   LIG     1      42.064   5.144   1.427  1.00  0.00     0.204 C 
HETATM    4  C   LIG     1      43.013   4.001   1.861  1.00  0.00     0.291 C 
HETATM    5  O   LIG     1      42.591   2.758   1.271  1.00  0.00    -0.348 OA
HETATM    6  C   LIG     1      41.267   2.363   1.627  1.00  0.00     0.179 C 
ENDROOT
BRANCH   4   7
HETATM    7  O   LIG     1      44.363   4.182   1.428  1.00  0.00    -0.355 OA
BRANCH   7   8
HETATM    8  C   LIG     1      44.600   5.119   0.385  1.00  0.00     0.198 C 
BRANCH   8   9
HETATM    9  C   LIG     1      45.748   6.039   0.688  1.00  0.00    -0.005 C 
HETATM   10  C   LIG     1      45.930   6.665   1.861  1.00  0.00    -0.029 C 
BRANCH  10  11
HETATM   11  C   LIG     1      47.080   7.587   2.153  1.00  0.00     0.027 C 
BRANCH  11  12
HETATM   12  C   LIG     1      46.607   9.016   2.428  1.00  0.00     0.004 C 
BRANCH  12  13
HETATM   13  C   LIG     1      45.460   9.028   3.442  1.00  0.00    -0.000 C 
BRANCH  13  14
HETATM   14  C   LIG     1      45.979   9.036   4.880  1.00  0.00    -0.005 C 
HETATM   15  C   LIG     1      45.824  10.409   5.517  1.00  0.00     0.005 C 
ENDBRANCH  13  14
ENDBRANCH  12  13
ENDBRANCH  11  12
ENDBRANCH  10  11
ENDBRANCH   8   9
ENDBRANCH   7   8
ENDBRANCH   4   7
BRANCH   3  16
HETATM   16  O   LIG     1      42.319   6.374   2.128  1.00  0.00    -0.388 OA
HETATM   17  H   LIG     1      41.605   6.432   2.797  1.00  0.00     0.210 HD
ENDBRANCH   3  16
BRANCH   2  18
HETATM   18  O   LIG     1      39.743   5.780   1.183  1.00  0.00    -0.390 OA
HETATM   19  H   LIG     1      39.149   5.298   0.572  1.00  0.00     0.210 HD
ENDBRANCH   2  18
BRANCH   6  20
HETATM   20  C   LIG     1      41.002   0.988   0.996  1.00  0.00     0.198 C 
BRANCH  20  21
HETATM   21  O   LIG     1      42.197   0.210   0.946  1.00  0.00    -0.398 OA
HETATM   22  H   LIG     1      42.205  -0.333   1.757  1.00  0.00     0.209 HD
ENDBRANCH  20  21
ENDBRANCH   6  20
BRANCH   1  23
HETATM   23  O   LIG     1      38.908   3.105   1.565  1.00  0.00    -0.390 OA
HETATM   24  H   LIG     1      38.977   2.358   2.199  1.00  0.00     0.210 HD
ENDBRANCH   1  23
TORSDOF 12
ENDMDL
