REMARK AutoDockVina VirtualScreeningResult  Sat Mar  5 21:14:12 2016
USER  AD>  2 of 9 MODELS
USER  AD>  ligand efficiency  -0.2700
USER  AD>  -5.40,  7.225, 12.439
USER  AD> macro_close_ats: 11
USER  AD> hepi:A:MET11:CE
USER  AD> hepi:A:LYS192:H
USER  AD> hepi:A:MET11:H
USER  AD> hepi:A:THR188:H
USER  AD> hepi:A:GLY263:CA
USER  AD> hepi:A:GLY263:H
USER  AD> hepi:A:THR262:H
USER  AD> hepi:A:LEU264:CD2
USER  AD> hepi:A:THR262:CA
USER  AD> hepi:A:LEU264:CG
USER  AD> hepi:A:MET11:N

USER  AD> lig_close_ats: 11
USER  AD> h11_ab7_m2_model1: :LIG1:C,H,O,O,O,O,H,C,C,C,C
MODEL 2
REMARK VINA RESULT:      -5.4      7.225     12.439
REMARK  12 active torsions:
REMARK  status: ('A' for Active; 'I' for Inactive)
REMARK    1  A    between atoms: C_1  and  O_7 
REMARK    2  A    between atoms: C_2  and  O_10 
REMARK    3  A    between atoms: C_3  and  O_11 
REMARK    4  A    between atoms: C_4  and  O_12 
REMARK    5  A    between atoms: C_6  and  C_8 
REMARK    6  A    between atoms: C_8  and  O_9 
REMARK    7  A    between atoms: O_12  and  C_13 
REMARK    8  A    between atoms: C_13  and  C_14 
REMARK    9  A    between atoms: C_15  and  C_16 
REMARK   10  A    between atoms: C_16  and  C_17 
REMARK   11  A    between atoms: C_17  and  C_18 
REMARK   12  A    between atoms: C_18  and  C_19 
ROOT
HETATM    1  C   LIG     1      43.600   6.617   0.849  1.00  0.00     0.180 C 
HETATM    2  C   LIG     1      45.115   6.602   1.038  1.00  0.00     0.183 C 
HETATM    3  C   LIG     1      45.530   7.172   2.402  1.00  0.00     0.204 C 
HETATM    4  C   LIG     1      44.830   8.529   2.673  1.00  0.00     0.291 C 
HETATM    5  O   LIG     1      43.413   8.421   2.426  1.00  0.00    -0.348 OA
HETATM    6  C   LIG     1      43.094   8.045   1.083  1.00  0.00     0.179 C 
ENDROOT
BRANCH   4   7
HETATM    7  O   LIG     1      44.929   8.950   4.036  1.00  0.00    -0.355 OA
BRANCH   7   8
HETATM    8  C   LIG     1      45.836  10.008   4.309  1.00  0.00     0.198 C 
BRANCH   8   9
HETATM    9  C   LIG     1      46.864   9.616   5.327  1.00  0.00    -0.005 C 
HETATM   10  C   LIG     1      48.000  10.301   5.536  1.00  0.00    -0.029 C 
BRANCH  10  11
HETATM   11  C   LIG     1      49.079   9.892   6.499  1.00  0.00     0.027 C 
BRANCH  11  12
HETATM   12  C   LIG     1      49.922  11.101   6.913  1.00  0.00     0.004 C 
BRANCH  12  13
HETATM   13  C   LIG     1      51.231  10.679   7.583  1.00  0.00    -0.000 C 
BRANCH  13  14
HETATM   14  C   LIG     1      52.350  10.518   6.553  1.00  0.00    -0.005 C 
HETATM   15  C   LIG     1      53.204  11.772   6.450  1.00  0.00     0.005 C 
ENDBRANCH  13  14
ENDBRANCH  12  13
ENDBRANCH  11  12
ENDBRANCH  10  11
ENDBRANCH   8   9
ENDBRANCH   7   8
ENDBRANCH   4   7
BRANCH   3  16
HETATM   16  O   LIG     1      46.966   7.278   2.391  1.00  0.00    -0.388 OA
HETATM   17  H   LIG     1      47.150   8.239   2.417  1.00  0.00     0.210 HD
ENDBRANCH   3  16
BRANCH   2  18
HETATM   18  O   LIG     1      45.620   5.259   0.939  1.00  0.00    -0.390 OA
HETATM   19  H   LIG     1      46.580   5.354   0.762  1.00  0.00     0.210 HD
ENDBRANCH   2  18
BRANCH   6  20
HETATM   20  C   LIG     1      41.579   8.157   0.891  1.00  0.00     0.198 C 
BRANCH  20  21
HETATM   21  O   LIG     1      40.982   8.782   2.021  1.00  0.00    -0.398 OA
HETATM   22  H   LIG     1      41.528   9.554   2.251  1.00  0.00     0.209 HD
ENDBRANCH  20  21
ENDBRANCH   6  20
BRANCH   1  23
HETATM   23  O   LIG     1      43.042   5.688   1.799  1.00  0.00    -0.390 OA
HETATM   24  H   LIG     1      43.611   4.892   1.797  1.00  0.00     0.210 HD
ENDBRANCH   1  23
TORSDOF 12
ENDMDL
