REMARK AutoDockVina VirtualScreeningResult  Sat Mar  5 21:35:00 2016
USER  AD>  3 of 9 MODELS
USER  AD>  ligand efficiency  -0.2800
USER  AD>  -5.60,  4.127,  6.491
USER  AD> macro_close_ats: 16
USER  AD> hepi:A:MET11:CE
USER  AD> hepi:A:SER10:OG
USER  AD> hepi:A:THR187:C
USER  AD> hepi:A:THR187:OG1
USER  AD> hepi:A:LYS192:H
USER  AD> hepi:A:THR188:H
USER  AD> hepi:A:GLY263:CA
USER  AD> hepi:A:GLY263:H
USER  AD> hepi:A:LYS192:NZ
USER  AD> hepi:A:GLY12:H
USER  AD> hepi:A:THR262:CA
USER  AD> hepi:A:SER10:H
USER  AD> hepi:A:THR187:CA
USER  AD> hepi:A:LEU264:CG
USER  AD> hepi:A:THR188:N
USER  AD> hepi:A:LYS192:H

USER  AD> lig_close_ats: 12
USER  AD> h11_gb7_m3_model1: :LIG1:H,C,C,C,C,C,C,O,O,O,O,H
MODEL 3
REMARK VINA RESULT:      -5.6      4.127      6.491
REMARK  12 active torsions:
REMARK  status: ('A' for Active; 'I' for Inactive)
REMARK    1  A    between atoms: C_1  and  O_20 
REMARK    2  A    between atoms: C_2  and  O_9 
REMARK    3  A    between atoms: C_3  and  O_10 
REMARK    4  A    between atoms: C_4  and  O_11 
REMARK    5  A    between atoms: C_6  and  C_7 
REMARK    6  A    between atoms: C_7  and  O_8 
REMARK    7  A    between atoms: O_11  and  C_12 
REMARK    8  A    between atoms: C_12  and  C_13 
REMARK    9  A    between atoms: C_14  and  C_15 
REMARK   10  A    between atoms: C_15  and  C_16 
REMARK   11  A    between atoms: C_16  and  C_17 
REMARK   12  A    between atoms: C_17  and  C_18 
ROOT
HETATM    1  C   LIG     1      41.365   6.064   1.407  1.00  0.00     0.180 C 
HETATM    2  C   LIG     1      42.280   4.902   1.036  1.00  0.00     0.183 C 
HETATM    3  C   LIG     1      43.638   4.991   1.731  1.00  0.00     0.204 C 
HETATM    4  C   LIG     1      44.267   6.386   1.500  1.00  0.00     0.291 C 
HETATM    5  O   LIG     1      43.336   7.416   1.878  1.00  0.00    -0.348 OA
HETATM    6  C   LIG     1      42.107   7.385   1.155  1.00  0.00     0.179 C 
ENDROOT
BRANCH   4   7
HETATM    7  O   LIG     1      45.433   6.626   2.291  1.00  0.00    -0.355 OA
BRANCH   7   8
HETATM    8  C   LIG     1      46.211   7.777   1.988  1.00  0.00     0.198 C 
BRANCH   8   9
HETATM    9  C   LIG     1      46.621   8.534   3.217  1.00  0.00    -0.005 C 
HETATM   10  C   LIG     1      45.899   8.598   4.346  1.00  0.00    -0.029 C 
BRANCH  10  11
HETATM   11  C   LIG     1      46.317   9.363   5.571  1.00  0.00     0.027 C 
BRANCH  11  12
HETATM   12  C   LIG     1      46.459  10.859   5.283  1.00  0.00     0.004 C 
BRANCH  12  13
HETATM   13  C   LIG     1      45.183  11.615   5.665  1.00  0.00    -0.000 C 
BRANCH  13  14
HETATM   14  C   LIG     1      44.817  12.668   4.619  1.00  0.00    -0.005 C 
HETATM   15  C   LIG     1      44.215  12.030   3.377  1.00  0.00     0.005 C 
ENDBRANCH  13  14
ENDBRANCH  12  13
ENDBRANCH  11  12
ENDBRANCH  10  11
ENDBRANCH   8   9
ENDBRANCH   7   8
ENDBRANCH   4   7
BRANCH   3  16
HETATM   16  O   LIG     1      44.443   3.923   1.201  1.00  0.00    -0.388 OA
HETATM   17  H   LIG     1      43.938   3.590   0.431  1.00  0.00     0.210 HD
ENDBRANCH   3  16
BRANCH   2  18
HETATM   18  O   LIG     1      41.655   3.651   1.378  1.00  0.00    -0.390 OA
HETATM   19  H   LIG     1      42.313   3.192   1.940  1.00  0.00     0.210 HD
ENDBRANCH   2  18
BRANCH   6  20
HETATM   20  C   LIG     1      41.266   8.588   1.606  1.00  0.00     0.198 C 
BRANCH  20  21
HETATM   21  O   LIG     1      42.096   9.712   1.892  1.00  0.00    -0.398 OA
HETATM   22  H   LIG     1      41.526  10.501   1.818  1.00  0.00     0.209 HD
ENDBRANCH  20  21
ENDBRANCH   6  20
BRANCH   1  23
HETATM   23  O   LIG     1      40.172   5.937   0.623  1.00  0.00    -0.390 OA
HETATM   24  H   LIG     1      40.464   5.780  -0.303  1.00  0.00     0.210 HD
ENDBRANCH   1  23
TORSDOF 12
ENDMDL
