REMARK AutoDockVina VirtualScreeningResult  Sat Mar  5 21:35:05 2016
USER  AD>  8 of 9 MODELS
USER  AD>  ligand efficiency  -0.2476
USER  AD>  -5.20,  4.821,  9.702
USER  AD> macro_close_ats: 16
USER  AD> hepi:A:MET11:H
USER  AD> hepi:A:GLY12:H
USER  AD> hepi:A:ASP283:H
USER  AD> hepi:A:LYS192:H
USER  AD> hepi:A:SER10:OG
USER  AD> hepi:A:ASP261:O
USER  AD> hepi:A:ILE287:CD1
USER  AD> hepi:A:GLY263:CA
USER  AD> hepi:A:THR262:CB
USER  AD> hepi:A:THR187:OG1
USER  AD> hepi:A:ILE287:CG2
USER  AD> hepi:A:SER10:CA
USER  AD> hepi:A:GLY263:H
USER  AD> hepi:A:GLY263:N
USER  AD> hepi:A:THR262:CA
USER  AD> hepi:A:SER10:H

USER  AD> lig_close_ats: 13
USER  AD> h11_gb8_m8_model1: :LIG1:C,H,C,O,O,C,H,O,H,H,C,C,C
MODEL 8
REMARK VINA RESULT:      -5.2      4.821      9.702
REMARK  13 active torsions:
REMARK  status: ('A' for Active; 'I' for Inactive)
REMARK    1  A    between atoms: C_1  and  O_21 
REMARK    2  A    between atoms: C_2  and  O_9 
REMARK    3  A    between atoms: C_3  and  O_10 
REMARK    4  A    between atoms: C_4  and  O_11 
REMARK    5  A    between atoms: C_6  and  C_7 
REMARK    6  A    between atoms: C_7  and  O_8 
REMARK    7  A    between atoms: O_11  and  C_12 
REMARK    8  A    between atoms: C_12  and  C_13 
REMARK    9  A    between atoms: C_14  and  C_15 
REMARK   10  A    between atoms: C_15  and  C_16 
REMARK   11  A    between atoms: C_16  and  C_17 
REMARK   12  A    between atoms: C_17  and  C_18 
REMARK   13  A    between atoms: C_18  and  C_19 
ROOT
HETATM    1  C   LIG     1      43.171   6.007   1.301  1.00  0.00     0.180 C 
HETATM    2  C   LIG     1      43.273   4.524   1.686  1.00  0.00     0.183 C 
HETATM    3  C   LIG     1      42.097   3.692   1.157  1.00  0.00     0.204 C 
HETATM    4  C   LIG     1      40.802   4.383   1.623  1.00  0.00     0.291 C 
HETATM    5  O   LIG     1      40.745   5.704   1.091  1.00  0.00    -0.348 OA
HETATM    6  C   LIG     1      41.767   6.563   1.596  1.00  0.00     0.179 C 
ENDROOT
BRANCH   4   7
HETATM    7  O   LIG     1      39.653   3.677   1.162  1.00  0.00    -0.355 OA
BRANCH   7   8
HETATM    8  C   LIG     1      38.727   4.560   0.539  1.00  0.00     0.198 C 
BRANCH   8   9
HETATM    9  C   LIG     1      38.271   3.973  -0.758  1.00  0.00    -0.005 C 
HETATM   10  C   LIG     1      38.878   2.908  -1.299  1.00  0.00    -0.029 C 
BRANCH  10  11
HETATM   11  C   LIG     1      38.460   2.249  -2.583  1.00  0.00     0.027 C 
BRANCH  11  12
HETATM   12  C   LIG     1      37.319   3.032  -3.240  1.00  0.00     0.004 C 
BRANCH  12  13
HETATM   13  C   LIG     1      36.197   2.114  -3.718  1.00  0.00     0.000 C 
BRANCH  13  14
HETATM   14  C   LIG     1      34.863   2.517  -3.087  1.00  0.00    -0.000 C 
BRANCH  14  15
HETATM   15  C   LIG     1      33.898   1.336  -3.011  1.00  0.00    -0.005 C 
HETATM   16  C   LIG     1      32.741   1.627  -2.069  1.00  0.00     0.005 C 
ENDBRANCH  14  15
ENDBRANCH  13  14
ENDBRANCH  12  13
ENDBRANCH  11  12
ENDBRANCH  10  11
ENDBRANCH   8   9
ENDBRANCH   7   8
ENDBRANCH   4   7
BRANCH   3  17
HETATM   17  O   LIG     1      42.186   2.342   1.637  1.00  0.00    -0.388 OA
HETATM   18  H   LIG     1      42.447   1.757   0.904  1.00  0.00     0.210 HD
ENDBRANCH   3  17
BRANCH   2  19
HETATM   19  O   LIG     1      44.542   4.012   1.253  1.00  0.00    -0.390 OA
HETATM   20  H   LIG     1      44.554   4.007   0.278  1.00  0.00     0.210 HD
ENDBRANCH   2  19
BRANCH   6  21
HETATM   21  C   LIG     1      41.542   7.949   0.966  1.00  0.00     0.198 C 
BRANCH  21  22
HETATM   22  O   LIG     1      40.754   8.834   1.748  1.00  0.00    -0.398 OA
HETATM   23  H   LIG     1      40.588   8.421   2.615  1.00  0.00     0.209 HD
ENDBRANCH  21  22
ENDBRANCH   6  21
BRANCH   1  24
HETATM   24  O   LIG     1      44.150   6.726   2.064  1.00  0.00    -0.390 OA
HETATM   25  H   LIG     1      43.994   6.483   3.000  1.00  0.00     0.210 HD
ENDBRANCH   1  24
TORSDOF 13
ENDMDL
