REMARK AutoDockVina VirtualScreeningResult  Sat Mar  5 21:14:46 2016
USER  AD>  5 of 9 MODELS
USER  AD>  ligand efficiency  -0.2435
USER  AD>  -5.60,  2.981,  4.205
USER  AD> macro_close_ats: 13
USER  AD> hepi:A:SER10:OG
USER  AD> hepi:A:GLU38:CB
USER  AD> hepi:A:THR262:C
USER  AD> hepi:A:GLY263:N
USER  AD> hepi:A:GLY12:CA
USER  AD> hepi:A:LYS192:NZ
USER  AD> hepi:A:PHE41:CZ
USER  AD> hepi:A:LYS192:H
USER  AD> hepi:A:HIS266:NE2
USER  AD> hepi:A:THR262:CA
USER  AD> hepi:A:GLY263:H
USER  AD> hepi:A:HIS266:CD2
USER  AD> hepi:A:GLY40:H

USER  AD> lig_close_ats: 14
USER  AD> h11_gb10_m5_model1: :LIG1:C,C,H,H,O,H,O,C,C,C,O,C,O,H
MODEL 5
REMARK VINA RESULT:      -5.6      2.981      4.205
REMARK  15 active torsions:
REMARK  status: ('A' for Active; 'I' for Inactive)
REMARK    1  A    between atoms: C_1  and  O_23 
REMARK    2  A    between atoms: C_2  and  O_9 
REMARK    3  A    between atoms: C_3  and  O_10 
REMARK    4  A    between atoms: C_4  and  O_11 
REMARK    5  A    between atoms: C_6  and  C_7 
REMARK    6  A    between atoms: C_7  and  O_8 
REMARK    7  A    between atoms: O_11  and  C_12 
REMARK    8  A    between atoms: C_12  and  C_13 
REMARK    9  A    between atoms: C_14  and  C_15 
REMARK   10  A    between atoms: C_15  and  C_16 
REMARK   11  A    between atoms: C_16  and  C_17 
REMARK   12  A    between atoms: C_17  and  C_18 
REMARK   13  A    between atoms: C_18  and  C_19 
REMARK   14  A    between atoms: C_19  and  C_20 
REMARK   15  A    between atoms: C_20  and  C_21 
ROOT
HETATM    1  C   LIG     1      40.146   3.403   1.425  1.00  0.00     0.180 C 
HETATM    2  C   LIG     1      40.510   4.784   1.988  1.00  0.00     0.183 C 
HETATM    3  C   LIG     1      41.838   5.318   1.430  1.00  0.00     0.204 C 
HETATM    4  C   LIG     1      42.902   4.231   1.667  1.00  0.00     0.291 C 
HETATM    5  O   LIG     1      42.532   3.038   0.982  1.00  0.00    -0.348 OA
HETATM    6  C   LIG     1      41.342   2.438   1.495  1.00  0.00     0.179 C 
ENDROOT
BRANCH   4   7
HETATM    7  O   LIG     1      44.170   4.645   1.166  1.00  0.00    -0.355 OA
BRANCH   7   8
HETATM    8  C   LIG     1      44.090   4.977  -0.214  1.00  0.00     0.198 C 
BRANCH   8   9
HETATM    9  C   LIG     1      45.163   5.960  -0.556  1.00  0.00    -0.005 C 
HETATM   10  C   LIG     1      45.911   6.539   0.394  1.00  0.00    -0.029 C 
BRANCH  10  11
HETATM   11  C   LIG     1      47.021   7.512   0.127  1.00  0.00     0.027 C 
BRANCH  11  12
HETATM   12  C   LIG     1      47.481   7.409  -1.330  1.00  0.00     0.004 C 
BRANCH  12  13
HETATM   13  C   LIG     1      48.205   8.673  -1.788  1.00  0.00     0.000 C 
BRANCH  13  14
HETATM   14  C   LIG     1      49.142   9.183  -0.692  1.00  0.00     0.000 C 
BRANCH  14  15
HETATM   15  C   LIG     1      50.557   8.643  -0.879  1.00  0.00     0.000 C 
BRANCH  15  16
HETATM   16  C   LIG     1      50.863   8.397  -2.357  1.00  0.00    -0.000 C 
BRANCH  16  17
HETATM   17  C   LIG     1      51.487   7.018  -2.568  1.00  0.00    -0.005 C 
HETATM   18  C   LIG     1      52.644   6.780  -1.613  1.00  0.00     0.005 C 
ENDBRANCH  16  17
ENDBRANCH  15  16
ENDBRANCH  14  15
ENDBRANCH  13  14
ENDBRANCH  12  13
ENDBRANCH  11  12
ENDBRANCH  10  11
ENDBRANCH   8   9
ENDBRANCH   7   8
ENDBRANCH   4   7
BRANCH   3  19
HETATM   19  O   LIG     1      42.181   6.558   2.067  1.00  0.00    -0.388 OA
HETATM   20  H   LIG     1      41.415   6.884   2.568  1.00  0.00     0.210 HD
ENDBRANCH   3  19
BRANCH   2  21
HETATM   21  O   LIG     1      39.419   5.688   1.758  1.00  0.00    -0.390 OA
HETATM   22  H   LIG     1      39.675   6.300   1.042  1.00  0.00     0.210 HD
ENDBRANCH   2  21
BRANCH   6  23
HETATM   23  C   LIG     1      41.101   1.151   0.685  1.00  0.00     0.198 C 
BRANCH  23  24
HETATM   24  O   LIG     1      42.144   0.192   0.777  1.00  0.00    -0.398 OA
HETATM   25  H   LIG     1      42.331   0.022   1.719  1.00  0.00     0.209 HD
ENDBRANCH  23  24
ENDBRANCH   6  23
BRANCH   1  26
HETATM   26  O   LIG     1      39.057   2.886   2.203  1.00  0.00    -0.390 OA
HETATM   27  H   LIG     1      39.223   1.924   2.289  1.00  0.00     0.210 HD
ENDBRANCH   1  26
TORSDOF 15
ENDMDL
