REMARK AutoDockVina VirtualScreeningResult  Sat Mar  5 21:14:24 2016
USER  AD>  3 of 9 MODELS
USER  AD>  ligand efficiency  -0.4417
USER  AD>  -5.30,  1.176,  1.494
USER  AD> macro_close_ats: 13
USER  AD> hepi:A:LYS192:H
USER  AD> hepi:A:GLY263:N
USER  AD> hepi:A:GLY263:CA
USER  AD> hepi:A:GLY12:H
USER  AD> hepi:A:HIS266:NE2
USER  AD> hepi:A:THR262:CA
USER  AD> hepi:A:ASP261:OD1
USER  AD> hepi:A:THR262:C
USER  AD> hepi:A:HIS266:CE1
USER  AD> hepi:A:HIS266:CD2
USER  AD> hepi:A:SER10:H
USER  AD> hepi:A:GLY263:H
USER  AD> hepi:A:SER10:OG

USER  AD> lig_close_ats: 11
USER  AD> h11_gb_m3_model1: :LIG1:H,O,O,O,O,H,H,O,C,H,C
MODEL 3
REMARK VINA RESULT:      -5.3      1.176      1.494
REMARK  6 active torsions:
REMARK  status: ('A' for Active; 'I' for Inactive)
REMARK    1  A    between atoms: C_1  and  O_12 
REMARK    2  A    between atoms: C_2  and  O_9 
REMARK    3  A    between atoms: C_3  and  O_11 
REMARK    4  A    between atoms: C_4  and  O_10 
REMARK    5  A    between atoms: C_6  and  C_7 
REMARK    6  A    between atoms: C_7  and  O_8 
ROOT
HETATM    1  C   LIG     1      40.287   3.714   1.498  1.00  0.00     0.180 C 
HETATM    2  C   LIG     1      40.862   5.012   2.073  1.00  0.00     0.183 C 
HETATM    3  C   LIG     1      42.268   5.270   1.522  1.00  0.00     0.204 C 
HETATM    4  C   LIG     1      43.139   4.024   1.784  1.00  0.00     0.288 C 
HETATM    5  O   LIG     1      42.564   2.899   1.126  1.00  0.00    -0.349 OA
HETATM    6  C   LIG     1      41.282   2.552   1.665  1.00  0.00     0.179 C 
ENDROOT
BRANCH   6   7
HETATM    7  C   LIG     1      40.763   1.296   0.949  1.00  0.00     0.198 C 
BRANCH   7   8
HETATM    8  O   LIG     1      39.776   0.611   1.713  1.00  0.00    -0.398 OA
HETATM    9  H   LIG     1      40.114   0.541   2.632  1.00  0.00     0.209 HD
ENDBRANCH   7   8
ENDBRANCH   6   7
BRANCH   1  10
HETATM   10  O   LIG     1      39.043   3.419   2.144  1.00  0.00    -0.390 OA
HETATM   11  H   LIG     1      38.380   3.366   1.422  1.00  0.00     0.210 HD
ENDBRANCH   1  10
BRANCH   2  12
HETATM   12  O   LIG     1      39.949   6.076   1.762  1.00  0.00    -0.390 OA
HETATM   13  H   LIG     1      40.250   6.882   2.222  1.00  0.00     0.210 HD
ENDBRANCH   2  12
BRANCH   4  14
HETATM   14  O   LIG     1      44.464   4.208   1.310  1.00  0.00    -0.369 OA
HETATM   15  H   LIG     1      44.497   3.899   0.389  1.00  0.00     0.212 HD
ENDBRANCH   4  14
BRANCH   3  16
HETATM   16  O   LIG     1      42.821   6.462   2.084  1.00  0.00    -0.388 OA
HETATM   17  H   LIG     1      42.660   6.460   3.046  1.00  0.00     0.210 HD
ENDBRANCH   3  16
TORSDOF 6
ENDMDL
