REMARK AutoDockVina VirtualScreeningResult  Sat Mar  5 21:35:06 2016
USER  AD>  2 of 9 MODELS
USER  AD>  ligand efficiency  -0.2571
USER  AD>  -5.40,  3.089,  9.051
USER  AD> macro_close_ats: 19
USER  AD> hepi:A:THR262:CB
USER  AD> hepi:A:GLY263:N
USER  AD> hepi:A:THR188:CG2
USER  AD> hepi:A:ILE287:CG2
USER  AD> hepi:A:HIS16:CE1
USER  AD> hepi:A:SER10:C
USER  AD> hepi:A:THR262:OG1
USER  AD> hepi:A:SER10:CB
USER  AD> hepi:A:ILE287:CA
USER  AD> hepi:A:THR188:H
USER  AD> hepi:A:MET11:CB
USER  AD> hepi:A:THR188:CB
USER  AD> hepi:A:SER10:OG
USER  AD> hepi:A:MET11:H
USER  AD> hepi:A:SER10:CA
USER  AD> hepi:A:GLY263:H
USER  AD> hepi:A:GLY12:H
USER  AD> hepi:A:MET11:N
USER  AD> hepi:A:SER10:H

USER  AD> lig_close_ats: 11
USER  AD> h11_gb8y_m2_model1: :LIG1:C,C,H,O,C,H,C,H,C,C,O
MODEL 2
REMARK VINA RESULT:      -5.4      3.089      9.051
REMARK  14 active torsions:
REMARK  status: ('A' for Active; 'I' for Inactive)
REMARK    1  A    between atoms: C_1  and  O_21 
REMARK    2  A    between atoms: C_2  and  O_9 
REMARK    3  A    between atoms: C_3  and  O_10 
REMARK    4  A    between atoms: C_4  and  O_11 
REMARK    5  A    between atoms: C_6  and  C_7 
REMARK    6  A    between atoms: C_7  and  O_8 
REMARK    7  A    between atoms: O_11  and  C_12 
REMARK    8  A    between atoms: C_12  and  C_13 
REMARK    9  A    between atoms: C_13  and  C_14 
REMARK   10  A    between atoms: C_14  and  C_15 
REMARK   11  A    between atoms: C_15  and  C_16 
REMARK   12  A    between atoms: C_16  and  C_17 
REMARK   13  A    between atoms: C_17  and  C_18 
REMARK   14  A    between atoms: C_18  and  C_19 
ROOT
HETATM    1  C   LIG L   1      43.957   7.535   1.379  1.00  0.00     0.180 C 
HETATM    2  C   LIG L   1      44.561   6.157   1.640  1.00  0.00     0.183 C 
HETATM    3  C   LIG L   1      43.719   5.044   1.009  1.00  0.00     0.204 C 
HETATM    4  C   LIG L   1      42.272   5.202   1.516  1.00  0.00     0.291 C 
HETATM    5  O   LIG L   1      41.759   6.473   1.114  1.00  0.00    -0.348 OA
HETATM    6  C   LIG L   1      42.457   7.565   1.717  1.00  0.00     0.179 C 
ENDROOT
BRANCH   4   7
HETATM    7  O   LIG L   1      41.437   4.174   0.979  1.00  0.00    -0.359 OA
BRANCH   7   8
HETATM    8  C   LIG L   1      40.062   4.473   1.213  1.00  0.00     0.171 C 
BRANCH   8   9
HETATM    9  C   LIG L   1      39.172   3.282   0.876  1.00  0.00     0.026 C 
BRANCH   9  10
HETATM   10  C   LIG L   1      39.785   2.508  -0.292  1.00  0.00     0.002 C 
BRANCH  10  11
HETATM   11  C   LIG L   1      39.728   0.992  -0.108  1.00  0.00     0.000 C 
BRANCH  11  12
HETATM   12  C   LIG L   1      39.831   0.643   1.379  1.00  0.00     0.000 C 
BRANCH  12  13
HETATM   13  C   LIG L   1      39.835  -0.866   1.621  1.00  0.00     0.000 C 
BRANCH  13  14
HETATM   14  C   LIG L   1      39.270  -1.611   0.410  1.00  0.00    -0.000 C 
BRANCH  14  15
HETATM   15  C   LIG L   1      39.229  -3.120   0.647  1.00  0.00    -0.005 C 
HETATM   16  C   LIG L   1      38.508  -3.457   1.943  1.00  0.00     0.005 C 
ENDBRANCH  14  15
ENDBRANCH  13  14
ENDBRANCH  12  13
ENDBRANCH  11  12
ENDBRANCH  10  11
ENDBRANCH   9  10
ENDBRANCH   8   9
ENDBRANCH   7   8
ENDBRANCH   4   7
BRANCH   3  17
HETATM   17  O   LIG L   1      44.328   3.788   1.356  1.00  0.00    -0.388 OA
HETATM   18  H   LIG L   1      45.072   3.626   0.755  1.00  0.00     0.210 HD
ENDBRANCH   3  17
BRANCH   2  19
HETATM   19  O   LIG L   1      45.901   6.150   1.124  1.00  0.00    -0.390 OA
HETATM   20  H   LIG L   1      46.498   6.138   1.901  1.00  0.00     0.210 HD
ENDBRANCH   2  19
BRANCH   6  21
HETATM   21  C   LIG L   1      41.839   8.885   1.223  1.00  0.00     0.198 C 
BRANCH  21  22
HETATM   22  O   LIG L   1      42.097   9.959   2.122  1.00  0.00    -0.398 OA
HETATM   23  H   LIG L   1      41.585   9.782   2.940  1.00  0.00     0.209 HD
ENDBRANCH  21  22
ENDBRANCH   6  21
BRANCH   1  24
HETATM   24  O   LIG L   1      44.658   8.517   2.156  1.00  0.00    -0.390 OA
HETATM   25  H   LIG L   1      45.075   9.116   1.500  1.00  0.00     0.210 HD
ENDBRANCH   1  24
TORSDOF 14
ENDMDL
