REMARK AutoDockVina VirtualScreeningResult  Sat Mar  5 21:13:59 2016
USER  AD>  2 of 9 MODELS
USER  AD>  ligand efficiency  -0.1230
USER  AD>  -7.50,  9.971, 15.671
USER  AD> macro_close_ats: 24
USER  AD> hepi:A:THR187:OG1
USER  AD> hepi:A:LEU264:CG
USER  AD> hepi:A:GLY263:N
USER  AD> hepi:A:ALA186:CB
USER  AD> hepi:A:THR262:OG1
USER  AD> hepi:A:ARG61:N
USER  AD> hepi:A:PHE41:CE2
USER  AD> hepi:A:THR262:CA
USER  AD> hepi:A:THR188:N
USER  AD> hepi:A:THR188:H
USER  AD> hepi:A:GLY12:N
USER  AD> hepi:A:THR187:CB
USER  AD> hepi:A:LEU264:H
USER  AD> hepi:A:ARG61:H
USER  AD> hepi:A:PHE41:CZ
USER  AD> hepi:A:LYS192:H
USER  AD> hepi:A:LYS192:NZ
USER  AD> hepi:A:THR187:CA
USER  AD> hepi:A:MET11:CE
USER  AD> hepi:A:GLY12:H
USER  AD> hepi:A:THR262:H
USER  AD> hepi:A:LYS192:H
USER  AD> hepi:A:GLY263:H
USER  AD> hepi:A:LEU264:N

USER  AD> lig_close_ats: 17
USER  AD> h11_fdla_m2_model1:X:RES1:C82,O12,O72,O21,H12,H90,C95,H88,C51,H62,O88,C79,O10,O62,C56,C66,C78
MODEL 2
REMARK VINA RESULT:      -7.5      9.971     15.671
REMARK  30 active torsions:
REMARK  status: ('A' for Active; 'I' for Inactive)
REMARK    1  A    between atoms: C42_1  and  O60_2 
REMARK    2  A    between atoms: C42_1  and  C29_40 
REMARK    3  A    between atoms: O60_2  and  C50_3 
REMARK    4  A    between atoms: C50_3  and  C69_37 
REMARK    5  A    between atoms: C53_5  and  O86_9 
REMARK    6  A    between atoms: C56_6  and  O62_29 
REMARK    7  A    between atoms: C52_7  and  C64_31 
REMARK    8  A    between atoms: O86_9  and  C76_10 
REMARK    9  A    between atoms: C76_10  and  C92_16 
REMARK   10  A    between atoms: C78_12  and  C93_19 
REMARK   11  A    between atoms: C82_13  and  O90_25 
REMARK   12  A    between atoms: C79_14  and  O88_27 
REMARK   13  A    between atoms: C93_19  and  O10_20 
REMARK   14  A    between atoms: C93_19  and  C95_22 
REMARK   15  A    between atoms: C95_22  and  O10_23 
REMARK   16  A    between atoms: C64_31  and  O72_35 
REMARK   17  A    between atoms: C64_31  and  C66_32 
REMARK   18  A    between atoms: C66_32  and  O74_33 
REMARK   19  A    between atoms: C32_41  and  O39_46 
REMARK   20  A    between atoms: C30_42  and  O38_51 
REMARK   21  A    between atoms: C27_43  and  N40_53 
REMARK   22  A    between atoms: C26_44  and  O36_57 
REMARK   23  A    between atoms: O39_46  and  P45_47 
REMARK   24  A    between atoms: O36_57  and  C23_58 
REMARK   25  A    between atoms: C23_58  and  C2_59 
REMARK   26  A    between atoms: C3_61  and  O11_65 
REMARK   27  A    between atoms: C4_62  and  N16_70 
REMARK   28  A    between atoms: C5_63  and  O12_74 
REMARK   29  A    between atoms: C1_64  and  O13_76 
REMARK   30  A    between atoms: O11_65  and  P18_66 
ROOT
ATOM      1  C42 RES X   1      48.011  12.285   2.558  1.00  0.13     0.177 C 
ENDROOT
BRANCH   1   2
ATOM      2  O60 RES X   1      47.648  10.956   2.196  1.00 -0.19    -0.324 OA
BRANCH   2   3
ATOM      3  C50 RES X   1      47.957  10.036   3.240  1.00  0.15     0.271 C 
ATOM      4  O61 RES X   1      47.425  10.498   4.490  1.00 -0.16    -0.324 OA
ATOM      5  C52 RES X   1      46.022  10.733   4.430  1.00  0.06     0.176 C 
ATOM      6  C56 RES X   1      45.287   9.421   4.100  1.00  0.04     0.168 C 
ATOM      7  C53 RES X   1      45.792   8.906   2.747  1.00  0.05     0.153 C 
ATOM      8  C51 RES X   1      47.318   8.679   2.865  1.00  0.06     0.100 C 
BRANCH   3   9
ATOM      9  C69 RES X   1      49.485   9.910   3.392  1.00  0.20     0.240 C 
ATOM     10  O71 RES X   1      50.109  10.326   4.606  1.00 -0.82    -0.644 OA
ATOM     11  O70 RES X   1      50.182   9.441   2.451  1.00 -0.59    -0.644 OA
ENDBRANCH   3   9
BRANCH   5  12
ATOM     12  C64 RES X   1      45.555  11.257   5.799  1.00  0.03     0.170 C 
BRANCH  12  13
ATOM     13  O72 RES X   1      44.289  10.673   6.122  1.00 -0.08    -0.380 OA
ATOM     14  H72 RES X   1      44.057  10.901   7.015  1.00  0.00     0.211 HD
ENDBRANCH  12  13
BRANCH  12  15
ATOM     15  C66 RES X   1      45.408  12.787   5.734  1.00 -0.03     0.169 C 
BRANCH  15  16
ATOM     16  O74 RES X   1      45.651  13.236   4.397  1.00  0.30    -0.380 OA
ATOM     17  H74 RES X   1      46.584  13.221   4.220  1.00  0.00     0.211 HD
ENDBRANCH  15  16
ENDBRANCH  12  15
ENDBRANCH   5  12
BRANCH   6  18
ATOM     18  O62 RES X   1      45.608   8.408   5.060  1.00 -0.09    -0.380 OA
ATOM     19  H62 RES X   1      45.324   8.669   5.929  1.00  0.00     0.211 HD
ENDBRANCH   6  18
BRANCH   7  20
ATOM     20  O86 RES X   1      45.106   7.696   2.399  1.00 -0.07    -0.327 OA
BRANCH  20  21
ATOM     21  C76 RES X   1      44.652   7.780   1.046  1.00  0.14     0.271 C 
ATOM     22  C77 RES X   1      43.661   8.956   0.922  1.00  0.07     0.099 C 
ATOM     23  C79 RES X   1      42.486   8.711   1.872  1.00  0.05     0.145 C 
ATOM     24  C82 RES X   1      41.836   7.383   1.481  1.00  0.05     0.167 C 
ATOM     25  C78 RES X   1      42.892   6.266   1.573  1.00  0.01     0.176 C 
ATOM     26  O87 RES X   1      43.992   6.551   0.682  1.00 -0.27    -0.324 OA
BRANCH  23  27
ATOM     27  O88 RES X   1      41.536   9.775   1.768  1.00 -0.14    -0.382 OA
ATOM     28  H88 RES X   1      41.519  10.280   2.572  1.00  0.00     0.210 HD
ENDBRANCH  23  27
BRANCH  24  29
ATOM     29  O90 RES X   1      41.345   7.468   0.140  1.00 -0.31    -0.380 OA
ATOM     30  H90 RES X   1      40.396   7.434   0.148  1.00  0.00     0.211 HD
ENDBRANCH  24  29
BRANCH  25  31
ATOM     31  C93 RES X   1      42.236   4.927   1.183  1.00  0.01     0.170 C 
BRANCH  31  32
ATOM     32  O10 RES X   1      40.851   4.963   1.536  1.00 -0.35    -0.380 OA
ATOM     33  H10 RES X   1      40.365   4.361   0.986  1.00  0.00     0.211 HD
ENDBRANCH  31  32
BRANCH  31  34
ATOM     34  C95 RES X   1      42.928   3.773   1.924  1.00 -0.10     0.169 C 
BRANCH  34  35
ATOM     35  O10 RES X   1      44.334   3.819   1.676  1.00 -0.04    -0.380 OA
ATOM     36  H10 RES X   1      44.561   4.654   1.283  1.00  0.00     0.211 HD
ENDBRANCH  34  35
ENDBRANCH  31  34
ENDBRANCH  25  31
BRANCH  21  37
ATOM     37  C92 RES X   1      45.849   8.019   0.110  1.00  0.15     0.240 C 
ATOM     38  O99 RES X   1      46.665   7.091  -0.121  1.00 -0.32    -0.644 OA
ATOM     39  O98 RES X   1      46.030   9.303  -0.493  1.00 -0.51    -0.644 OA
ENDBRANCH  21  37
ENDBRANCH  20  21
ENDBRANCH   7  20
ENDBRANCH   2   3
ENDBRANCH   1   2
BRANCH   1  40
ATOM     40  C29 RES X   1      48.618  13.113   1.404  1.00  0.10     0.178 C 
ATOM     41  C32 RES X   1      47.505  13.214   0.344  1.00  0.12     0.186 C 
ATOM     42  C30 RES X   1      48.008  13.964  -0.874  1.00  0.10     0.174 C 
ATOM     43  C27 RES X   1      49.214  13.206  -1.416  1.00  0.13     0.263 C 
ATOM     44  C26 RES X   1      50.294  13.182  -0.314  1.00  0.12     0.267 C 
ATOM     45  O37 RES X   1      49.794  12.469   0.851  1.00 -0.15    -0.327 OA
BRANCH  41  46
ATOM     46  O39 RES X   1      46.380  13.903   0.891  1.00 -0.20    -0.261 OA
BRANCH  46  47
ATOM     47  P45 RES X   1      44.744  13.336   0.606  1.00  0.46     0.423 P 
ATOM     48  O46 RES X   1      44.724  12.324  -0.833  1.00 -0.34    -0.617 OA
ATOM     49  O48 RES X   1      43.679  14.718   0.374  1.00 -1.25    -0.617 OA
ATOM     50  O49 RES X   1      44.199  12.402   1.997  1.00 -0.72    -0.617 OA
ENDBRANCH  46  47
ENDBRANCH  41  46
BRANCH  42  51
ATOM     51  O38 RES X   1      46.977  14.029  -1.863  1.00 -0.22    -0.380 OA
ATOM     52  H38 RES X   1      47.286  13.648  -2.676  1.00  0.00     0.211 HD
ENDBRANCH  42  51
BRANCH  43  53
ATOM     53  N40 RES X   1      49.716  13.892  -2.611  1.00  0.04    -0.059 N 
ATOM     54 3H40 RES X   1      50.429  14.587  -2.388  1.00  0.00     0.275 HD
ATOM     55 1H40 RES X   1      48.930  14.294  -3.121  1.00  0.00     0.275 HD
ATOM     56 2H40 RES X   1      50.287  13.283  -3.197  1.00  0.00     0.275 HD
ENDBRANCH  43  53
BRANCH  44  57
ATOM     57  O36 RES X   1      51.471  12.527  -0.823  1.00 -0.14    -0.327 OA
BRANCH  57  58
ATOM     58  C23 RES X   1      51.536  11.171  -0.350  1.00  0.09     0.177 C 
BRANCH  58  59
ATOM     59  C2  RES X   1      51.163  10.244  -1.533  1.00  0.08     0.177 C 
ATOM     60  C1  RES X   1      50.148   9.203  -1.027  1.00  0.08     0.169 C 
ATOM     61  C5  RES X   1      49.735   8.309  -2.193  1.00  0.07     0.173 C 
ATOM     62  C4  RES X   1      50.989   7.632  -2.741  1.00  0.11     0.263 C 
ATOM     63  C3  RES X   1      51.997   8.715  -3.176  1.00  0.13     0.278 C 
ATOM     64  O15 RES X   1      52.336   9.570  -2.052  1.00 -0.16    -0.327 OA
BRANCH  60  65
ATOM     65  O13 RES X   1      48.998   9.867  -0.502  1.00 -0.16    -0.380 OA
ATOM     66  H13 RES X   1      49.154  10.804  -0.474  1.00  0.00     0.211 HD
ENDBRANCH  60  65
BRANCH  61  67
ATOM     67  O12 RES X   1      48.799   7.325  -1.748  1.00 -0.17    -0.380 OA
ATOM     68  H12 RES X   1      49.248   6.509  -1.560  1.00  0.00     0.211 HD
ENDBRANCH  61  67
BRANCH  62  69
ATOM     69  N16 RES X   1      50.632   6.787  -3.893  1.00  0.02    -0.059 N 
ATOM     70 3H16 RES X   1      50.817   5.798  -3.718  1.00  0.00     0.275 HD
ATOM     71 1H16 RES X   1      51.112   7.125  -4.728  1.00  0.00     0.275 HD
ATOM     72 2H16 RES X   1      49.623   6.726  -4.028  1.00  0.00     0.275 HD
ENDBRANCH  62  69
BRANCH  63  73
ATOM     73  O11 RES X   1      53.170   8.062  -3.666  1.00 -0.11    -0.236 OA
BRANCH  73  74
ATOM     74  P18 RES X   1      54.015   9.052  -4.852  1.00  0.29     0.425 P 
ATOM     75  O19 RES X   1      55.393   9.829  -4.087  1.00 -0.22    -0.617 OA
ATOM     76  O21 RES X   1      54.573   8.023  -6.167  1.00 -0.51    -0.617 OA
ATOM     77  O22 RES X   1      52.923  10.279  -5.490  1.00 -0.48    -0.617 OA
ENDBRANCH  73  74
ENDBRANCH  63  73
ENDBRANCH  58  59
ENDBRANCH  57  58
ENDBRANCH  44  57
ENDBRANCH   1  40
TORSDOF 30
ENDMDL
