REMARK AutoDockVina VirtualScreeningResult  Sat Mar  5 21:14:40 2016
USER  AD>  7 of 9 MODELS
USER  AD>  ligand efficiency  -0.2524
USER  AD>  -5.30,  4.461,  9.448
USER  AD> macro_close_ats: 21
USER  AD> hepi:A:GLY12:N
USER  AD> hepi:A:GLY12:H
USER  AD> hepi:A:SER10:C
USER  AD> hepi:A:LYS192:H
USER  AD> hepi:A:SER10:CA
USER  AD> hepi:A:ILE287:CG2
USER  AD> hepi:A:ALA140:CB
USER  AD> hepi:A:MET11:H
USER  AD> hepi:A:THR262:C
USER  AD> hepi:A:THR188:CG2
USER  AD> hepi:A:THR188:H
USER  AD> hepi:A:GLY263:H
USER  AD> hepi:A:THR262:CB
USER  AD> hepi:A:GLY12:CA
USER  AD> hepi:A:MET11:N
USER  AD> hepi:A:SER10:OG
USER  AD> hepi:A:ILE287:CB
USER  AD> hepi:A:THR262:OG1
USER  AD> hepi:A:THR262:CA
USER  AD> hepi:A:GLY263:N
USER  AD> hepi:A:SER10:H

USER  AD> lig_close_ats: 12
USER  AD> h11_gb8_m7_model1: :LIG1:O,C,C,H,C,O,H,H,C,C,C,O
MODEL 7
REMARK VINA RESULT:      -5.3      4.461      9.448
REMARK  13 active torsions:
REMARK  status: ('A' for Active; 'I' for Inactive)
REMARK    1  A    between atoms: C_1  and  O_21 
REMARK    2  A    between atoms: C_2  and  O_9 
REMARK    3  A    between atoms: C_3  and  O_10 
REMARK    4  A    between atoms: C_4  and  O_11 
REMARK    5  A    between atoms: C_6  and  C_7 
REMARK    6  A    between atoms: C_7  and  O_8 
REMARK    7  A    between atoms: O_11  and  C_12 
REMARK    8  A    between atoms: C_12  and  C_13 
REMARK    9  A    between atoms: C_14  and  C_15 
REMARK   10  A    between atoms: C_15  and  C_16 
REMARK   11  A    between atoms: C_16  and  C_17 
REMARK   12  A    between atoms: C_17  and  C_18 
REMARK   13  A    between atoms: C_18  and  C_19 
ROOT
HETATM    1  C   LIG     1      43.466   6.625   0.992  1.00  0.00     0.180 C 
HETATM    2  C   LIG     1      43.789   5.188   1.429  1.00  0.00     0.183 C 
HETATM    3  C   LIG     1      42.570   4.258   1.351  1.00  0.00     0.204 C 
HETATM    4  C   LIG     1      41.434   4.925   2.147  1.00  0.00     0.291 C 
HETATM    5  O   LIG     1      41.121   6.189   1.568  1.00  0.00    -0.348 OA
HETATM    6  C   LIG     1      42.183   7.137   1.669  1.00  0.00     0.179 C 
ENDROOT
BRANCH   4   7
HETATM    7  O   LIG     1      40.252   4.128   2.116  1.00  0.00    -0.355 OA
BRANCH   7   8
HETATM    8  C   LIG     1      39.545   4.309   0.896  1.00  0.00     0.198 C 
BRANCH   8   9
HETATM    9  C   LIG     1      39.412   2.997   0.193  1.00  0.00    -0.005 C 
HETATM   10  C   LIG     1      39.815   1.853   0.761  1.00  0.00    -0.029 C 
BRANCH  10  11
HETATM   11  C   LIG     1      39.691   0.496   0.129  1.00  0.00     0.027 C 
BRANCH  11  12
HETATM   12  C   LIG     1      39.924  -0.604   1.169  1.00  0.00     0.004 C 
BRANCH  12  13
HETATM   13  C   LIG     1      39.338  -1.943   0.728  1.00  0.00     0.000 C 
BRANCH  13  14
HETATM   14  C   LIG     1      38.982  -1.913  -0.759  1.00  0.00    -0.000 C 
BRANCH  14  15
HETATM   15  C   LIG     1      38.661  -3.309  -1.287  1.00  0.00    -0.005 C 
HETATM   16  C   LIG     1      39.841  -4.252  -1.112  1.00  0.00     0.005 C 
ENDBRANCH  14  15
ENDBRANCH  13  14
ENDBRANCH  12  13
ENDBRANCH  11  12
ENDBRANCH  10  11
ENDBRANCH   8   9
ENDBRANCH   7   8
ENDBRANCH   4   7
BRANCH   3  17
HETATM   17  O   LIG     1      42.900   2.961   1.873  1.00  0.00    -0.388 OA
HETATM   18  H   LIG     1      43.861   2.904   2.007  1.00  0.00     0.210 HD
ENDBRANCH   3  17
BRANCH   2  19
HETATM   19  O   LIG     1      44.898   4.700   0.661  1.00  0.00    -0.390 OA
HETATM   20  H   LIG     1      44.894   3.726   0.702  1.00  0.00     0.210 HD
ENDBRANCH   2  19
BRANCH   6  21
HETATM   21  C   LIG     1      41.676   8.450   1.045  1.00  0.00     0.198 C 
BRANCH  21  22
HETATM   22  O   LIG     1      41.560   9.533   1.957  1.00  0.00    -0.398 OA
HETATM   23  H   LIG     1      41.938   9.262   2.813  1.00  0.00     0.209 HD
ENDBRANCH  21  22
ENDBRANCH   6  21
BRANCH   1  24
HETATM   24  O   LIG     1      44.576   7.455   1.362  1.00  0.00    -0.390 OA
HETATM   25  H   LIG     1      44.189   8.292   1.690  1.00  0.00     0.210 HD
ENDBRANCH   1  24
TORSDOF 13
ENDMDL
