REMARK AutoDockVina VirtualScreeningResult  Sat Mar  5 21:34:49 2016
USER  AD>  2 of 9 MODELS
USER  AD>  ligand efficiency  -0.4417
USER  AD>  -5.30,  1.064,  3.429
USER  AD> macro_close_ats: 18
USER  AD> hepi:A:LYS192:H
USER  AD> hepi:A:ASP261:O
USER  AD> hepi:A:MET11:H
USER  AD> hepi:A:LYS192:NZ
USER  AD> hepi:A:GLY12:H
USER  AD> hepi:A:MET11:N
USER  AD> hepi:A:SER10:C
USER  AD> hepi:A:THR262:CA
USER  AD> hepi:A:SER10:CA
USER  AD> hepi:A:HIS266:NE2
USER  AD> hepi:A:GLY12:CA
USER  AD> hepi:A:SER10:H
USER  AD> hepi:A:GLY263:H
USER  AD> hepi:A:SER10:CB
USER  AD> hepi:A:HIS266:CD2
USER  AD> hepi:A:LYS192:H
USER  AD> hepi:A:THR262:C
USER  AD> hepi:A:SER10:OG

USER  AD> lig_close_ats: 11
USER  AD> h11_gb_m2_model1: :LIG1:H,O,O,H,C,C,H,H,O,C,O
MODEL 2
REMARK VINA RESULT:      -5.3      1.064      3.429
REMARK  6 active torsions:
REMARK  status: ('A' for Active; 'I' for Inactive)
REMARK    1  A    between atoms: C_1  and  O_12 
REMARK    2  A    between atoms: C_2  and  O_9 
REMARK    3  A    between atoms: C_3  and  O_11 
REMARK    4  A    between atoms: C_4  and  O_10 
REMARK    5  A    between atoms: C_6  and  C_7 
REMARK    6  A    between atoms: C_7  and  O_8 
ROOT
HETATM    1  C   LIG     1      40.744   5.638   1.995  1.00  0.00     0.180 C 
HETATM    2  C   LIG     1      40.815   4.156   1.619  1.00  0.00     0.183 C 
HETATM    3  C   LIG     1      42.210   3.592   1.905  1.00  0.00     0.204 C 
HETATM    4  C   LIG     1      43.256   4.474   1.191  1.00  0.00     0.288 C 
HETATM    5  O   LIG     1      43.165   5.807   1.685  1.00  0.00    -0.349 OA
HETATM    6  C   LIG     1      41.910   6.420   1.365  1.00  0.00     0.179 C 
ENDROOT
BRANCH   6   7
HETATM    7  C   LIG     1      41.918   7.870   1.873  1.00  0.00     0.198 C 
BRANCH   7   8
HETATM    8  O   LIG     1      40.722   8.564   1.537  1.00  0.00    -0.398 OA
HETATM    9  H   LIG     1      40.028   8.273   2.166  1.00  0.00     0.209 HD
ENDBRANCH   7   8
ENDBRANCH   6   7
BRANCH   1  10
HETATM   10  O   LIG     1      39.483   6.175   1.577  1.00  0.00    -0.390 OA
HETATM   11  H   LIG     1      39.117   5.520   0.944  1.00  0.00     0.210 HD
ENDBRANCH   1  10
BRANCH   2  12
HETATM   12  O   LIG     1      39.786   3.466   2.347  1.00  0.00    -0.390 OA
HETATM   13  H   LIG     1      38.936   3.618   1.893  1.00  0.00     0.210 HD
ENDBRANCH   2  12
BRANCH   4  14
HETATM   14  O   LIG     1      44.573   3.992   1.404  1.00  0.00    -0.369 OA
HETATM   15  H   LIG     1      44.694   3.200   0.853  1.00  0.00     0.212 HD
ENDBRANCH   4  14
BRANCH   3  16
HETATM   16  O   LIG     1      42.289   2.218   1.522  1.00  0.00    -0.388 OA
HETATM   17  H   LIG     1      42.142   1.663   2.310  1.00  0.00     0.210 HD
ENDBRANCH   3  16
TORSDOF 6
ENDMDL
