REMARK AutoDockVina VirtualScreeningResult  Sat Mar  5 21:14:43 2016
USER  AD>  2 of 9 MODELS
USER  AD>  ligand efficiency  -0.2348
USER  AD>  -5.40,  4.927,  7.314
USER  AD> macro_close_ats: 11
USER  AD> hepi:A:GLU38:CB
USER  AD> hepi:A:GLY263:CA
USER  AD> hepi:A:GLY12:H
USER  AD> hepi:A:PHE41:CZ
USER  AD> hepi:A:GLU38:CG
USER  AD> hepi:A:LYS192:H
USER  AD> hepi:A:SER10:CA
USER  AD> hepi:A:MET11:H
USER  AD> hepi:A:GLY263:H
USER  AD> hepi:A:THR188:H
USER  AD> hepi:A:PHE41:CE2

USER  AD> lig_close_ats: 11
USER  AD> h11_ga10_m2_model1: :LIG1:O,C,H,C,C,O,H,O,C,C,C
MODEL 2
REMARK VINA RESULT:      -5.4      4.927      7.314
REMARK  15 active torsions:
REMARK  status: ('A' for Active; 'I' for Inactive)
REMARK    1  A    between atoms: C_1  and  O_23 
REMARK    2  A    between atoms: C_2  and  O_9 
REMARK    3  A    between atoms: C_3  and  O_10 
REMARK    4  A    between atoms: C_4  and  O_11 
REMARK    5  A    between atoms: C_6  and  C_7 
REMARK    6  A    between atoms: C_7  and  O_8 
REMARK    7  A    between atoms: O_11  and  C_12 
REMARK    8  A    between atoms: C_12  and  C_13 
REMARK    9  A    between atoms: C_14  and  C_15 
REMARK   10  A    between atoms: C_15  and  C_16 
REMARK   11  A    between atoms: C_16  and  C_17 
REMARK   12  A    between atoms: C_17  and  C_18 
REMARK   13  A    between atoms: C_18  and  C_19 
REMARK   14  A    between atoms: C_19  and  C_20 
REMARK   15  A    between atoms: C_20  and  C_21 
ROOT
HETATM    1  C   LIG     1      42.334   7.120   1.552  1.00  0.00     0.180 C 
HETATM    2  C   LIG     1      42.746   5.657   1.336  1.00  0.00     0.183 C 
HETATM    3  C   LIG     1      44.233   5.481   1.616  1.00  0.00     0.204 C 
HETATM    4  C   LIG     1      45.022   6.438   0.704  1.00  0.00     0.291 C 
HETATM    5  O   LIG     1      44.657   7.787   1.029  1.00  0.00    -0.348 OA
HETATM    6  C   LIG     1      43.271   8.088   0.796  1.00  0.00     0.179 C 
ENDROOT
BRANCH   4   7
HETATM    7  O   LIG     1      44.790   6.205  -0.689  1.00  0.00    -0.355 OA
BRANCH   7   8
HETATM    8  C   LIG     1      45.979   5.801  -1.364  1.00  0.00     0.198 C 
BRANCH   8   9
HETATM    9  C   LIG     1      46.725   7.025  -1.799  1.00  0.00    -0.005 C 
HETATM   10  C   LIG     1      47.806   7.480  -1.149  1.00  0.00    -0.029 C 
BRANCH  10  11
HETATM   11  C   LIG     1      48.558   8.727  -1.517  1.00  0.00     0.027 C 
BRANCH  11  12
HETATM   12  C   LIG     1      49.761   8.933  -0.592  1.00  0.00     0.004 C 
BRANCH  12  13
HETATM   13  C   LIG     1      51.070   8.989  -1.378  1.00  0.00     0.000 C 
BRANCH  13  14
HETATM   14  C   LIG     1      52.105   8.026  -0.794  1.00  0.00     0.000 C 
BRANCH  14  15
HETATM   15  C   LIG     1      52.342   6.841  -1.730  1.00  0.00     0.000 C 
BRANCH  15  16
HETATM   16  C   LIG     1      51.674   7.057  -3.089  1.00  0.00    -0.000 C 
BRANCH  16  17
HETATM   17  C   LIG     1      50.600   6.002  -3.346  1.00  0.00    -0.005 C 
HETATM   18  C   LIG     1      50.175   5.980  -4.804  1.00  0.00     0.005 C 
ENDBRANCH  16  17
ENDBRANCH  15  16
ENDBRANCH  14  15
ENDBRANCH  13  14
ENDBRANCH  12  13
ENDBRANCH  11  12
ENDBRANCH  10  11
ENDBRANCH   8   9
ENDBRANCH   7   8
ENDBRANCH   4   7
BRANCH   3  19
HETATM   19  O   LIG     1      44.594   4.105   1.458  1.00  0.00    -0.388 OA
HETATM   20  H   LIG     1      43.926   3.608   1.975  1.00  0.00     0.210 HD
ENDBRANCH   3  19
BRANCH   2  21
HETATM   21  O   LIG     1      42.027   4.768   2.211  1.00  0.00    -0.390 OA
HETATM   22  H   LIG     1      41.204   5.223   2.477  1.00  0.00     0.210 HD
ENDBRANCH   2  21
BRANCH   6  23
HETATM   23  C   LIG     1      43.065   9.551   1.235  1.00  0.00     0.198 C 
BRANCH  23  24
HETATM   24  O   LIG     1      41.885   9.764   1.994  1.00  0.00    -0.398 OA
HETATM   25  H   LIG     1      41.187   9.190   1.639  1.00  0.00     0.209 HD
ENDBRANCH  23  24
ENDBRANCH   6  23
BRANCH   1  26
HETATM   26  O   LIG     1      40.960   7.257   1.175  1.00  0.00    -0.390 OA
HETATM   27  H   LIG     1      40.776   6.643   0.442  1.00  0.00     0.210 HD
ENDBRANCH   1  26
TORSDOF 15
ENDMDL
