REMARK AutoDockVina VirtualScreeningResult  Sat Mar  5 21:13:57 2016
USER  AD>  4 of 9 MODELS
USER  AD>  ligand efficiency  -0.2025
USER  AD>  -8.10,  3.027,  4.279
USER  AD> macro_close_ats: 24
USER  AD> hepi:A:GLY12:N
USER  AD> hepi:A:GLY263:N
USER  AD> hepi:A:GLU222:CD
USER  AD> hepi:A:MET11:N
USER  AD> hepi:A:ASP261:CG
USER  AD> hepi:A:HIS266:CE1
USER  AD> hepi:A:ASP261:OD2
USER  AD> hepi:A:MET11:H
USER  AD> hepi:A:HIS266:CD2
USER  AD> hepi:A:ALA219:CB
USER  AD> hepi:A:LYS192:H
USER  AD> hepi:A:HIS266:NE2
USER  AD> hepi:A:THR187:C
USER  AD> hepi:A:GLU222:OE1
USER  AD> hepi:A:THR262:C
USER  AD> hepi:A:SER10:H
USER  AD> hepi:A:THR262:CA
USER  AD> hepi:A:ASP13:CG
USER  AD> hepi:A:ASP13:OD1
USER  AD> hepi:A:THR262:H
USER  AD> hepi:A:GLY263:H
USER  AD> hepi:A:GLY12:H
USER  AD> hepi:A:GLU222:OE2
USER  AD> hepi:A:SER10:OG

USER  AD> lig_close_ats: 16
USER  AD> h11_adph_m4_model1: :   1:H,O,C,H,P,O,C,H,O,O,H,O,H,H,O,H
MODEL 4
REMARK VINA RESULT:      -8.1      3.027      4.279
REMARK  19 active torsions:
REMARK  status: ('A' for Active; 'I' for Inactive)
REMARK    1  A    between atoms: C_1  and  C_3 
REMARK    2  A    between atoms: C_1  and  O_13 
REMARK    3  A    between atoms: O_2  and  C_3 
REMARK    4  A    between atoms: C_3  and  C_11 
REMARK    5  A    between atoms: O_4  and  C_5 
REMARK    6  A    between atoms: O_6  and  C_7 
REMARK    7  A    between atoms: O_8  and  C_9 
REMARK    8  A    between atoms: C_12  and  O_40 
REMARK    9  A    between atoms: C_22  and  N_23 
REMARK   10  A    between atoms: C_24  and  O_25 
REMARK   11  A    between atoms: C_26  and  O_27 
REMARK   12  A    between atoms: C_28  and  C_31 
REMARK   13  A    between atoms: C_31  and  O_32 
REMARK   14  A    between atoms: O_32  and  P_33 
REMARK   15  A    between atoms: P_33  and  O_35 
REMARK   16  A    between atoms: P_33  and  O_36 
REMARK   17  A    between atoms: O_36  and  P_37 
REMARK   18  A    between atoms: P_37  and  O_40 
REMARK   19  A    between atoms: P_37  and  O_39 
ROOT
HETATM    1  P           1      44.402   7.934   2.124  0.00  0.00     0.401 P 
HETATM    2  O           1      44.877   8.762   0.984  0.00  0.00    -0.631 OA
ENDROOT
BRANCH   1   3
HETATM    3  O           1      44.654   8.837   3.485  0.00  0.00    -0.294 OA
BRANCH   3   4
HETATM    4  C           1      45.919   8.823   4.096  0.00  0.00     0.215 C 
BRANCH   4   5
HETATM    5  C           1      46.448  10.250   4.182  0.00  0.00     0.180 C 
HETATM    6  C           1      45.862  11.080   5.321  0.00  0.00     0.182 C 
HETATM    7  C           1      45.320  12.315   4.625  0.00  0.00     0.198 C 
HETATM    8  C           1      46.063  12.297   3.303  0.00  0.00     0.262 C 
HETATM    9  N           1      45.423  13.060   2.224  0.00  0.00    -0.294 N 
HETATM   10  O           1      46.166  10.928   2.990  0.00  0.00    -0.353 OA
HETATM   11  C           1      44.300  12.767   1.723  0.00  0.00     0.214 A 
HETATM   12  C           1      45.933  14.075   1.672  0.00  0.00     0.167 A 
HETATM   13  N           1      44.021  13.591   0.804  0.00  0.00    -0.236 NA
HETATM   14  C           1      45.002  14.396   0.756  0.00  0.00     0.149 A 
HETATM   15  C           1      45.210  15.453  -0.046  0.00  0.00     0.155 A 
HETATM   16  N           1      46.290  16.104   0.103  0.00  0.00    -0.222 NA
HETATM   17  C           1      47.108  15.727   0.996  0.00  0.00     0.237 A 
HETATM   18  N           1      46.995  14.747   1.791  0.00  0.00    -0.222 NA
BRANCH   6  19
HETATM   19  O           1      46.878  11.476   6.211  0.00  0.00    -0.390 OA
HETATM   20  H           1      47.317  12.269   5.896  0.00  0.00     0.210 HD
ENDBRANCH   6  19
BRANCH   7  21
HETATM   21  O           1      45.586  13.485   5.363  0.00  0.00    -0.388 OA
HETATM   22  H           1      45.623  14.234   4.763  0.00  0.00     0.210 HD
ENDBRANCH   7  21
BRANCH  15  23
HETATM   23  N           1      44.328  15.753  -0.905  0.00  0.00    -0.382 N 
HETATM   24  H           1      43.817  16.666  -0.838  0.00  0.00     0.157 HD
HETATM   25  H           1      44.105  15.089  -1.687  0.00  0.00     0.157 HD
ENDBRANCH  15  23
ENDBRANCH   4   5
ENDBRANCH   3   4
ENDBRANCH   1   3
BRANCH   1  26
HETATM   26  O           1      42.793   8.111   2.250  0.00  0.00    -0.307 OA
HETATM   27  H           1      42.429   7.386   2.724  0.00  0.00     0.222 HD
ENDBRANCH   1  26
BRANCH   1  28
HETATM   28  O           1      45.044   6.484   2.213  0.00  0.00    -0.195 OA
BRANCH  28  29
HETATM   29  P           1      44.682   5.438   1.065  0.00  0.00     0.404 P 
HETATM   30  O           1      45.722   5.355   0.005  0.00  0.00    -0.631 OA
BRANCH  29  31
HETATM   31  O           1      43.175   5.329   0.443  0.00  0.00    -0.263 OA
BRANCH  31  32
HETATM   32  C           1      42.134   4.703   1.165  0.00  0.00     0.303 C 
HETATM   33  C           1      40.809   5.325   0.777  0.00  0.00     0.205 C 
HETATM   34  C           1      39.690   4.568   1.466  0.00  0.00     0.183 C 
HETATM   35  C           1      39.810   3.123   1.030  0.00  0.00     0.181 C 
HETATM   36  C           1      41.187   2.578   1.404  0.00  0.00     0.186 C 
HETATM   37  O           1      42.174   3.346   0.766  0.00  0.00    -0.347 OA
BRANCH  33  38
HETATM   38  O           1      40.768   6.665   1.200  0.00  0.00    -0.388 OA
HETATM   39  H           1      41.575   7.099   0.910  0.00  0.00     0.210 HD
ENDBRANCH  33  38
BRANCH  34  40
HETATM   40  O           1      38.440   5.094   1.091  0.00  0.00    -0.390 OA
HETATM   41  H           1      37.813   4.378   0.959  0.00  0.00     0.210 HD
ENDBRANCH  34  40
BRANCH  35  42
HETATM   42  O           1      38.785   2.372   1.629  0.00  0.00    -0.390 OA
HETATM   43  H           1      39.121   2.025   2.459  0.00  0.00     0.210 HD
ENDBRANCH  35  42
BRANCH  36  44
HETATM   44  C           1      41.344   1.099   1.052  0.00  0.00     0.173 C 
BRANCH  44  45
HETATM   45  C           1      41.027   0.752  -0.391  0.00  0.00     0.198 C 
BRANCH  45  46
HETATM   46  O           1      40.910  -0.646  -0.552  0.00  0.00    -0.398 OA
HETATM   47  H           1      41.781  -1.024  -0.687  0.00  0.00     0.209 HD
ENDBRANCH  45  46
ENDBRANCH  44  45
BRANCH  44  48
HETATM   48  O           1      40.525   0.309   1.882  0.00  0.00    -0.391 OA
HETATM   49  H           1      40.368   0.784   2.703  0.00  0.00     0.210 HD
ENDBRANCH  44  48
ENDBRANCH  36  44
ENDBRANCH  31  32
ENDBRANCH  29  31
BRANCH  29  50
HETATM   50  O           1      44.603   3.919   1.674  0.00  0.00    -0.307 OA
HETATM   51  H           1      44.546   3.304   0.964  0.00  0.00     0.222 HD
ENDBRANCH  29  50
ENDBRANCH  28  29
ENDBRANCH   1  28
TORSDOF 19
ENDMDL
