REMARK AutoDockVina VirtualScreeningResult  Sat Mar  5 21:34:40 2016
USER  AD>  3 of 9 MODELS
USER  AD>  ligand efficiency  -0.2714
USER  AD>  -5.70,  2.453,  3.951
USER  AD> macro_close_ats: 14
USER  AD> hepi:A:MET11:H
USER  AD> hepi:A:THR262:CB
USER  AD> hepi:A:MET11:CE
USER  AD> hepi:A:LYS192:H
USER  AD> hepi:A:THR187:OG1
USER  AD> hepi:A:GLY263:CA
USER  AD> hepi:A:GLY263:N
USER  AD> hepi:A:GLY263:H
USER  AD> hepi:A:LEU264:CD1
USER  AD> hepi:A:MET11:N
USER  AD> hepi:A:MET11:CB
USER  AD> hepi:A:MET11:SD
USER  AD> hepi:A:THR262:OG1
USER  AD> hepi:A:THR262:CA

USER  AD> lig_close_ats: 11
USER  AD> h11_aa8_m3_model1: :LIG1:O,H,C,C,H,H,O,H,C,O,C
MODEL 3
REMARK VINA RESULT:      -5.7      2.453      3.951
REMARK  13 active torsions:
REMARK  status: ('A' for Active; 'I' for Inactive)
REMARK    1  A    between atoms: C_1  and  O_7 
REMARK    2  A    between atoms: C_2  and  O_10 
REMARK    3  A    between atoms: C_3  and  O_11 
REMARK    4  A    between atoms: C_4  and  O_12 
REMARK    5  A    between atoms: C_6  and  C_8 
REMARK    6  A    between atoms: C_8  and  O_9 
REMARK    7  A    between atoms: O_12  and  C_13 
REMARK    8  A    between atoms: C_13  and  C_14 
REMARK    9  A    between atoms: C_15  and  C_16 
REMARK   10  A    between atoms: C_16  and  C_17 
REMARK   11  A    between atoms: C_17  and  C_18 
REMARK   12  A    between atoms: C_18  and  C_19 
REMARK   13  A    between atoms: C_19  and  C_20 
ROOT
HETATM    1  C   LIG     1      43.686   6.437   0.905  1.00  0.00     0.180 C 
HETATM    2  C   LIG     1      45.208   6.643   0.910  1.00  0.00     0.183 C 
HETATM    3  C   LIG     1      45.641   7.141   2.295  1.00  0.00     0.204 C 
HETATM    4  C   LIG     1      44.890   8.465   2.581  1.00  0.00     0.291 C 
HETATM    5  O   LIG     1      43.470   8.208   2.581  1.00  0.00    -0.348 OA
HETATM    6  C   LIG     1      42.988   7.752   1.302  1.00  0.00     0.179 C 
ENDROOT
BRANCH   4   7
HETATM    7  O   LIG     1      45.178   9.503   1.634  1.00  0.00    -0.355 OA
BRANCH   7   8
HETATM    8  C   LIG     1      45.377  10.748   2.285  1.00  0.00     0.198 C 
BRANCH   8   9
HETATM    9  C   LIG     1      46.324  10.590   3.419  1.00  0.00    -0.005 C 
HETATM   10  C   LIG     1      46.217  11.447   4.441  1.00  0.00    -0.029 C 
BRANCH  10  11
HETATM   11  C   LIG     1      47.032  11.306   5.690  1.00  0.00     0.027 C 
BRANCH  11  12
HETATM   12  C   LIG     1      47.889  10.062   5.604  1.00  0.00     0.004 C 
BRANCH  12  13
HETATM   13  C   LIG     1      49.086  10.231   6.517  1.00  0.00     0.000 C 
BRANCH  13  14
HETATM   14  C   LIG     1      49.082  11.606   7.151  1.00  0.00    -0.000 C 
BRANCH  14  15
HETATM   15  C   LIG     1      49.884  11.590   8.443  1.00  0.00    -0.005 C 
HETATM   16  C   LIG     1      51.252  10.981   8.207  1.00  0.00     0.005 C 
ENDBRANCH  14  15
ENDBRANCH  13  14
ENDBRANCH  12  13
ENDBRANCH  11  12
ENDBRANCH  10  11
ENDBRANCH   8   9
ENDBRANCH   7   8
ENDBRANCH   4   7
BRANCH   3  17
HETATM   17  O   LIG     1      47.066   7.235   2.403  1.00  0.00    -0.388 OA
HETATM   18  H   LIG     1      47.336   6.628   3.123  1.00  0.00     0.210 HD
ENDBRANCH   3  17
BRANCH   2  19
HETATM   19  O   LIG     1      45.894   5.425   0.609  1.00  0.00    -0.390 OA
HETATM   20  H   LIG     1      46.766   5.494   1.047  1.00  0.00     0.210 HD
ENDBRANCH   2  19
BRANCH   6  21
HETATM   21  C   LIG     1      41.463   7.599   1.378  1.00  0.00     0.198 C 
BRANCH  21  22
HETATM   22  O   LIG     1      40.839   8.781   1.870  1.00  0.00    -0.398 OA
HETATM   23  H   LIG     1      41.204   8.968   2.752  1.00  0.00     0.209 HD
ENDBRANCH  21  22
ENDBRANCH   6  21
BRANCH   1  24
HETATM   24  O   LIG     1      43.395   5.375   1.837  1.00  0.00    -0.390 OA
HETATM   25  H   LIG     1      43.357   5.762   2.732  1.00  0.00     0.210 HD
ENDBRANCH   1  24
TORSDOF 13
ENDMDL
