REMARK AutoDockVina VirtualScreeningResult  Sat Mar  5 21:14:08 2016
USER  AD>  1 of 9 MODELS
USER  AD>  ligand efficiency  -0.3600
USER  AD>  -5.40,  0.000,  0.000
USER  AD> macro_close_ats: 10
USER  AD> hepi:A:GLY218:CA
USER  AD> hepi:A:MET242:O
USER  AD> hepi:A:TRP217:CA
USER  AD> hepi:A:LEU264:CD1
USER  AD> hepi:A:MET242:CG
USER  AD> hepi:A:MET242:N
USER  AD> hepi:A:ALA186:CB
USER  AD> hepi:A:MET242:CA
USER  AD> hepi:A:MET242:C
USER  AD> hepi:A:MET242:H

USER  AD> lig_close_ats: 7
USER  AD> h11_ab3_m1_model1: :LIG1:O,C,O,C,C,C,H
MODEL 1
REMARK VINA RESULT:      -5.4      0.000      0.000
REMARK  8 active torsions:
REMARK  status: ('A' for Active; 'I' for Inactive)
REMARK    1  A    between atoms: C_1  and  O_7 
REMARK    2  A    between atoms: C_2  and  O_10 
REMARK    3  A    between atoms: C_3  and  O_11 
REMARK    4  A    between atoms: C_4  and  O_12 
REMARK    5  A    between atoms: C_6  and  C_8 
REMARK    6  A    between atoms: C_8  and  O_9 
REMARK    7  A    between atoms: O_12  and  C_13 
REMARK    8  A    between atoms: C_13  and  C_14 
ROOT
HETATM    1  C   LIG     1      50.808  11.865   8.555  1.00  0.00     0.180 C 
HETATM    2  C   LIG     1      50.058  10.899   7.641  1.00  0.00     0.183 C 
HETATM    3  C   LIG     1      48.951  11.603   6.843  1.00  0.00     0.204 C 
HETATM    4  C   LIG     1      48.076  12.488   7.768  1.00  0.00     0.291 C 
HETATM    5  O   LIG     1      48.902  13.323   8.604  1.00  0.00    -0.348 OA
HETATM    6  C   LIG     1      49.787  12.580   9.447  1.00  0.00     0.179 C 
ENDROOT
BRANCH   4   7
HETATM    7  O   LIG     1      47.251  13.397   7.035  1.00  0.00    -0.355 OA
BRANCH   7   8
HETATM    8  C   LIG     1      45.847  13.223   7.177  1.00  0.00     0.197 C 
BRANCH   8   9
HETATM    9  C   LIG     1      45.379  13.665   8.528  1.00  0.00    -0.011 C 
HETATM   10  C   LIG     1      44.326  13.135   9.169  1.00  0.00     0.009 C 
ENDBRANCH   8   9
ENDBRANCH   7   8
ENDBRANCH   4   7
BRANCH   3  11
HETATM   11  O   LIG     1      48.193  10.578   6.178  1.00  0.00    -0.388 OA
HETATM   12  H   LIG     1      48.448  10.643   5.235  1.00  0.00     0.210 HD
ENDBRANCH   3  11
BRANCH   2  13
HETATM   13  O   LIG     1      50.964  10.284   6.708  1.00  0.00    -0.390 OA
HETATM   14  H   LIG     1      50.565  10.430   5.823  1.00  0.00     0.210 HD
ENDBRANCH   2  13
BRANCH   6  15
HETATM   15  C   LIG     1      50.455  13.545  10.430  1.00  0.00     0.198 C 
BRANCH  15  16
HETATM   16  O   LIG     1      51.180  14.547   9.726  1.00  0.00    -0.398 OA
HETATM   17  H   LIG     1      51.998  14.721  10.224  1.00  0.00     0.209 HD
ENDBRANCH  15  16
ENDBRANCH   6  15
BRANCH   1  18
HETATM   18  O   LIG     1      51.519  12.790   7.711  1.00  0.00    -0.390 OA
HETATM   19  H   LIG     1      50.859  13.407   7.335  1.00  0.00     0.210 HD
ENDBRANCH   1  18
TORSDOF 8
ENDMDL
