REMARK AutoDockVina VirtualScreeningResult  Sat Mar  5 21:14:00 2016
USER  AD>  3 of 9 MODELS
USER  AD>  ligand efficiency  -0.1213
USER  AD>  -7.40,  4.798, 10.164
USER  AD> macro_close_ats: 16
USER  AD> hepi:A:SER10:CB
USER  AD> hepi:A:ARG120:CZ
USER  AD> hepi:A:MET11:H
USER  AD> hepi:A:THR188:CB
USER  AD> hepi:A:ILE287:CB
USER  AD> hepi:A:GLY263:H
USER  AD> hepi:A:THR188:H
USER  AD> hepi:A:GLY263:N
USER  AD> hepi:A:ARG120:H
USER  AD> hepi:A:SER10:OG
USER  AD> hepi:A:HIS266:NE2
USER  AD> hepi:A:GLY263:CA
USER  AD> hepi:A:PHE41:CZ
USER  AD> hepi:A:GLY12:H
USER  AD> hepi:A:ILE287:CG2
USER  AD> hepi:A:THR188:CG2

USER  AD> lig_close_ats: 15
USER  AD> h11_fdla_m3_model1:X:RES1:H38,O38,O46,O70,C64,C66,C92,O98,H88,O13,H162,O99,C82,C77,O49
MODEL 3
REMARK VINA RESULT:      -7.4      4.798     10.164
REMARK  30 active torsions:
REMARK  status: ('A' for Active; 'I' for Inactive)
REMARK    1  A    between atoms: C42_1  and  O60_2 
REMARK    2  A    between atoms: C42_1  and  C29_40 
REMARK    3  A    between atoms: O60_2  and  C50_3 
REMARK    4  A    between atoms: C50_3  and  C69_37 
REMARK    5  A    between atoms: C53_5  and  O86_9 
REMARK    6  A    between atoms: C56_6  and  O62_29 
REMARK    7  A    between atoms: C52_7  and  C64_31 
REMARK    8  A    between atoms: O86_9  and  C76_10 
REMARK    9  A    between atoms: C76_10  and  C92_16 
REMARK   10  A    between atoms: C78_12  and  C93_19 
REMARK   11  A    between atoms: C82_13  and  O90_25 
REMARK   12  A    between atoms: C79_14  and  O88_27 
REMARK   13  A    between atoms: C93_19  and  O10_20 
REMARK   14  A    between atoms: C93_19  and  C95_22 
REMARK   15  A    between atoms: C95_22  and  O10_23 
REMARK   16  A    between atoms: C64_31  and  O72_35 
REMARK   17  A    between atoms: C64_31  and  C66_32 
REMARK   18  A    between atoms: C66_32  and  O74_33 
REMARK   19  A    between atoms: C32_41  and  O39_46 
REMARK   20  A    between atoms: C30_42  and  O38_51 
REMARK   21  A    between atoms: C27_43  and  N40_53 
REMARK   22  A    between atoms: C26_44  and  O36_57 
REMARK   23  A    between atoms: O39_46  and  P45_47 
REMARK   24  A    between atoms: O36_57  and  C23_58 
REMARK   25  A    between atoms: C23_58  and  C2_59 
REMARK   26  A    between atoms: C3_61  and  O11_65 
REMARK   27  A    between atoms: C4_62  and  N16_70 
REMARK   28  A    between atoms: C5_63  and  O12_74 
REMARK   29  A    between atoms: C1_64  and  O13_76 
REMARK   30  A    between atoms: O11_65  and  P18_66 
ROOT
ATOM      1  C42 RES X   1      40.594   1.787  -2.797  1.00  0.13     0.177 C 
ENDROOT
BRANCH   1   2
ATOM      2  O60 RES X   1      40.763   2.987  -2.046  1.00 -0.19    -0.324 OA
BRANCH   2   3
ATOM      3  C50 RES X   1      39.610   3.262  -1.253  1.00  0.15     0.271 C 
ATOM      4  O61 RES X   1      39.366   2.187  -0.333  1.00 -0.16    -0.324 OA
ATOM      5  C52 RES X   1      40.490   1.915   0.496  1.00  0.06     0.176 C 
ATOM      6  C56 RES X   1      40.822   3.153   1.348  1.00  0.04     0.168 C 
ATOM      7  C53 RES X   1      41.134   4.324   0.408  1.00  0.05     0.153 C 
ATOM      8  C51 RES X   1      39.887   4.569  -0.474  1.00  0.06     0.100 C 
BRANCH   3   9
ATOM      9  C69 RES X   1      38.372   3.403  -2.158  1.00  0.20     0.240 C 
ATOM     10  O71 RES X   1      38.373   4.371  -3.207  1.00 -0.82    -0.644 OA
ATOM     11  O70 RES X   1      37.363   2.669  -1.976  1.00 -0.59    -0.644 OA
ENDBRANCH   3   9
BRANCH   5  12
ATOM     12  C64 RES X   1      40.144   0.732   1.416  1.00  0.03     0.170 C 
BRANCH  12  13
ATOM     13  O72 RES X   1      41.312   0.340   2.143  1.00 -0.08    -0.380 OA
ATOM     14  H72 RES X   1      41.788  -0.313   1.644  1.00  0.00     0.211 HD
ENDBRANCH  12  13
BRANCH  12  15
ATOM     15  C66 RES X   1      39.657  -0.451   0.561  1.00 -0.03     0.169 C 
BRANCH  15  16
ATOM     16  O74 RES X   1      40.748  -0.972  -0.204  1.00  0.30    -0.380 OA
ATOM     17  H74 RES X   1      40.905  -0.413  -0.957  1.00  0.00     0.211 HD
ENDBRANCH  15  16
ENDBRANCH  12  15
ENDBRANCH   5  12
BRANCH   6  18
ATOM     18  O62 RES X   1      39.685   3.552   2.122  1.00 -0.09    -0.380 OA
ATOM     19  H62 RES X   1      38.964   2.946   1.996  1.00  0.00     0.211 HD
ENDBRANCH   6  18
BRANCH   7  20
ATOM     20  O86 RES X   1      41.472   5.488   1.173  1.00 -0.07    -0.327 OA
BRANCH  20  21
ATOM     21  C76 RES X   1      42.839   5.831   0.936  1.00  0.14     0.271 C 
ATOM     22  C77 RES X   1      43.177   7.117   1.719  1.00  0.07     0.099 C 
ATOM     23  C79 RES X   1      42.248   8.238   1.249  1.00  0.05     0.145 C 
ATOM     24  C82 RES X   1      42.461   8.424  -0.255  1.00  0.05     0.167 C 
ATOM     25  C78 RES X   1      42.162   7.092  -0.967  1.00  0.01     0.176 C 
ATOM     26  O87 RES X   1      43.041   6.059  -0.474  1.00 -0.27    -0.324 OA
BRANCH  23  27
ATOM     27  O88 RES X   1      42.547   9.452   1.943  1.00 -0.14    -0.382 OA
ATOM     28  H88 RES X   1      41.775   9.770   2.396  1.00  0.00     0.210 HD
ENDBRANCH  23  27
BRANCH  24  29
ATOM     29  O90 RES X   1      43.818   8.804  -0.501  1.00 -0.31    -0.380 OA
ATOM     30  H90 RES X   1      44.335   8.655   0.282  1.00  0.00     0.211 HD
ENDBRANCH  24  29
BRANCH  25  31
ATOM     31  C93 RES X   1      42.373   7.280  -2.483  1.00  0.01     0.170 C 
BRANCH  31  32
ATOM     32  O10 RES X   1      42.121   8.645  -2.825  1.00 -0.35    -0.380 OA
ATOM     33  H10 RES X   1      42.806   8.961  -3.402  1.00  0.00     0.211 HD
ENDBRANCH  31  32
BRANCH  31  34
ATOM     34  C95 RES X   1      41.411   6.367  -3.259  1.00 -0.10     0.169 C 
BRANCH  34  35
ATOM     35  O10 RES X   1      41.961   5.051  -3.340  1.00 -0.04    -0.380 OA
ATOM     36  H10 RES X   1      42.141   4.727  -2.465  1.00  0.00     0.211 HD
ENDBRANCH  34  35
ENDBRANCH  31  34
ENDBRANCH  25  31
BRANCH  21  37
ATOM     37  C92 RES X   1      43.752   4.688   1.409  1.00  0.15     0.240 C 
ATOM     38  O99 RES X   1      44.702   4.296   0.684  1.00 -0.32    -0.644 OA
ATOM     39  O98 RES X   1      43.514   4.071   2.677  1.00 -0.51    -0.644 OA
ENDBRANCH  21  37
ENDBRANCH  20  21
ENDBRANCH   7  20
ENDBRANCH   2   3
ENDBRANCH   1   2
BRANCH   1  40
ATOM     40  C29 RES X   1      41.484   1.699  -4.057  1.00  0.10     0.178 C 
ATOM     41  C32 RES X   1      41.495   0.209  -4.447  1.00  0.12     0.186 C 
ATOM     42  C30 RES X   1      42.392  -0.012  -5.649  1.00  0.10     0.174 C 
ATOM     43  C27 RES X   1      43.790   0.466  -5.274  1.00  0.13     0.263 C 
ATOM     44  C26 RES X   1      43.703   1.970  -4.936  1.00  0.12     0.267 C 
ATOM     45  O37 RES X   1      42.832   2.166  -3.788  1.00 -0.15    -0.327 OA
BRANCH  41  46
ATOM     46  O39 RES X   1      40.169  -0.215  -4.763  1.00 -0.20    -0.261 OA
BRANCH  46  47
ATOM     47  P45 RES X   1      39.496  -1.681  -4.072  1.00  0.46     0.423 P 
ATOM     48  O46 RES X   1      38.141  -2.218  -5.057  1.00 -0.34    -0.617 OA
ATOM     49  O48 RES X   1      38.946  -1.355  -2.433  1.00 -1.25    -0.617 OA
ATOM     50  O49 RES X   1      40.736  -2.932  -4.036  1.00 -0.72    -0.617 OA
ENDBRANCH  46  47
ENDBRANCH  41  46
BRANCH  42  51
ATOM     51  O38 RES X   1      42.416  -1.402  -5.986  1.00 -0.22    -0.380 OA
ATOM     52  H38 RES X   1      42.483  -1.924  -5.196  1.00  0.00     0.211 HD
ENDBRANCH  42  51
BRANCH  43  53
ATOM     53  N40 RES X   1      44.694   0.247  -6.409  1.00  0.04    -0.059 N 
ATOM     54 3H40 RES X   1      45.393   0.985  -6.495  1.00  0.00     0.275 HD
ATOM     55 1H40 RES X   1      44.142   0.136  -7.259  1.00  0.00     0.275 HD
ATOM     56 2H40 RES X   1      45.329  -0.536  -6.253  1.00  0.00     0.275 HD
ENDBRANCH  43  53
BRANCH  44  57
ATOM     57  O36 RES X   1      45.023   2.462  -4.641  1.00 -0.14    -0.327 OA
BRANCH  57  58
ATOM     58  C23 RES X   1      45.148   3.837  -5.039  1.00  0.09     0.177 C 
BRANCH  58  59
ATOM     59  C2  RES X   1      46.168   4.510  -4.088  1.00  0.08     0.177 C 
ATOM     60  C1  RES X   1      45.385   5.274  -3.005  1.00  0.08     0.169 C 
ATOM     61  C5  RES X   1      46.376   5.905  -2.032  1.00  0.07     0.173 C 
ATOM     62  C4  RES X   1      47.282   6.848  -2.820  1.00  0.11     0.263 C 
ATOM     63  C3  RES X   1      47.996   6.048  -3.930  1.00  0.13     0.278 C 
ATOM     64  O15 RES X   1      47.022   5.429  -4.812  1.00 -0.16    -0.327 OA
BRANCH  60  65
ATOM     65  O13 RES X   1      44.531   4.371  -2.301  1.00 -0.16    -0.380 OA
ATOM     66  H13 RES X   1      44.052   4.841  -1.628  1.00  0.00     0.211 HD
ENDBRANCH  60  65
BRANCH  61  67
ATOM     67  O12 RES X   1      45.674   6.631  -1.020  1.00 -0.17    -0.380 OA
ATOM     68  H12 RES X   1      44.911   6.141  -0.737  1.00  0.00     0.211 HD
ENDBRANCH  61  67
BRANCH  62  69
ATOM     69  N16 RES X   1      48.278   7.449  -1.916  1.00  0.02    -0.059 N 
ATOM     70 3H16 RES X   1      47.949   7.484  -0.951  1.00  0.00     0.275 HD
ATOM     71 1H16 RES X   1      48.545   8.370  -2.264  1.00  0.00     0.275 HD
ATOM     72 2H16 RES X   1      49.085   6.842  -1.775  1.00  0.00     0.275 HD
ENDBRANCH  62  69
BRANCH  63  73
ATOM     73  O11 RES X   1      48.823   6.950  -4.668  1.00 -0.11    -0.236 OA
BRANCH  73  74
ATOM     74  P18 RES X   1      50.499   6.413  -4.700  1.00  0.29     0.425 P 
ATOM     75  O19 RES X   1      50.637   4.993  -5.727  1.00 -0.22    -0.617 OA
ATOM     76  O21 RES X   1      51.505   7.707  -5.345  1.00 -0.51    -0.617 OA
ATOM     77  O22 RES X   1      51.029   6.017  -3.067  1.00 -0.48    -0.617 OA
ENDBRANCH  73  74
ENDBRANCH  63  73
ENDBRANCH  58  59
ENDBRANCH  57  58
ENDBRANCH  44  57
ENDBRANCH   1  40
TORSDOF 30
ENDMDL
