REMARK AutoDockVina VirtualScreeningResult  Sat Mar  5 21:14:41 2016
USER  AD>  3 of 9 MODELS
USER  AD>  ligand efficiency  -0.2571
USER  AD>  -5.40,  7.202, 11.331
USER  AD> macro_close_ats: 7
USER  AD> hepi:A:GLY218:CA
USER  AD> hepi:A:MET242:C
USER  AD> hepi:A:LEU264:CD1
USER  AD> hepi:A:TRP217:H
USER  AD> hepi:A:SER243:C
USER  AD> hepi:A:MET242:O
USER  AD> hepi:A:MET242:H

USER  AD> lig_close_ats: 7
USER  AD> h11_gb8y_m3_model1: :LIG1:O,C,H,O,C,C,C
MODEL 3
REMARK VINA RESULT:      -5.4      7.202     11.331
REMARK  14 active torsions:
REMARK  status: ('A' for Active; 'I' for Inactive)
REMARK    1  A    between atoms: C_1  and  O_21 
REMARK    2  A    between atoms: C_2  and  O_9 
REMARK    3  A    between atoms: C_3  and  O_10 
REMARK    4  A    between atoms: C_4  and  O_11 
REMARK    5  A    between atoms: C_6  and  C_7 
REMARK    6  A    between atoms: C_7  and  O_8 
REMARK    7  A    between atoms: O_11  and  C_12 
REMARK    8  A    between atoms: C_12  and  C_13 
REMARK    9  A    between atoms: C_13  and  C_14 
REMARK   10  A    between atoms: C_14  and  C_15 
REMARK   11  A    between atoms: C_15  and  C_16 
REMARK   12  A    between atoms: C_16  and  C_17 
REMARK   13  A    between atoms: C_17  and  C_18 
REMARK   14  A    between atoms: C_18  and  C_19 
ROOT
HETATM    1  C   LIG     1      50.775  12.323   8.356  1.00  0.00     0.180 C 
HETATM    2  C   LIG     1      50.450  11.659   7.020  1.00  0.00     0.183 C 
HETATM    3  C   LIG     1      49.357  12.421   6.264  1.00  0.00     0.204 C 
HETATM    4  C   LIG     1      48.145  12.565   7.206  1.00  0.00     0.291 C 
HETATM    5  O   LIG     1      48.524  13.306   8.366  1.00  0.00    -0.348 OA
HETATM    6  C   LIG     1      49.499  12.625   9.160  1.00  0.00     0.179 C 
ENDROOT
BRANCH   4   7
HETATM    7  O   LIG     1      47.077  13.250   6.548  1.00  0.00    -0.359 OA
BRANCH   7   8
HETATM    8  C   LIG     1      45.822  12.884   7.117  1.00  0.00     0.171 C 
BRANCH   8   9
HETATM    9  C   LIG     1      44.927  12.201   6.090  1.00  0.00     0.026 C 
BRANCH   9  10
HETATM   10  C   LIG     1      45.307  12.681   4.689  1.00  0.00     0.002 C 
BRANCH  10  11
HETATM   11  C   LIG     1      44.358  12.183   3.601  1.00  0.00     0.000 C 
BRANCH  11  12
HETATM   12  C   LIG     1      44.813  10.809   3.101  1.00  0.00     0.000 C 
BRANCH  12  13
HETATM   13  C   LIG     1      46.325  10.739   2.893  1.00  0.00     0.000 C 
BRANCH  13  14
HETATM   14  C   LIG     1      46.894   9.445   3.480  1.00  0.00    -0.000 C 
BRANCH  14  15
HETATM   15  C   LIG     1      45.811   8.382   3.654  1.00  0.00    -0.005 C 
HETATM   16  C   LIG     1      46.006   7.229   2.683  1.00  0.00     0.005 C 
ENDBRANCH  14  15
ENDBRANCH  13  14
ENDBRANCH  12  13
ENDBRANCH  11  12
ENDBRANCH  10  11
ENDBRANCH   9  10
ENDBRANCH   8   9
ENDBRANCH   7   8
ENDBRANCH   4   7
BRANCH   3  17
HETATM   17  O   LIG     1      49.077  11.695   5.055  1.00  0.00    -0.388 OA
HETATM   18  H   LIG     1      48.794  12.323   4.372  1.00  0.00     0.210 HD
ENDBRANCH   3  17
BRANCH   2  19
HETATM   19  O   LIG     1      51.660  11.587   6.249  1.00  0.00    -0.390 OA
HETATM   20  H   LIG     1      51.581  10.792   5.682  1.00  0.00     0.210 HD
ENDBRANCH   2  19
BRANCH   6  21
HETATM   21  C   LIG     1      49.847  13.496  10.379  1.00  0.00     0.198 C 
BRANCH  21  22
HETATM   22  O   LIG     1      51.048  14.234  10.177  1.00  0.00    -0.398 OA
HETATM   23  H   LIG     1      51.116  14.421   9.217  1.00  0.00     0.209 HD
ENDBRANCH  21  22
ENDBRANCH   6  21
BRANCH   1  24
HETATM   24  O   LIG     1      51.645  11.468   9.112  1.00  0.00    -0.390 OA
HETATM   25  H   LIG     1      51.961  12.018   9.861  1.00  0.00     0.210 HD
ENDBRANCH   1  24
TORSDOF 14
ENDMDL
