REMARK AutoDockVina VirtualScreeningResult  Sat Mar  5 21:14:00 2016
USER  AD>  8 of 9 MODELS
USER  AD>  ligand efficiency  -0.1180
USER  AD>  -7.20,  9.506, 15.910
USER  AD> macro_close_ats: 21
USER  AD> hepi:A:GLY12:CA
USER  AD> hepi:A:GLY263:CA
USER  AD> hepi:A:GLY40:C
USER  AD> hepi:A:SER10:H
USER  AD> hepi:A:MET11:CB
USER  AD> hepi:A:LEU264:CG
USER  AD> hepi:A:MET11:CE
USER  AD> hepi:A:LEU264:H
USER  AD> hepi:A:ARG61:H
USER  AD> hepi:A:GLY12:N
USER  AD> hepi:A:PHE41:CZ
USER  AD> hepi:A:SER10:OG
USER  AD> hepi:A:MET11:CA
USER  AD> hepi:A:GLY40:CA
USER  AD> hepi:A:GLY40:O
USER  AD> hepi:A:MET11:H
USER  AD> hepi:A:THR262:H
USER  AD> hepi:A:GLY12:H
USER  AD> hepi:A:GLY263:H
USER  AD> hepi:A:MET11:C
USER  AD> hepi:A:MET11:N

USER  AD> lig_close_ats: 12
USER  AD> h11_fdla_m8_model1:X:RES1:H10,O19,C1,C93,C69,H10,O70,C29,O10,C51,H90,H403
MODEL 8
REMARK VINA RESULT:      -7.2      9.506     15.910
REMARK  30 active torsions:
REMARK  status: ('A' for Active; 'I' for Inactive)
REMARK    1  A    between atoms: C42_1  and  O60_2 
REMARK    2  A    between atoms: C42_1  and  C29_40 
REMARK    3  A    between atoms: O60_2  and  C50_3 
REMARK    4  A    between atoms: C50_3  and  C69_37 
REMARK    5  A    between atoms: C53_5  and  O86_9 
REMARK    6  A    between atoms: C56_6  and  O62_29 
REMARK    7  A    between atoms: C52_7  and  C64_31 
REMARK    8  A    between atoms: O86_9  and  C76_10 
REMARK    9  A    between atoms: C76_10  and  C92_16 
REMARK   10  A    between atoms: C78_12  and  C93_19 
REMARK   11  A    between atoms: C82_13  and  O90_25 
REMARK   12  A    between atoms: C79_14  and  O88_27 
REMARK   13  A    between atoms: C93_19  and  O10_20 
REMARK   14  A    between atoms: C93_19  and  C95_22 
REMARK   15  A    between atoms: C95_22  and  O10_23 
REMARK   16  A    between atoms: C64_31  and  O72_35 
REMARK   17  A    between atoms: C64_31  and  C66_32 
REMARK   18  A    between atoms: C66_32  and  O74_33 
REMARK   19  A    between atoms: C32_41  and  O39_46 
REMARK   20  A    between atoms: C30_42  and  O38_51 
REMARK   21  A    between atoms: C27_43  and  N40_53 
REMARK   22  A    between atoms: C26_44  and  O36_57 
REMARK   23  A    between atoms: O39_46  and  P45_47 
REMARK   24  A    between atoms: O36_57  and  C23_58 
REMARK   25  A    between atoms: C23_58  and  C2_59 
REMARK   26  A    between atoms: C3_61  and  O11_65 
REMARK   27  A    between atoms: C4_62  and  N16_70 
REMARK   28  A    between atoms: C5_63  and  O12_74 
REMARK   29  A    between atoms: C1_64  and  O13_76 
REMARK   30  A    between atoms: O11_65  and  P18_66 
ROOT
ATOM      1  C42 RES X   1      48.083  10.398   3.911  1.00  0.13     0.177 C 
ENDROOT
BRANCH   1   2
ATOM      2  O60 RES X   1      47.115   9.725   3.110  1.00 -0.19    -0.324 OA
BRANCH   2   3
ATOM      3  C50 RES X   1      45.792  10.003   3.563  1.00  0.15     0.271 C 
ATOM      4  O61 RES X   1      45.467  11.384   3.345  1.00 -0.16    -0.324 OA
ATOM      5  C52 RES X   1      45.622  11.771   1.983  1.00  0.06     0.176 C 
ATOM      6  C56 RES X   1      44.667  10.951   1.097  1.00  0.04     0.168 C 
ATOM      7  C53 RES X   1      45.002   9.464   1.262  1.00  0.05     0.153 C 
ATOM      8  C51 RES X   1      44.829   9.102   2.756  1.00  0.06     0.100 C 
BRANCH   3   9
ATOM      9  C69 RES X   1      45.684   9.723   5.074  1.00  0.20     0.240 C 
ATOM     10  O71 RES X   1      45.429  10.800   5.974  1.00 -0.82    -0.644 OA
ATOM     11  O70 RES X   1      45.821   8.549   5.515  1.00 -0.59    -0.644 OA
ENDBRANCH   3   9
BRANCH   5  12
ATOM     12  C64 RES X   1      45.287  13.267   1.859  1.00  0.03     0.170 C 
BRANCH  12  13
ATOM     13  O72 RES X   1      44.046  13.530   2.523  1.00 -0.08    -0.380 OA
ATOM     14  H72 RES X   1      44.029  13.066   3.351  1.00  0.00     0.211 HD
ENDBRANCH  12  13
BRANCH  12  15
ATOM     15  C66 RES X   1      45.157  13.636   0.371  1.00 -0.03     0.169 C 
BRANCH  15  16
ATOM     16  O74 RES X   1      46.237  14.495  -0.007  1.00  0.30    -0.380 OA
ATOM     17  H74 RES X   1      46.765  14.698   0.756  1.00  0.00     0.211 HD
ENDBRANCH  15  16
ENDBRANCH  12  15
ENDBRANCH   5  12
BRANCH   6  18
ATOM     18  O62 RES X   1      43.312  11.108   1.535  1.00 -0.09    -0.380 OA
ATOM     19  H62 RES X   1      42.888  10.262   1.620  1.00  0.00     0.211 HD
ENDBRANCH   6  18
BRANCH   7  20
ATOM     20  O86 RES X   1      44.145   8.675   0.427  1.00 -0.07    -0.327 OA
BRANCH  20  21
ATOM     21  C76 RES X   1      44.906   7.629  -0.181  1.00  0.14     0.271 C 
ATOM     22  C77 RES X   1      44.290   7.296  -1.556  1.00  0.07     0.099 C 
ATOM     23  C79 RES X   1      42.838   6.859  -1.352  1.00  0.05     0.145 C 
ATOM     24  C82 RES X   1      42.841   5.640  -0.426  1.00  0.05     0.167 C 
ATOM     25  C78 RES X   1      43.518   6.027   0.902  1.00  0.01     0.176 C 
ATOM     26  O87 RES X   1      44.874   6.457   0.659  1.00 -0.27    -0.324 OA
BRANCH  23  27
ATOM     27  O88 RES X   1      42.241   6.522  -2.607  1.00 -0.14    -0.382 OA
ATOM     28  H88 RES X   1      41.565   5.867  -2.484  1.00  0.00     0.210 HD
ENDBRANCH  23  27
BRANCH  24  29
ATOM     29  O90 RES X   1      43.570   4.574  -1.042  1.00 -0.31    -0.380 OA
ATOM     30  H90 RES X   1      44.228   4.252  -0.439  1.00  0.00     0.211 HD
ENDBRANCH  24  29
BRANCH  25  31
ATOM     31  C93 RES X   1      43.518   4.801   1.837  1.00  0.01     0.170 C 
BRANCH  31  32
ATOM     32  O10 RES X   1      44.531   3.887   1.410  1.00 -0.35    -0.380 OA
ATOM     33  H10 RES X   1      45.116   3.697   2.134  1.00  0.00     0.211 HD
ENDBRANCH  31  32
BRANCH  31  34
ATOM     34  C95 RES X   1      42.146   4.110   1.789  1.00 -0.10     0.169 C 
BRANCH  34  35
ATOM     35  O10 RES X   1      42.302   2.770   1.319  1.00 -0.04    -0.380 OA
ATOM     36  H10 RES X   1      42.494   2.196   2.052  1.00  0.00     0.211 HD
ENDBRANCH  34  35
ENDBRANCH  31  34
ENDBRANCH  25  31
BRANCH  21  37
ATOM     37  C92 RES X   1      46.362   8.088  -0.370  1.00  0.15     0.240 C 
ATOM     38  O99 RES X   1      46.654   8.902  -1.283  1.00 -0.32    -0.644 OA
ATOM     39  O98 RES X   1      47.381   7.582   0.496  1.00 -0.51    -0.644 OA
ENDBRANCH  21  37
ENDBRANCH  20  21
ENDBRANCH   7  20
ENDBRANCH   2   3
ENDBRANCH   1   2
BRANCH   1  40
ATOM     40  C29 RES X   1      49.418   9.636   4.064  1.00  0.10     0.178 C 
ATOM     41  C32 RES X   1      50.257  10.472   5.049  1.00  0.12     0.186 C 
ATOM     42  C30 RES X   1      51.625   9.847   5.235  1.00  0.10     0.174 C 
ATOM     43  C27 RES X   1      52.292   9.782   3.866  1.00  0.13     0.263 C 
ATOM     44  C26 RES X   1      51.416   8.899   2.952  1.00  0.12     0.267 C 
ATOM     45  O37 RES X   1      50.104   9.506   2.792  1.00 -0.15    -0.327 OA
BRANCH  41  46
ATOM     46  O39 RES X   1      49.592  10.537   6.311  1.00 -0.20    -0.261 OA
BRANCH  46  47
ATOM     47  P45 RES X   1      49.515  12.038   7.218  1.00  0.46     0.423 P 
ATOM     48  O46 RES X   1      50.879  13.056   6.772  1.00 -0.34    -0.617 OA
ATOM     49  O48 RES X   1      49.577  11.683   8.940  1.00 -1.25    -0.617 OA
ATOM     50  O49 RES X   1      48.007  12.870   6.844  1.00 -0.72    -0.617 OA
ENDBRANCH  46  47
ENDBRANCH  41  46
BRANCH  42  51
ATOM     51  O38 RES X   1      52.405  10.645   6.130  1.00 -0.22    -0.380 OA
ATOM     52  H38 RES X   1      53.291  10.306   6.175  1.00  0.00     0.211 HD
ENDBRANCH  42  51
BRANCH  43  53
ATOM     53  N40 RES X   1      53.631   9.201   4.010  1.00  0.04    -0.059 N 
ATOM     54 3H40 RES X   1      53.853   8.549   3.258  1.00  0.00     0.275 HD
ATOM     55 1H40 RES X   1      53.712   8.772   4.932  1.00  0.00     0.275 HD
ATOM     56 2H40 RES X   1      54.370   9.881   3.833  1.00  0.00     0.275 HD
ENDBRANCH  43  53
BRANCH  44  57
ATOM     57  O36 RES X   1      52.057   8.768   1.670  1.00 -0.14    -0.327 OA
BRANCH  57  58
ATOM     58  C23 RES X   1      52.050  10.025   0.974  1.00  0.09     0.177 C 
BRANCH  58  59
ATOM     59  C2  RES X   1      51.735   9.735  -0.514  1.00  0.08     0.177 C 
ATOM     60  C1  RES X   1      50.550   8.753  -0.573  1.00  0.08     0.169 C 
ATOM     61  C5  RES X   1      50.197   8.492  -2.034  1.00  0.07     0.173 C 
ATOM     62  C4  RES X   1      51.427   7.907  -2.723  1.00  0.11     0.263 C 
ATOM     63  C3  RES X   1      52.601   8.899  -2.584  1.00  0.13     0.278 C 
ATOM     64  O15 RES X   1      52.882   9.154  -1.182  1.00 -0.16    -0.327 OA
BRANCH  60  65
ATOM     65  O13 RES X   1      49.423   9.318   0.099  1.00 -0.16    -0.380 OA
ATOM     66  H13 RES X   1      49.719   9.944   0.750  1.00  0.00     0.211 HD
ENDBRANCH  60  65
BRANCH  61  67
ATOM     67  O12 RES X   1      49.104   7.573  -2.116  1.00 -0.17    -0.380 OA
ATOM     68  H12 RES X   1      48.336   8.010  -2.465  1.00  0.00     0.211 HD
ENDBRANCH  61  67
BRANCH  62  69
ATOM     69  N16 RES X   1      51.133   7.675  -4.148  1.00  0.02    -0.059 N 
ATOM     70 3H16 RES X   1      51.834   8.096  -4.759  1.00  0.00     0.275 HD
ATOM     71 1H16 RES X   1      50.191   8.004  -4.361  1.00  0.00     0.275 HD
ATOM     72 2H16 RES X   1      51.270   6.701  -4.416  1.00  0.00     0.275 HD
ENDBRANCH  62  69
BRANCH  63  73
ATOM     73  O11 RES X   1      53.747   8.326  -3.217  1.00 -0.11    -0.236 OA
BRANCH  73  74
ATOM     74  P18 RES X   1      54.243   9.260  -4.625  1.00  0.29     0.425 P 
ATOM     75  O19 RES X   1      54.884   8.174  -5.848  1.00 -0.22    -0.617 OA
ATOM     76  O21 RES X   1      52.844  10.114  -5.270  1.00 -0.51    -0.617 OA
ATOM     77  O22 RES X   1      55.479  10.427  -4.161  1.00 -0.48    -0.617 OA
ENDBRANCH  73  74
ENDBRANCH  63  73
ENDBRANCH  58  59
ENDBRANCH  57  58
ENDBRANCH  44  57
ENDBRANCH   1  40
TORSDOF 30
ENDMDL
