REMARK AutoDockVina VirtualScreeningResult  Sat Mar  5 21:14:13 2016
USER  AD>  4 of 9 MODELS
USER  AD>  ligand efficiency  -0.2600
USER  AD>  -5.20, 11.049, 14.709
USER  AD> macro_close_ats: 4
USER  AD> hepi:A:TRP217:H
USER  AD> hepi:A:GLY263:H
USER  AD> hepi:A:LEU264:CD1
USER  AD> hepi:A:LEU244:CD1

USER  AD> lig_close_ats: 5
USER  AD> h11_ab7_m4_model1: :LIG1:H,C,C,O,H
MODEL 4
REMARK VINA RESULT:      -5.2     11.049     14.709
REMARK  12 active torsions:
REMARK  status: ('A' for Active; 'I' for Inactive)
REMARK    1  A    between atoms: C_1  and  O_7 
REMARK    2  A    between atoms: C_2  and  O_10 
REMARK    3  A    between atoms: C_3  and  O_11 
REMARK    4  A    between atoms: C_4  and  O_12 
REMARK    5  A    between atoms: C_6  and  C_8 
REMARK    6  A    between atoms: C_8  and  O_9 
REMARK    7  A    between atoms: O_12  and  C_13 
REMARK    8  A    between atoms: C_13  and  C_14 
REMARK    9  A    between atoms: C_15  and  C_16 
REMARK   10  A    between atoms: C_16  and  C_17 
REMARK   11  A    between atoms: C_17  and  C_18 
REMARK   12  A    between atoms: C_18  and  C_19 
ROOT
HETATM    1  C   LIG     1      50.902  11.804   8.533  1.00  0.00     0.180 C 
HETATM    2  C   LIG     1      50.204  10.806   7.611  1.00  0.00     0.183 C 
HETATM    3  C   LIG     1      49.120  11.476   6.754  1.00  0.00     0.204 C 
HETATM    4  C   LIG     1      48.186  12.354   7.628  1.00  0.00     0.291 C 
HETATM    5  O   LIG     1      48.964  13.224   8.475  1.00  0.00    -0.348 OA
HETATM    6  C   LIG     1      49.835  12.523   9.367  1.00  0.00     0.179 C 
ENDROOT
BRANCH   4   7
HETATM    7  O   LIG     1      47.365  13.236   6.859  1.00  0.00    -0.355 OA
BRANCH   7   8
HETATM    8  C   LIG     1      45.966  13.168   7.095  1.00  0.00     0.198 C 
BRANCH   8   9
HETATM    9  C   LIG     1      45.266  12.328   6.070  1.00  0.00    -0.005 C 
HETATM   10  C   LIG     1      45.066  12.719   4.801  1.00  0.00    -0.029 C 
BRANCH  10  11
HETATM   11  C   LIG     1      44.305  11.929   3.774  1.00  0.00     0.027 C 
BRANCH  11  12
HETATM   12  C   LIG     1      45.265  11.282   2.770  1.00  0.00     0.004 C 
BRANCH  12  13
HETATM   13  C   LIG     1      44.700   9.979   2.202  1.00  0.00    -0.000 C 
BRANCH  13  14
HETATM   14  C   LIG     1      45.163   8.773   3.021  1.00  0.00    -0.005 C 
HETATM   15  C   LIG     1      46.606   8.924   3.477  1.00  0.00     0.005 C 
ENDBRANCH  13  14
ENDBRANCH  12  13
ENDBRANCH  11  12
ENDBRANCH  10  11
ENDBRANCH   8   9
ENDBRANCH   7   8
ENDBRANCH   4   7
BRANCH   3  16
HETATM   16  O   LIG     1      48.416  10.422   6.072  1.00  0.00    -0.388 OA
HETATM   17  H   LIG     1      48.821   9.592   6.399  1.00  0.00     0.210 HD
ENDBRANCH   3  16
BRANCH   2  18
HETATM   18  O   LIG     1      51.156  10.188   6.729  1.00  0.00    -0.390 OA
HETATM   19  H   LIG     1      51.096   9.226   6.913  1.00  0.00     0.210 HD
ENDBRANCH   2  18
BRANCH   6  20
HETATM   20  C   LIG     1      50.451  13.531  10.342  1.00  0.00     0.198 C 
BRANCH  20  21
HETATM   21  O   LIG     1      49.434  14.327  10.939  1.00  0.00    -0.398 OA
HETATM   22  H   LIG     1      49.792  14.684  11.770  1.00  0.00     0.209 HD
ENDBRANCH  20  21
ENDBRANCH   6  20
BRANCH   1  23
HETATM   23  O   LIG     1      51.634  12.719   7.696  1.00  0.00    -0.390 OA
HETATM   24  H   LIG     1      51.339  12.571   6.775  1.00  0.00     0.210 HD
ENDBRANCH   1  23
TORSDOF 12
ENDMDL
