REMARK AutoDockVina VirtualScreeningResult  Sat Mar  5 21:14:39 2016
USER  AD>  5 of 9 MODELS
USER  AD>  ligand efficiency  -0.2571
USER  AD>  -5.40,  2.629,  4.871
USER  AD> macro_close_ats: 13
USER  AD> hepi:A:GLY12:H
USER  AD> hepi:A:MET11:CE
USER  AD> hepi:A:LYS192:NZ
USER  AD> hepi:A:GLY263:H
USER  AD> hepi:A:SER10:OG
USER  AD> hepi:A:PHE41:CE1
USER  AD> hepi:A:ASP13:OD1
USER  AD> hepi:A:LYS192:H
USER  AD> hepi:A:ASP13:CG
USER  AD> hepi:A:HIS266:CD2
USER  AD> hepi:A:PHE41:CZ
USER  AD> hepi:A:GLY263:N
USER  AD> hepi:A:HIS266:NE2

USER  AD> lig_close_ats: 10
USER  AD> h11_gb8_m5_model1: :LIG1:C,C,H,O,C,O,C,O,H,H
MODEL 5
REMARK VINA RESULT:      -5.4      2.629      4.871
REMARK  13 active torsions:
REMARK  status: ('A' for Active; 'I' for Inactive)
REMARK    1  A    between atoms: C_1  and  O_21 
REMARK    2  A    between atoms: C_2  and  O_9 
REMARK    3  A    between atoms: C_3  and  O_10 
REMARK    4  A    between atoms: C_4  and  O_11 
REMARK    5  A    between atoms: C_6  and  C_7 
REMARK    6  A    between atoms: C_7  and  O_8 
REMARK    7  A    between atoms: O_11  and  C_12 
REMARK    8  A    between atoms: C_12  and  C_13 
REMARK    9  A    between atoms: C_14  and  C_15 
REMARK   10  A    between atoms: C_15  and  C_16 
REMARK   11  A    between atoms: C_16  and  C_17 
REMARK   12  A    between atoms: C_17  and  C_18 
REMARK   13  A    between atoms: C_18  and  C_19 
ROOT
HETATM    1  C   LIG     1      40.263   3.656   1.459  1.00  0.00     0.180 C 
HETATM    2  C   LIG     1      40.747   5.007   2.007  1.00  0.00     0.183 C 
HETATM    3  C   LIG     1      42.114   5.419   1.444  1.00  0.00     0.204 C 
HETATM    4  C   LIG     1      43.082   4.247   1.693  1.00  0.00     0.291 C 
HETATM    5  O   LIG     1      42.609   3.083   1.022  1.00  0.00    -0.348 OA
HETATM    6  C   LIG     1      41.372   2.593   1.540  1.00  0.00     0.179 C 
ENDROOT
BRANCH   4   7
HETATM    7  O   LIG     1      44.382   4.543   1.187  1.00  0.00    -0.355 OA
BRANCH   7   8
HETATM    8  C   LIG     1      44.311   5.054  -0.139  1.00  0.00     0.198 C 
BRANCH   8   9
HETATM    9  C   LIG     1      45.461   5.975  -0.384  1.00  0.00    -0.005 C 
HETATM   10  C   LIG     1      45.293   7.167  -0.974  1.00  0.00    -0.029 C 
BRANCH  10  11
HETATM   11  C   LIG     1      46.395   8.155  -1.228  1.00  0.00     0.027 C 
BRANCH  11  12
HETATM   12  C   LIG     1      47.532   7.962  -0.220  1.00  0.00     0.004 C 
BRANCH  12  13
HETATM   13  C   LIG     1      47.299   8.755   1.064  1.00  0.00     0.000 C 
BRANCH  13  14
HETATM   14  C   LIG     1      47.404   7.845   2.288  1.00  0.00    -0.000 C 
BRANCH  14  15
HETATM   15  C   LIG     1      46.049   7.656   2.965  1.00  0.00    -0.005 C 
HETATM   16  C   LIG     1      45.124   8.829   2.689  1.00  0.00     0.005 C 
ENDBRANCH  14  15
ENDBRANCH  13  14
ENDBRANCH  12  13
ENDBRANCH  11  12
ENDBRANCH  10  11
ENDBRANCH   8   9
ENDBRANCH   7   8
ENDBRANCH   4   7
BRANCH   3  17
HETATM   17  O   LIG     1      42.566   6.629   2.070  1.00  0.00    -0.388 OA
HETATM   18  H   LIG     1      42.689   7.315   1.392  1.00  0.00     0.210 HD
ENDBRANCH   3  17
BRANCH   2  19
HETATM   19  O   LIG     1      39.738   6.000   1.770  1.00  0.00    -0.390 OA
HETATM   20  H   LIG     1      38.985   5.571   1.322  1.00  0.00     0.210 HD
ENDBRANCH   2  19
BRANCH   6  21
HETATM   21  C   LIG     1      41.023   1.321   0.747  1.00  0.00     0.198 C 
BRANCH  21  22
HETATM   22  O   LIG     1      42.070   0.365   0.671  1.00  0.00    -0.398 OA
HETATM   23  H   LIG     1      42.224   0.143  -0.265  1.00  0.00     0.209 HD
ENDBRANCH  21  22
ENDBRANCH   6  21
BRANCH   1  24
HETATM   24  O   LIG     1      39.135   3.244   2.243  1.00  0.00    -0.390 OA
HETATM   25  H   LIG     1      39.489   2.638   2.926  1.00  0.00     0.210 HD
ENDBRANCH   1  24
TORSDOF 13
ENDMDL
