REMARK AutoDockVina VirtualScreeningResult  Sat Mar  5 21:34:27 2016
USER  AD>  3 of 9 MODELS
USER  AD>  ligand efficiency  -0.4083
USER  AD>  -4.90, 12.029, 12.923
USER  AD> macro_close_ats: 5
USER  AD> hepi:A:HIS266:NE2
USER  AD> hepi:A:LYS192:H
USER  AD> hepi:A:ASP261:OD1
USER  AD> hepi:A:ASP261:CG
USER  AD> hepi:A:GLY263:H

USER  AD> lig_close_ats: 4
USER  AD> h11_ab_m3_model1: :LIG1:O,H,C,H
MODEL 3
REMARK VINA RESULT:      -4.9     12.029     12.923
REMARK  6 active torsions:
REMARK  status: ('A' for Active; 'I' for Inactive)
REMARK    1  A    between atoms: C_1  and  O_7 
REMARK    2  A    between atoms: C_2  and  O_10 
REMARK    3  A    between atoms: C_3  and  O_12 
REMARK    4  A    between atoms: C_4  and  O_11 
REMARK    5  A    between atoms: C_6  and  C_8 
REMARK    6  A    between atoms: C_8  and  O_9 
ROOT
HETATM    1  C   LIG     1      41.347   5.460   0.788  1.00  0.00     0.180 C 
HETATM    2  C   LIG     1      39.966   4.846   1.054  1.00  0.00     0.183 C 
HETATM    3  C   LIG     1      40.100   3.494   1.761  1.00  0.00     0.204 C 
HETATM    4  C   LIG     1      41.092   2.589   1.000  1.00  0.00     0.288 C 
HETATM    5  O   LIG     1      42.342   3.260   0.824  1.00  0.00    -0.349 OA
HETATM    6  C   LIG     1      42.207   4.442   0.020  1.00  0.00     0.179 C 
ENDROOT
BRANCH   6   7
HETATM    7  C   LIG     1      43.604   4.980  -0.300  1.00  0.00     0.198 C 
BRANCH   7   8
HETATM    8  O   LIG     1      44.545   4.554   0.679  1.00  0.00    -0.398 OA
HETATM    9  H   LIG     1      44.148   4.708   1.555  1.00  0.00     0.209 HD
ENDBRANCH   7   8
ENDBRANCH   6   7
BRANCH   1  10
HETATM   10  O   LIG     1      41.920   5.783   2.069  1.00  0.00    -0.390 OA
HETATM   11  H   LIG     1      42.582   6.489   1.927  1.00  0.00     0.210 HD
ENDBRANCH   1  10
BRANCH   2  12
HETATM   12  O   LIG     1      39.180   5.714   1.885  1.00  0.00    -0.390 OA
HETATM   13  H   LIG     1      38.692   5.122   2.495  1.00  0.00     0.210 HD
ENDBRANCH   2  12
BRANCH   4  14
HETATM   14  O   LIG     1      41.324   1.392   1.732  1.00  0.00    -0.369 OA
HETATM   15  H   LIG     1      41.825   0.799   1.141  1.00  0.00     0.212 HD
ENDBRANCH   4  14
BRANCH   3  16
HETATM   16  O   LIG     1      38.818   2.862   1.868  1.00  0.00    -0.388 OA
HETATM   17  H   LIG     1      38.216   3.401   1.315  1.00  0.00     0.210 HD
ENDBRANCH   3  16
TORSDOF 6
ENDMDL
