REMARK AutoDockVina VirtualScreeningResult  Sat Mar  5 21:14:39 2016
USER  AD>  4 of 9 MODELS
USER  AD>  ligand efficiency  -0.2619
USER  AD>  -5.50,  2.459,  3.857
USER  AD> macro_close_ats: 12
USER  AD> hepi:A:MET11:CB
USER  AD> hepi:A:VAL247:CB
USER  AD> hepi:A:LYS192:H
USER  AD> hepi:A:THR262:H
USER  AD> hepi:A:LEU264:CD1
USER  AD> hepi:A:MET11:H
USER  AD> hepi:A:THR188:H
USER  AD> hepi:A:GLY263:H
USER  AD> hepi:A:MET242:CG
USER  AD> hepi:A:GLY263:N
USER  AD> hepi:A:THR262:CA
USER  AD> hepi:A:MET11:CE

USER  AD> lig_close_ats: 12
USER  AD> h11_gb8_m4_model1: :LIG1:O,C,C,C,C,O,H,C,O,H,H,O
MODEL 4
REMARK VINA RESULT:      -5.5      2.459      3.857
REMARK  13 active torsions:
REMARK  status: ('A' for Active; 'I' for Inactive)
REMARK    1  A    between atoms: C_1  and  O_21 
REMARK    2  A    between atoms: C_2  and  O_9 
REMARK    3  A    between atoms: C_3  and  O_10 
REMARK    4  A    between atoms: C_4  and  O_11 
REMARK    5  A    between atoms: C_6  and  C_7 
REMARK    6  A    between atoms: C_7  and  O_8 
REMARK    7  A    between atoms: O_11  and  C_12 
REMARK    8  A    between atoms: C_12  and  C_13 
REMARK    9  A    between atoms: C_14  and  C_15 
REMARK   10  A    between atoms: C_15  and  C_16 
REMARK   11  A    between atoms: C_16  and  C_17 
REMARK   12  A    between atoms: C_17  and  C_18 
REMARK   13  A    between atoms: C_18  and  C_19 
ROOT
HETATM    1  C   LIG     1      43.782   6.506   0.752  1.00  0.00     0.180 C 
HETATM    2  C   LIG     1      45.303   6.629   0.930  1.00  0.00     0.183 C 
HETATM    3  C   LIG     1      45.702   7.028   2.357  1.00  0.00     0.204 C 
HETATM    4  C   LIG     1      44.915   8.302   2.713  1.00  0.00     0.291 C 
HETATM    5  O   LIG     1      43.517   8.034   2.654  1.00  0.00    -0.348 OA
HETATM    6  C   LIG     1      43.053   7.727   1.339  1.00  0.00     0.179 C 
ENDROOT
BRANCH   4   7
HETATM    7  O   LIG     1      45.219   8.737   4.036  1.00  0.00    -0.355 OA
BRANCH   7   8
HETATM    8  C   LIG     1      45.570  10.116   4.053  1.00  0.00     0.198 C 
BRANCH   8   9
HETATM    9  C   LIG     1      46.650  10.346   5.061  1.00  0.00    -0.005 C 
HETATM   10  C   LIG     1      47.022  11.582   5.420  1.00  0.00    -0.029 C 
BRANCH  10  11
HETATM   11  C   LIG     1      48.079  11.890   6.442  1.00  0.00     0.027 C 
BRANCH  11  12
HETATM   12  C   LIG     1      49.053  10.716   6.577  1.00  0.00     0.004 C 
BRANCH  12  13
HETATM   13  C   LIG     1      49.848  10.779   7.879  1.00  0.00     0.000 C 
BRANCH  13  14
HETATM   14  C   LIG     1      49.345  11.919   8.765  1.00  0.00    -0.000 C 
BRANCH  14  15
HETATM   15  C   LIG     1      50.434  12.959   9.014  1.00  0.00    -0.005 C 
HETATM   16  C   LIG     1      50.405  13.458  10.450  1.00  0.00     0.005 C 
ENDBRANCH  14  15
ENDBRANCH  13  14
ENDBRANCH  12  13
ENDBRANCH  11  12
ENDBRANCH  10  11
ENDBRANCH   8   9
ENDBRANCH   7   8
ENDBRANCH   4   7
BRANCH   3  17
HETATM   17  O   LIG     1      47.121   7.234   2.438  1.00  0.00    -0.388 OA
HETATM   18  H   LIG     1      47.514   6.544   2.999  1.00  0.00     0.210 HD
ENDBRANCH   3  17
BRANCH   2  19
HETATM   19  O   LIG     1      45.926   5.406   0.510  1.00  0.00    -0.390 OA
HETATM   20  H   LIG     1      45.293   4.915  -0.046  1.00  0.00     0.210 HD
ENDBRANCH   2  19
BRANCH   6  21
HETATM   21  C   LIG     1      41.532   7.510   1.436  1.00  0.00     0.198 C 
BRANCH  21  22
HETATM   22  O   LIG     1      40.789   8.672   1.773  1.00  0.00    -0.398 OA
HETATM   23  H   LIG     1      41.411   9.379   2.024  1.00  0.00     0.209 HD
ENDBRANCH  21  22
ENDBRANCH   6  21
BRANCH   1  24
HETATM   24  O   LIG     1      43.512   6.406  -0.653  1.00  0.00    -0.390 OA
HETATM   25  H   LIG     1      42.835   5.704  -0.747  1.00  0.00     0.210 HD
ENDBRANCH   1  24
TORSDOF 13
ENDMDL
