REMARK AutoDockVina VirtualScreeningResult  Sat Mar  5 21:14:42 2016
USER  AD>  7 of 9 MODELS
USER  AD>  ligand efficiency  -0.2476
USER  AD>  -5.20,  3.426,  7.810
USER  AD> macro_close_ats: 15
USER  AD> hepi:A:ILE287:CD1
USER  AD> hepi:A:GLY263:N
USER  AD> hepi:A:THR187:CB
USER  AD> hepi:A:LYS192:H
USER  AD> hepi:A:SER10:OG
USER  AD> hepi:A:GLY12:H
USER  AD> hepi:A:THR188:CG2
USER  AD> hepi:A:THR188:H
USER  AD> hepi:A:MET11:H
USER  AD> hepi:A:THR187:OG1
USER  AD> hepi:A:SER10:CA
USER  AD> hepi:A:GLY263:H
USER  AD> hepi:A:LYS192:H
USER  AD> hepi:A:THR262:CA
USER  AD> hepi:A:SER10:H

USER  AD> lig_close_ats: 12
USER  AD> h11_gb8y_m7_model1: :LIG1:O,C,O,C,C,H,C,C,H,C,C,O
MODEL 7
REMARK VINA RESULT:      -5.2      3.426      7.810
REMARK  14 active torsions:
REMARK  status: ('A' for Active; 'I' for Inactive)
REMARK    1  A    between atoms: C_1  and  O_21 
REMARK    2  A    between atoms: C_2  and  O_9 
REMARK    3  A    between atoms: C_3  and  O_10 
REMARK    4  A    between atoms: C_4  and  O_11 
REMARK    5  A    between atoms: C_6  and  C_7 
REMARK    6  A    between atoms: C_7  and  O_8 
REMARK    7  A    between atoms: O_11  and  C_12 
REMARK    8  A    between atoms: C_12  and  C_13 
REMARK    9  A    between atoms: C_13  and  C_14 
REMARK   10  A    between atoms: C_14  and  C_15 
REMARK   11  A    between atoms: C_15  and  C_16 
REMARK   12  A    between atoms: C_16  and  C_17 
REMARK   13  A    between atoms: C_17  and  C_18 
REMARK   14  A    between atoms: C_18  and  C_19 
ROOT
HETATM    1  C   LIG     1      43.360   6.576   1.131  1.00  0.00     0.180 C 
HETATM    2  C   LIG     1      43.677   5.150   1.573  1.00  0.00     0.183 C 
HETATM    3  C   LIG     1      42.482   4.215   1.359  1.00  0.00     0.204 C 
HETATM    4  C   LIG     1      41.263   4.837   2.068  1.00  0.00     0.291 C 
HETATM    5  O   LIG     1      40.976   6.114   1.498  1.00  0.00    -0.348 OA
HETATM    6  C   LIG     1      42.023   7.063   1.715  1.00  0.00     0.179 C 
ENDROOT
BRANCH   4   7
HETATM    7  O   LIG     1      40.116   3.997   1.924  1.00  0.00    -0.359 OA
BRANCH   7   8
HETATM    8  C   LIG     1      39.310   4.433   0.831  1.00  0.00     0.171 C 
BRANCH   8   9
HETATM    9  C   LIG     1      38.657   3.253   0.120  1.00  0.00     0.026 C 
BRANCH   9  10
HETATM   10  C   LIG     1      38.699   3.488  -1.390  1.00  0.00     0.002 C 
BRANCH  10  11
HETATM   11  C   LIG     1      37.323   3.418  -2.051  1.00  0.00     0.000 C 
BRANCH  11  12
HETATM   12  C   LIG     1      37.048   4.713  -2.820  1.00  0.00     0.000 C 
BRANCH  12  13
HETATM   13  C   LIG     1      37.278   5.957  -1.963  1.00  0.00     0.000 C 
BRANCH  13  14
HETATM   14  C   LIG     1      37.792   7.117  -2.817  1.00  0.00    -0.000 C 
BRANCH  14  15
HETATM   15  C   LIG     1      39.233   6.889  -3.268  1.00  0.00    -0.005 C 
HETATM   16  C   LIG     1      40.197   6.951  -2.094  1.00  0.00     0.005 C 
ENDBRANCH  14  15
ENDBRANCH  13  14
ENDBRANCH  12  13
ENDBRANCH  11  12
ENDBRANCH  10  11
ENDBRANCH   9  10
ENDBRANCH   8   9
ENDBRANCH   7   8
ENDBRANCH   4   7
BRANCH   3  17
HETATM   17  O   LIG     1      42.850   2.917   1.856  1.00  0.00    -0.388 OA
HETATM   18  H   LIG     1      42.397   2.240   1.328  1.00  0.00     0.210 HD
ENDBRANCH   3  17
BRANCH   2  19
HETATM   19  O   LIG     1      44.827   4.698   0.841  1.00  0.00    -0.390 OA
HETATM   20  H   LIG     1      44.718   3.732   0.722  1.00  0.00     0.210 HD
ENDBRANCH   2  19
BRANCH   6  21
HETATM   21  C   LIG     1      41.627   8.400   1.065  1.00  0.00     0.198 C 
BRANCH  21  22
HETATM   22  O   LIG     1      41.874   9.503   1.931  1.00  0.00    -0.398 OA
HETATM   23  H   LIG     1      41.002   9.881   2.176  1.00  0.00     0.209 HD
ENDBRANCH  21  22
ENDBRANCH   6  21
BRANCH   1  24
HETATM   24  O   LIG     1      44.424   7.448   1.539  1.00  0.00    -0.390 OA
HETATM   25  H   LIG     1      45.245   7.027   1.204  1.00  0.00     0.210 HD
ENDBRANCH   1  24
TORSDOF 14
ENDMDL
