REMARK AutoDockVina VirtualScreeningResult  Sat Mar  5 21:14:00 2016
USER  AD>  9 of 9 MODELS
USER  AD>  ligand efficiency  -0.1180
USER  AD>  -7.20, 11.858, 16.887
USER  AD> macro_close_ats: 11
USER  AD> hepi:A:GLY263:N
USER  AD> hepi:A:GLY263:CA
USER  AD> hepi:A:ALA219:CB
USER  AD> hepi:A:THR262:H
USER  AD> hepi:A:GLY40:O
USER  AD> hepi:A:ARG60:H
USER  AD> hepi:A:GLY218:C
USER  AD> hepi:A:THR188:CB
USER  AD> hepi:A:ARG61:H
USER  AD> hepi:A:GLY263:H
USER  AD> hepi:A:THR187:C

USER  AD> lig_close_ats: 12
USER  AD> h11_fdla_m9_model1:X:RES1:O62,O19,O74,C82,C66,N40,H10,H401,C78,C77,C93,O21
MODEL 9
REMARK VINA RESULT:      -7.2     11.858     16.887
REMARK  30 active torsions:
REMARK  status: ('A' for Active; 'I' for Inactive)
REMARK    1  A    between atoms: C42_1  and  O60_2 
REMARK    2  A    between atoms: C42_1  and  C29_40 
REMARK    3  A    between atoms: O60_2  and  C50_3 
REMARK    4  A    between atoms: C50_3  and  C69_37 
REMARK    5  A    between atoms: C53_5  and  O86_9 
REMARK    6  A    between atoms: C56_6  and  O62_29 
REMARK    7  A    between atoms: C52_7  and  C64_31 
REMARK    8  A    between atoms: O86_9  and  C76_10 
REMARK    9  A    between atoms: C76_10  and  C92_16 
REMARK   10  A    between atoms: C78_12  and  C93_19 
REMARK   11  A    between atoms: C82_13  and  O90_25 
REMARK   12  A    between atoms: C79_14  and  O88_27 
REMARK   13  A    between atoms: C93_19  and  O10_20 
REMARK   14  A    between atoms: C93_19  and  C95_22 
REMARK   15  A    between atoms: C95_22  and  O10_23 
REMARK   16  A    between atoms: C64_31  and  O72_35 
REMARK   17  A    between atoms: C64_31  and  C66_32 
REMARK   18  A    between atoms: C66_32  and  O74_33 
REMARK   19  A    between atoms: C32_41  and  O39_46 
REMARK   20  A    between atoms: C30_42  and  O38_51 
REMARK   21  A    between atoms: C27_43  and  N40_53 
REMARK   22  A    between atoms: C26_44  and  O36_57 
REMARK   23  A    between atoms: O39_46  and  P45_47 
REMARK   24  A    between atoms: O36_57  and  C23_58 
REMARK   25  A    between atoms: C23_58  and  C2_59 
REMARK   26  A    between atoms: C3_61  and  O11_65 
REMARK   27  A    between atoms: C4_62  and  N16_70 
REMARK   28  A    between atoms: C5_63  and  O12_74 
REMARK   29  A    between atoms: C1_64  and  O13_76 
REMARK   30  A    between atoms: O11_65  and  P18_66 
ROOT
ATOM      1  C42 RES X   1      47.844  11.420   4.115  1.00  0.13     0.177 C 
ENDROOT
BRANCH   1   2
ATOM      2  O60 RES X   1      46.718  11.021   3.337  1.00 -0.19    -0.324 OA
BRANCH   2   3
ATOM      3  C50 RES X   1      45.588  11.846   3.609  1.00  0.15     0.271 C 
ATOM      4  O61 RES X   1      45.815  13.181   3.133  1.00 -0.16    -0.324 OA
ATOM      5  C52 RES X   1      46.136  13.216   1.746  1.00  0.06     0.176 C 
ATOM      6  C56 RES X   1      44.965  12.650   0.924  1.00  0.04     0.168 C 
ATOM      7  C53 RES X   1      44.708  11.205   1.368  1.00  0.05     0.153 C 
ATOM      8  C51 RES X   1      44.375  11.225   2.878  1.00  0.06     0.100 C 
BRANCH   3   9
ATOM      9  C69 RES X   1      45.346  11.919   5.129  1.00  0.20     0.240 C 
ATOM     10  O71 RES X   1      44.942  10.747   5.835  1.00 -0.82    -0.644 OA
ATOM     11  O70 RES X   1      45.503  13.008   5.747  1.00 -0.59    -0.644 OA
ENDBRANCH   3   9
BRANCH   5  12
ATOM     12  C64 RES X   1      46.395  14.677   1.341  1.00  0.03     0.170 C 
BRANCH  12  13
ATOM     13  O72 RES X   1      46.233  14.811  -0.074  1.00 -0.08    -0.380 OA
ATOM     14  H72 RES X   1      45.744  14.067  -0.406  1.00  0.00     0.211 HD
ENDBRANCH  12  13
BRANCH  12  15
ATOM     15  C66 RES X   1      47.833  15.064   1.728  1.00 -0.03     0.169 C 
BRANCH  15  16
ATOM     16  O74 RES X   1      47.969  15.045   3.153  1.00  0.30    -0.380 OA
ATOM     17  H74 RES X   1      47.671  14.209   3.491  1.00  0.00     0.211 HD
ENDBRANCH  15  16
ENDBRANCH  12  15
ENDBRANCH   5  12
BRANCH   6  18
ATOM     18  O62 RES X   1      43.760  13.374   1.200  1.00 -0.09    -0.380 OA
ATOM     19  H62 RES X   1      43.767  14.216   0.759  1.00  0.00     0.211 HD
ENDBRANCH   6  18
BRANCH   7  20
ATOM     20  O86 RES X   1      43.637  10.642   0.601  1.00 -0.07    -0.327 OA
BRANCH  20  21
ATOM     21  C76 RES X   1      44.122   9.518  -0.139  1.00  0.14     0.271 C 
ATOM     22  C77 RES X   1      42.926   8.633  -0.547  1.00  0.07     0.099 C 
ATOM     23  C79 RES X   1      42.198   8.174   0.718  1.00  0.05     0.145 C 
ATOM     24  C82 RES X   1      43.199   7.404   1.581  1.00  0.05     0.167 C 
ATOM     25  C78 RES X   1      44.389   8.325   1.904  1.00  0.01     0.176 C 
ATOM     26  O87 RES X   1      45.029   8.755   0.684  1.00 -0.27    -0.324 OA
BRANCH  23  27
ATOM     27  O88 RES X   1      41.093   7.334   0.375  1.00 -0.14    -0.382 OA
ATOM     28  H88 RES X   1      41.394   6.450   0.202  1.00  0.00     0.210 HD
ENDBRANCH  23  27
BRANCH  24  29
ATOM     29  O90 RES X   1      43.663   6.256   0.864  1.00 -0.31    -0.380 OA
ATOM     30  H90 RES X   1      44.596   6.338   0.705  1.00  0.00     0.211 HD
ENDBRANCH  24  29
BRANCH  25  31
ATOM     31  C93 RES X   1      45.396   7.551   2.778  1.00  0.01     0.170 C 
BRANCH  31  32
ATOM     32  O10 RES X   1      45.559   8.234   4.023  1.00 -0.35    -0.380 OA
ATOM     33  H10 RES X   1      44.764   8.155   4.537  1.00  0.00     0.211 HD
ENDBRANCH  31  32
BRANCH  31  34
ATOM     34  C95 RES X   1      46.750   7.462   2.057  1.00 -0.10     0.169 C 
BRANCH  34  35
ATOM     35  O10 RES X   1      46.678   6.479   1.023  1.00 -0.04    -0.380 OA
ATOM     36  H10 RES X   1      45.924   6.652   0.471  1.00  0.00     0.211 HD
ENDBRANCH  34  35
ENDBRANCH  31  34
ENDBRANCH  25  31
BRANCH  21  37
ATOM     37  C92 RES X   1      44.855  10.004  -1.400  1.00  0.15     0.240 C 
ATOM     38  O99 RES X   1      44.218  10.573  -2.322  1.00 -0.32    -0.644 OA
ATOM     39  O98 RES X   1      46.266   9.800  -1.521  1.00 -0.51    -0.644 OA
ENDBRANCH  21  37
ENDBRANCH  20  21
ENDBRANCH   7  20
ENDBRANCH   2   3
ENDBRANCH   1   2
BRANCH   1  40
ATOM     40  C29 RES X   1      48.971  10.366   4.183  1.00  0.10     0.178 C 
ATOM     41  C32 RES X   1      50.026  10.956   5.137  1.00  0.12     0.186 C 
ATOM     42  C30 RES X   1      51.219  10.027   5.240  1.00  0.10     0.174 C 
ATOM     43  C27 RES X   1      51.787   9.851   3.837  1.00  0.13     0.263 C 
ATOM     44  C26 RES X   1      50.688   9.221   2.955  1.00  0.12     0.267 C 
ATOM     45  O37 RES X   1      49.547  10.119   2.874  1.00 -0.15    -0.327 OA
BRANCH  41  46
ATOM     46  O39 RES X   1      49.455  11.136   6.434  1.00 -0.20    -0.261 OA
BRANCH  46  47
ATOM     47  P45 RES X   1      50.128  12.294   7.568  1.00  0.46     0.423 P 
ATOM     48  O46 RES X   1      51.020  11.432   8.815  1.00 -0.34    -0.617 OA
ATOM     49  O48 RES X   1      48.823  13.218   8.303  1.00 -1.25    -0.617 OA
ATOM     50  O49 RES X   1      51.212  13.388   6.712  1.00 -0.72    -0.617 OA
ENDBRANCH  46  47
ENDBRANCH  41  46
BRANCH  42  51
ATOM     51  O38 RES X   1      52.204  10.596   6.107  1.00 -0.22    -0.380 OA
ATOM     52  H38 RES X   1      52.193  11.543   6.030  1.00  0.00     0.211 HD
ENDBRANCH  42  51
BRANCH  43  53
ATOM     53  N40 RES X   1      52.960   8.972   3.899  1.00  0.04    -0.059 N 
ATOM     54 3H40 RES X   1      53.662   9.213   3.199  1.00  0.00     0.275 HD
ATOM     55 1H40 RES X   1      52.656   8.001   3.824  1.00  0.00     0.275 HD
ATOM     56 2H40 RES X   1      53.525   9.137   4.732  1.00  0.00     0.275 HD
ENDBRANCH  43  53
BRANCH  44  57
ATOM     57  O36 RES X   1      51.220   8.984   1.638  1.00 -0.14    -0.327 OA
BRANCH  57  58
ATOM     58  C23 RES X   1      51.291  10.212   0.896  1.00  0.09     0.177 C 
BRANCH  58  59
ATOM     59  C2  RES X   1      50.951   9.887  -0.580  1.00  0.08     0.177 C 
ATOM     60  C1  RES X   1      49.778   8.890  -0.596  1.00  0.08     0.169 C 
ATOM     61  C5  RES X   1      49.401   8.595  -2.044  1.00  0.07     0.173 C 
ATOM     62  C4  RES X   1      50.626   8.012  -2.745  1.00  0.11     0.263 C 
ATOM     63  C3  RES X   1      51.789   9.020  -2.649  1.00  0.13     0.278 C 
ATOM     64  O15 RES X   1      52.093   9.308  -1.258  1.00 -0.16    -0.327 OA
BRANCH  60  65
ATOM     65  O13 RES X   1      48.657   9.455   0.086  1.00 -0.16    -0.380 OA
ATOM     66  H13 RES X   1      48.865  10.338   0.368  1.00  0.00     0.211 HD
ENDBRANCH  60  65
BRANCH  61  67
ATOM     67  O12 RES X   1      48.319   7.662  -2.088  1.00 -0.17    -0.380 OA
ATOM     68  H12 RES X   1      47.571   8.049  -2.526  1.00  0.00     0.211 HD
ENDBRANCH  61  67
BRANCH  62  69
ATOM     69  N16 RES X   1      50.307   7.747  -4.159  1.00  0.02    -0.059 N 
ATOM     70 3H16 RES X   1      49.567   7.053  -4.264  1.00  0.00     0.275 HD
ATOM     71 1H16 RES X   1      51.157   7.481  -4.658  1.00  0.00     0.275 HD
ATOM     72 2H16 RES X   1      49.833   8.535  -4.601  1.00  0.00     0.275 HD
ENDBRANCH  62  69
BRANCH  63  73
ATOM     73  O11 RES X   1      52.930   8.448  -3.292  1.00 -0.11    -0.236 OA
BRANCH  73  74
ATOM     74  P18 RES X   1      53.435   9.404  -4.682  1.00  0.29     0.425 P 
ATOM     75  O19 RES X   1      54.332   8.383  -5.796  1.00 -0.22    -0.617 OA
ATOM     76  O21 RES X   1      52.007  10.045  -5.489  1.00 -0.51    -0.617 OA
ATOM     77  O22 RES X   1      54.455  10.738  -4.149  1.00 -0.48    -0.617 OA
ENDBRANCH  73  74
ENDBRANCH  63  73
ENDBRANCH  58  59
ENDBRANCH  57  58
ENDBRANCH  44  57
ENDBRANCH   1  40
TORSDOF 30
ENDMDL
