REMARK AutoDockVina VirtualScreeningResult  Sat Mar  5 21:14:07 2016
USER  AD>  7 of 9 MODELS
USER  AD>  ligand efficiency  -0.3615
USER  AD>  -4.70,  8.704, 10.869
USER  AD> macro_close_ats: 12
USER  AD> hepi:A:THR144:OG1
USER  AD> hepi:A:LYS7:NZ
USER  AD> hepi:A:ARG143:H
USER  AD> hepi:A:ARG120:CB
USER  AD> hepi:A:ARG120:CA
USER  AD> hepi:A:ALA140:CB
USER  AD> hepi:A:ARG143:H
USER  AD> hepi:A:ASP13:CG
USER  AD> hepi:A:LYS7:H
USER  AD> hepi:A:ASP13:CB
USER  AD> hepi:A:ARG143:NH1
USER  AD> hepi:A:LYS7:H

USER  AD> lig_close_ats: 10
USER  AD> h11_abm_m7_model1: :LIG1:H,O,C,H,C,H,O,C,C,O
MODEL 7
REMARK VINA RESULT:      -4.7      8.704     10.869
REMARK  6 active torsions:
REMARK  status: ('A' for Active; 'I' for Inactive)
REMARK    1  A    between atoms: C_1  and  O_7 
REMARK    2  A    between atoms: C_2  and  O_10 
REMARK    3  A    between atoms: C_3  and  O_12 
REMARK    4  A    between atoms: C_4  and  O_11 
REMARK    5  A    between atoms: C_6  and  C_8 
REMARK    6  A    between atoms: C_8  and  O_9 
ROOT
HETATM    1  C   LIG     1      43.111  -8.103  -2.493  1.00  0.00     0.180 C 
HETATM    2  C   LIG     1      43.541  -7.201  -1.336  1.00  0.00     0.183 C 
HETATM    3  C   LIG     1      42.720  -5.908  -1.297  1.00  0.00     0.204 C 
HETATM    4  C   LIG     1      42.669  -5.249  -2.692  1.00  0.00     0.290 C 
HETATM    5  O   LIG     1      42.292  -6.184  -3.713  1.00  0.00    -0.349 OA
HETATM    6  C   LIG     1      43.189  -7.300  -3.801  1.00  0.00     0.179 C 
ENDROOT
BRANCH   6   7
HETATM    7  C   LIG     1      42.806  -8.148  -5.018  1.00  0.00     0.198 C 
BRANCH   7   8
HETATM    8  O   LIG     1      41.401  -8.118  -5.234  1.00  0.00    -0.398 OA
HETATM    9  H   LIG     1      41.247  -7.785  -6.138  1.00  0.00     0.209 HD
ENDBRANCH   7   8
ENDBRANCH   6   7
BRANCH   1  10
HETATM   10  O   LIG     1      41.769  -8.548  -2.220  1.00  0.00    -0.390 OA
HETATM   11  H   LIG     1      41.479  -8.118  -1.391  1.00  0.00     0.210 HD
ENDBRANCH   1  10
BRANCH   2  12
HETATM   12  O   LIG     1      43.376  -7.885  -0.082  1.00  0.00    -0.390 OA
HETATM   13  H   LIG     1      44.146  -7.619   0.464  1.00  0.00     0.210 HD
ENDBRANCH   2  12
BRANCH   4  14
HETATM   14  O   LIG     1      41.686  -4.211  -2.650  1.00  0.00    -0.363 OA
HETATM   15  C   LIG     1      40.401  -4.704  -2.307  1.00  0.00     0.204 C 
ENDBRANCH   4  14
BRANCH   3  16
HETATM   16  O   LIG     1      43.318  -5.027  -0.331  1.00  0.00    -0.388 OA
HETATM   17  H   LIG     1      44.127  -4.685  -0.760  1.00  0.00     0.210 HD
ENDBRANCH   3  16
TORSDOF 6
ENDMDL
