REMARK AutoDockVina VirtualScreeningResult  Sat Mar  5 21:34:27 2016
USER  AD>  4 of 9 MODELS
USER  AD>  ligand efficiency  -0.4000
USER  AD>  -4.80, 11.865, 12.811
USER  AD> macro_close_ats: 13
USER  AD> hepi:A:LYS192:H
USER  AD> hepi:A:HIS266:NE2
USER  AD> hepi:A:ASP261:CG
USER  AD> hepi:A:GLY263:CA
USER  AD> hepi:A:MET11:H
USER  AD> hepi:A:GLY12:H
USER  AD> hepi:A:MET11:N
USER  AD> hepi:A:HIS266:CD2
USER  AD> hepi:A:LYS192:H
USER  AD> hepi:A:ILE287:CD1
USER  AD> hepi:A:SER10:H
USER  AD> hepi:A:SER10:OG
USER  AD> hepi:A:LYS192:NZ

USER  AD> lig_close_ats: 9
USER  AD> h11_ab_m4_model1: :LIG1:C,H,C,H,O,H,O,C,H
MODEL 4
REMARK VINA RESULT:      -4.8     11.865     12.811
REMARK  6 active torsions:
REMARK  status: ('A' for Active; 'I' for Inactive)
REMARK    1  A    between atoms: C_1  and  O_7 
REMARK    2  A    between atoms: C_2  and  O_10 
REMARK    3  A    between atoms: C_3  and  O_12 
REMARK    4  A    between atoms: C_4  and  O_11 
REMARK    5  A    between atoms: C_6  and  C_8 
REMARK    6  A    between atoms: C_8  and  O_9 
ROOT
HETATM    1  C   LIG     1      42.245   3.122   1.092  1.00  0.00     0.180 C 
HETATM    2  C   LIG     1      40.922   2.458   1.496  1.00  0.00     0.183 C 
HETATM    3  C   LIG     1      39.762   3.453   1.397  1.00  0.00     0.204 C 
HETATM    4  C   LIG     1      40.107   4.753   2.152  1.00  0.00     0.288 C 
HETATM    5  O   LIG     1      41.348   5.286   1.684  1.00  0.00    -0.349 OA
HETATM    6  C   LIG     1      42.444   4.393   1.936  1.00  0.00     0.179 C 
ENDROOT
BRANCH   6   7
HETATM    7  C   LIG     1      43.752   5.116   1.607  1.00  0.00     0.198 C 
BRANCH   7   8
HETATM    8  O   LIG     1      44.763   4.185   1.238  1.00  0.00    -0.398 OA
HETATM    9  H   LIG     1      44.333   3.323   1.099  1.00  0.00     0.209 HD
ENDBRANCH   7   8
ENDBRANCH   6   7
BRANCH   1  10
HETATM   10  O   LIG     1      42.153   3.427  -0.313  1.00  0.00    -0.390 OA
HETATM   11  H   LIG     1      42.993   3.852  -0.578  1.00  0.00     0.210 HD
ENDBRANCH   1  10
BRANCH   2  12
HETATM   12  O   LIG     1      40.636   1.343   0.636  1.00  0.00    -0.390 OA
HETATM   13  H   LIG     1      40.915   1.625  -0.260  1.00  0.00     0.210 HD
ENDBRANCH   2  12
BRANCH   4  14
HETATM   14  O   LIG     1      39.092   5.726   1.942  1.00  0.00    -0.369 OA
HETATM   15  H   LIG     1      39.159   5.999   1.008  1.00  0.00     0.212 HD
ENDBRANCH   4  14
BRANCH   3  16
HETATM   16  O   LIG     1      38.562   2.867   1.919  1.00  0.00    -0.388 OA
HETATM   17  H   LIG     1      37.876   3.033   1.240  1.00  0.00     0.210 HD
ENDBRANCH   3  16
TORSDOF 6
ENDMDL
