REMARK AutoDockVina VirtualScreeningResult  Sat Mar  5 21:34:53 2016
USER  AD>  4 of 9 MODELS
USER  AD>  ligand efficiency  -0.3769
USER  AD>  -4.90, 11.160, 13.474
USER  AD> macro_close_ats: 12
USER  AD> hepi:A:LYS192:H
USER  AD> hepi:A:MET11:H
USER  AD> hepi:A:ASP261:CG
USER  AD> hepi:A:GLY12:H
USER  AD> hepi:A:LYS192:H
USER  AD> hepi:A:MET11:N
USER  AD> hepi:A:THR262:CA
USER  AD> hepi:A:LYS192:H
USER  AD> hepi:A:ASP261:OD1
USER  AD> hepi:A:GLY263:H
USER  AD> hepi:A:LYS192:NZ
USER  AD> hepi:A:SER10:CA

USER  AD> lig_close_ats: 10
USER  AD> h11_gbm_m4_model1: :LIG1:O,H,O,H,C,O,C,H,O,C
MODEL 4
REMARK VINA RESULT:      -4.9     11.160     13.474
REMARK  6 active torsions:
REMARK  status: ('A' for Active; 'I' for Inactive)
REMARK    1  A    between atoms: C_1  and  O_13 
REMARK    2  A    between atoms: C_2  and  O_9 
REMARK    3  A    between atoms: C_3  and  O_11 
REMARK    4  A    between atoms: C_4  and  O_10 
REMARK    5  A    between atoms: C_6  and  C_7 
REMARK    6  A    between atoms: C_7  and  O_8 
ROOT
HETATM    1  C   LIG L   1      40.324   5.329   1.254  1.00  0.00     0.180 C 
HETATM    2  C   LIG L   1      41.304   6.403   1.733  1.00  0.00     0.183 C 
HETATM    3  C   LIG L   1      42.734   6.078   1.310  1.00  0.00     0.204 C 
HETATM    4  C   LIG L   1      43.080   4.631   1.722  1.00  0.00     0.290 C 
HETATM    5  O   LIG L   1      42.139   3.699   1.192  1.00  0.00    -0.349 OA
HETATM    6  C   LIG L   1      40.815   3.937   1.689  1.00  0.00     0.179 C 
ENDROOT
BRANCH   6   7
HETATM    7  C   LIG L   1      39.876   2.837   1.174  1.00  0.00     0.198 C 
BRANCH   7   8
HETATM    8  O   LIG L   1      38.767   2.631   2.043  1.00  0.00    -0.398 OA
HETATM    9  H   LIG L   1      38.240   3.459   2.037  1.00  0.00     0.209 HD
ENDBRANCH   7   8
ENDBRANCH   6   7
BRANCH   1  10
HETATM   10  O   LIG L   1      39.021   5.605   1.783  1.00  0.00    -0.390 OA
HETATM   11  H   LIG L   1      38.786   4.809   2.307  1.00  0.00     0.210 HD
ENDBRANCH   1  10
BRANCH   2  12
HETATM   12  O   LIG L   1      40.900   7.671   1.192  1.00  0.00    -0.390 OA
HETATM   13  H   LIG L   1      40.201   7.462   0.538  1.00  0.00     0.210 HD
ENDBRANCH   2  12
BRANCH   4  14
HETATM   14  O   LIG L   1      44.425   4.289   1.370  1.00  0.00    -0.363 OA
HETATM   15  C   LIG L   1      44.967   5.040   0.292  1.00  0.00     0.204 C 
ENDBRANCH   4  14
BRANCH   3  16
HETATM   16  O   LIG L   1      43.612   7.035   1.926  1.00  0.00    -0.388 OA
HETATM   17  H   LIG L   1      44.483   6.605   2.008  1.00  0.00     0.210 HD
ENDBRANCH   3  16
TORSDOF 6
ENDMDL
