REMARK AutoDockVina VirtualScreeningResult  Sat Mar  5 21:34:31 2016
USER  AD>  3 of 9 MODELS
USER  AD>  ligand efficiency  -0.3692
USER  AD>  -4.80, 12.817, 15.091
USER  AD> macro_close_ats: 8
USER  AD> hepi:A:LEU264:CG
USER  AD> hepi:A:MET242:H
USER  AD> hepi:A:MET242:C
USER  AD> hepi:A:MET242:O
USER  AD> hepi:A:MET242:CA
USER  AD> hepi:A:LEU264:CD1
USER  AD> hepi:A:GLY218:CA
USER  AD> hepi:A:MET242:N

USER  AD> lig_close_ats: 6
USER  AD> h11_abm_m3_model1: :LIG1:H,O,O,H,H,C
MODEL 3
REMARK VINA RESULT:      -4.8     12.817     15.091
REMARK  6 active torsions:
REMARK  status: ('A' for Active; 'I' for Inactive)
REMARK    1  A    between atoms: C_1  and  O_7 
REMARK    2  A    between atoms: C_2  and  O_10 
REMARK    3  A    between atoms: C_3  and  O_12 
REMARK    4  A    between atoms: C_4  and  O_11 
REMARK    5  A    between atoms: C_6  and  C_8 
REMARK    6  A    between atoms: C_8  and  O_9 
ROOT
HETATM    1  C   LIG L   1      50.827  11.832   8.579  1.00  0.00     0.180 C 
HETATM    2  C   LIG L   1      50.110  10.853   7.649  1.00  0.00     0.183 C 
HETATM    3  C   LIG L   1      49.049  11.560   6.800  1.00  0.00     0.204 C 
HETATM    4  C   LIG L   1      48.145  12.449   7.682  1.00  0.00     0.290 C 
HETATM    5  O   LIG L   1      48.911  13.305   8.542  1.00  0.00    -0.349 OA
HETATM    6  C   LIG L   1      49.777  12.574   9.421  1.00  0.00     0.179 C 
ENDROOT
BRANCH   6   7
HETATM    7  C   LIG L   1      50.421  13.553  10.409  1.00  0.00     0.198 C 
BRANCH   7   8
HETATM    8  O   LIG L   1      51.177  14.541   9.720  1.00  0.00    -0.398 OA
HETATM    9  H   LIG L   1      52.024  14.649  10.192  1.00  0.00     0.209 HD
ENDBRANCH   7   8
ENDBRANCH   6   7
BRANCH   1  10
HETATM   10  O   LIG L   1      51.584  12.738   7.753  1.00  0.00    -0.390 OA
HETATM   11  H   LIG L   1      51.913  13.456   8.328  1.00  0.00     0.210 HD
ENDBRANCH   1  10
BRANCH   2  12
HETATM   12  O   LIG L   1      51.052  10.220   6.769  1.00  0.00    -0.390 OA
HETATM   13  H   LIG L   1      50.541   9.539   6.283  1.00  0.00     0.210 HD
ENDBRANCH   2  12
BRANCH   4  14
HETATM   14  O   LIG L   1      47.362  13.273   6.813  1.00  0.00    -0.363 OA
HETATM   15  C   LIG L   1      45.987  13.264   7.161  1.00  0.00     0.204 C 
ENDBRANCH   4  14
BRANCH   3  16
HETATM   16  O   LIG L   1      48.277  10.555   6.120  1.00  0.00    -0.388 OA
HETATM   17  H   LIG L   1      47.437  10.497   6.614  1.00  0.00     0.210 HD
ENDBRANCH   3  16
TORSDOF 6
ENDMDL
