REMARK AutoDockVina VirtualScreeningResult  Sat Mar  5 21:13:57 2016
USER  AD>  3 of 9 MODELS
USER  AD>  ligand efficiency  -0.2050
USER  AD>  -8.20,  9.728, 15.571
USER  AD> macro_close_ats: 20
USER  AD> hepi:A:ARG143:NH1
USER  AD> hepi:A:LYS192:H
USER  AD> hepi:A:LYS7:H
USER  AD> hepi:A:ARG143:H
USER  AD> hepi:A:ARG120:CD
USER  AD> hepi:A:ASP261:O
USER  AD> hepi:A:ARG143:H
USER  AD> hepi:A:GLY12:H
USER  AD> hepi:A:ASP261:C
USER  AD> hepi:A:MET11:N
USER  AD> hepi:A:MET11:H
USER  AD> hepi:A:ALA140:CB
USER  AD> hepi:A:ASP13:CG
USER  AD> hepi:A:THR262:CA
USER  AD> hepi:A:ARG120:CB
USER  AD> hepi:A:THR262:N
USER  AD> hepi:A:ARG120:CA
USER  AD> hepi:A:ASP13:OD1
USER  AD> hepi:A:LYS192:NZ
USER  AD> hepi:A:ALA93:O

USER  AD> lig_close_ats: 16
USER  AD> h11_adph_m3_model1: :   1:N,H,O,C,C,H,N,C,C,H,N,C,O,H,O,N
MODEL 3
REMARK VINA RESULT:      -8.2      9.728     15.571
REMARK  19 active torsions:
REMARK  status: ('A' for Active; 'I' for Inactive)
REMARK    1  A    between atoms: C_1  and  C_3 
REMARK    2  A    between atoms: C_1  and  O_13 
REMARK    3  A    between atoms: O_2  and  C_3 
REMARK    4  A    between atoms: C_3  and  C_11 
REMARK    5  A    between atoms: O_4  and  C_5 
REMARK    6  A    between atoms: O_6  and  C_7 
REMARK    7  A    between atoms: O_8  and  C_9 
REMARK    8  A    between atoms: C_12  and  O_40 
REMARK    9  A    between atoms: C_22  and  N_23 
REMARK   10  A    between atoms: C_24  and  O_25 
REMARK   11  A    between atoms: C_26  and  O_27 
REMARK   12  A    between atoms: C_28  and  C_31 
REMARK   13  A    between atoms: C_31  and  O_32 
REMARK   14  A    between atoms: O_32  and  P_33 
REMARK   15  A    between atoms: P_33  and  O_35 
REMARK   16  A    between atoms: P_33  and  O_36 
REMARK   17  A    between atoms: O_36  and  P_37 
REMARK   18  A    between atoms: P_37  and  O_40 
REMARK   19  A    between atoms: P_37  and  O_39 
ROOT
HETATM    1  P           1      39.935  -0.578  -1.808  0.00  0.00     0.401 P 
HETATM    2  O           1      39.034  -0.609  -2.991  0.00  0.00    -0.631 OA
ENDROOT
BRANCH   1   3
HETATM    3  O           1      39.968  -2.120  -1.215  0.00  0.00    -0.294 OA
BRANCH   3   4
HETATM    4  C           1      38.773  -2.716  -0.778  0.00  0.00     0.215 C 
BRANCH   4   5
HETATM    5  C           1      38.509  -3.969  -1.605  0.00  0.00     0.180 C 
HETATM    6  C           1      38.031  -5.175  -0.801  0.00  0.00     0.182 C 
HETATM    7  C           1      39.017  -6.269  -1.170  0.00  0.00     0.198 C 
HETATM    8  C           1      39.615  -5.745  -2.462  0.00  0.00     0.262 C 
HETATM    9  N           1      40.923  -6.314  -2.812  0.00  0.00    -0.294 N 
HETATM   10  O           1      39.684  -4.352  -2.264  0.00  0.00    -0.353 OA
HETATM   11  C           1      41.973  -6.145  -2.127  0.00  0.00     0.214 A 
HETATM   12  C           1      41.141  -7.015  -3.840  0.00  0.00     0.167 A 
HETATM   13  N           1      42.940  -6.736  -2.688  0.00  0.00    -0.236 NA
HETATM   14  C           1      42.456  -7.273  -3.731  0.00  0.00     0.149 A 
HETATM   15  C           1      43.058  -8.012  -4.678  0.00  0.00     0.155 A 
HETATM   16  N           1      42.346  -8.434  -5.640  0.00  0.00    -0.222 NA
HETATM   17  C           1      41.111  -8.141  -5.655  0.00  0.00     0.237 A 
HETATM   18  N           1      40.464  -7.453  -4.811  0.00  0.00    -0.222 NA
BRANCH   6  19
HETATM   19  O           1      36.746  -5.567  -1.223  0.00  0.00    -0.390 OA
HETATM   20  H           1      36.473  -5.065  -1.994  0.00  0.00     0.210 HD
ENDBRANCH   6  19
BRANCH   7  21
HETATM   21  O           1      38.372  -7.507  -1.353  0.00  0.00    -0.388 OA
HETATM   22  H           1      37.563  -7.520  -0.836  0.00  0.00     0.210 HD
ENDBRANCH   7  21
BRANCH  15  23
HETATM   23  N           1      44.298  -8.254  -4.570  0.00  0.00    -0.382 N 
HETATM   24  H           1      44.669  -9.206  -4.804  0.00  0.00     0.157 HD
HETATM   25  H           1      44.956  -7.504  -4.245  0.00  0.00     0.157 HD
ENDBRANCH  15  23
ENDBRANCH   4   5
ENDBRANCH   3   4
ENDBRANCH   1   3
BRANCH   1  26
HETATM   26  O           1      41.468  -0.696  -2.329  0.00  0.00    -0.307 OA
HETATM   27  H           1      41.884   0.146  -2.290  0.00  0.00     0.222 HD
ENDBRANCH   1  26
BRANCH   1  28
HETATM   28  O           1      39.559   0.504  -0.706  0.00  0.00    -0.195 OA
BRANCH  28  29
HETATM   29  P           1      40.320   0.436   0.692  0.00  0.00     0.404 P 
HETATM   30  O           1      39.526  -0.238   1.754  0.00  0.00    -0.631 OA
BRANCH  29  31
HETATM   31  O           1      41.157   1.709   1.281  0.00  0.00    -0.263 OA
BRANCH  31  32
HETATM   32  C           1      40.994   3.002   0.736  0.00  0.00     0.303 C 
HETATM   33  C           1      40.320   3.896   1.756  0.00  0.00     0.205 C 
HETATM   34  C           1      40.257   5.309   1.206  0.00  0.00     0.183 C 
HETATM   35  C           1      41.683   5.725   0.913  0.00  0.00     0.181 C 
HETATM   36  C           1      42.318   4.750  -0.077  0.00  0.00     0.186 C 
HETATM   37  O           1      42.308   3.460   0.476  0.00  0.00    -0.347 OA
BRANCH  33  38
HETATM   38  O           1      39.007   3.450   1.989  0.00  0.00    -0.388 OA
HETATM   39  H           1      38.544   3.421   1.147  0.00  0.00     0.210 HD
ENDBRANCH  33  38
BRANCH  34  40
HETATM   40  O           1      39.675   6.175   2.148  0.00  0.00    -0.390 OA
HETATM   41  H           1      39.887   5.878   3.037  0.00  0.00     0.210 HD
ENDBRANCH  34  40
BRANCH  35  42
HETATM   42  O           1      41.690   7.037   0.413  0.00  0.00    -0.390 OA
HETATM   43  H           1      40.837   7.432   0.613  0.00  0.00     0.210 HD
ENDBRANCH  35  42
BRANCH  36  44
HETATM   44  C           1      43.739   5.158  -0.467  0.00  0.00     0.173 C 
BRANCH  44  45
HETATM   45  C           1      44.692   5.334   0.700  0.00  0.00     0.198 C 
BRANCH  45  46
HETATM   46  O           1      44.767   4.148   1.463  0.00  0.00    -0.398 OA
HETATM   47  H           1      44.616   4.356   2.387  0.00  0.00     0.209 HD
ENDBRANCH  45  46
ENDBRANCH  44  45
BRANCH  44  48
HETATM   48  O           1      43.719   6.360  -1.202  0.00  0.00    -0.391 OA
HETATM   49  H           1      42.834   6.492  -1.553  0.00  0.00     0.210 HD
ENDBRANCH  44  48
ENDBRANCH  36  44
ENDBRANCH  31  32
ENDBRANCH  29  31
BRANCH  29  50
HETATM   50  O           1      41.678  -0.472   0.565  0.00  0.00    -0.307 OA
HETATM   51  H           1      42.320   0.001   0.064  0.00  0.00     0.222 HD
ENDBRANCH  29  50
ENDBRANCH  28  29
ENDBRANCH   1  28
TORSDOF 19
ENDMDL
