REMARK AutoDockVina VirtualScreeningResult  Sat Mar  5 21:14:44 2016
USER  AD>  4 of 9 MODELS
USER  AD>  ligand efficiency  -0.2261
USER  AD>  -5.20,  1.520,  3.577
USER  AD> macro_close_ats: 17
USER  AD> hepi:A:SER10:OG
USER  AD> hepi:A:LEU264:CD1
USER  AD> hepi:A:THR187:CB
USER  AD> hepi:A:GLY12:CA
USER  AD> hepi:A:SER10:H
USER  AD> hepi:A:GLY12:H
USER  AD> hepi:A:LYS192:NZ
USER  AD> hepi:A:THR187:CA
USER  AD> hepi:A:MET11:CE
USER  AD> hepi:A:THR188:H
USER  AD> hepi:A:THR187:OG1
USER  AD> hepi:A:GLY12:N
USER  AD> hepi:A:THR262:OG1
USER  AD> hepi:A:LYS192:H
USER  AD> hepi:A:VAL247:CG1
USER  AD> hepi:A:THR262:CA
USER  AD> hepi:A:GLY263:H

USER  AD> lig_close_ats: 12
USER  AD> h11_ga10_m4_model1: :LIG1:O,C,C,C,C,O,C,C,C,H,O,H
MODEL 4
REMARK VINA RESULT:      -5.2      1.520      3.577
REMARK  15 active torsions:
REMARK  status: ('A' for Active; 'I' for Inactive)
REMARK    1  A    between atoms: C_1  and  O_23 
REMARK    2  A    between atoms: C_2  and  O_9 
REMARK    3  A    between atoms: C_3  and  O_10 
REMARK    4  A    between atoms: C_4  and  O_11 
REMARK    5  A    between atoms: C_6  and  C_7 
REMARK    6  A    between atoms: C_7  and  O_8 
REMARK    7  A    between atoms: O_11  and  C_12 
REMARK    8  A    between atoms: C_12  and  C_13 
REMARK    9  A    between atoms: C_14  and  C_15 
REMARK   10  A    between atoms: C_15  and  C_16 
REMARK   11  A    between atoms: C_16  and  C_17 
REMARK   12  A    between atoms: C_17  and  C_18 
REMARK   13  A    between atoms: C_18  and  C_19 
REMARK   14  A    between atoms: C_19  and  C_20 
REMARK   15  A    between atoms: C_20  and  C_21 
ROOT
HETATM    1  C   LIG     1      41.559   6.131   0.768  1.00  0.00     0.180 C 
HETATM    2  C   LIG     1      42.557   4.997   0.498  1.00  0.00     0.183 C 
HETATM    3  C   LIG     1      43.620   4.959   1.589  1.00  0.00     0.204 C 
HETATM    4  C   LIG     1      44.315   6.331   1.647  1.00  0.00     0.291 C 
HETATM    5  O   LIG     1      43.341   7.325   1.997  1.00  0.00    -0.348 OA
HETATM    6  C   LIG     1      42.283   7.470   1.035  1.00  0.00     0.179 C 
ENDROOT
BRANCH   4   7
HETATM    7  O   LIG     1      44.943   6.695   0.413  1.00  0.00    -0.355 OA
BRANCH   7   8
HETATM    8  C   LIG     1      46.343   6.907   0.573  1.00  0.00     0.198 C 
BRANCH   8   9
HETATM    9  C   LIG     1      46.552   8.142   1.395  1.00  0.00    -0.005 C 
HETATM   10  C   LIG     1      47.237   8.134   2.547  1.00  0.00    -0.029 C 
BRANCH  10  11
HETATM   11  C   LIG     1      47.432   9.335   3.428  1.00  0.00     0.027 C 
BRANCH  11  12
HETATM   12  C   LIG     1      46.521   9.263   4.658  1.00  0.00     0.004 C 
BRANCH  12  13
HETATM   13  C   LIG     1      46.354  10.633   5.314  1.00  0.00     0.000 C 
BRANCH  13  14
HETATM   14  C   LIG     1      47.644  11.450   5.220  1.00  0.00     0.000 C 
BRANCH  14  15
HETATM   15  C   LIG     1      48.362  11.500   6.568  1.00  0.00     0.000 C 
BRANCH  15  16
HETATM   16  C   LIG     1      49.431  10.412   6.675  1.00  0.00    -0.000 C 
BRANCH  16  17
HETATM   17  C   LIG     1      50.259  10.579   7.948  1.00  0.00    -0.005 C 
HETATM   18  C   LIG     1      49.868  11.834   8.709  1.00  0.00     0.005 C 
ENDBRANCH  16  17
ENDBRANCH  15  16
ENDBRANCH  14  15
ENDBRANCH  13  14
ENDBRANCH  12  13
ENDBRANCH  11  12
ENDBRANCH  10  11
ENDBRANCH   8   9
ENDBRANCH   7   8
ENDBRANCH   4   7
BRANCH   3  19
HETATM   19  O   LIG     1      44.515   3.868   1.354  1.00  0.00    -0.388 OA
HETATM   20  H   LIG     1      44.182   3.141   1.921  1.00  0.00     0.210 HD
ENDBRANCH   3  19
BRANCH   2  21
HETATM   21  O   LIG     1      41.907   3.712   0.475  1.00  0.00    -0.390 OA
HETATM   22  H   LIG     1      42.403   3.123   1.075  1.00  0.00     0.210 HD
ENDBRANCH   2  21
BRANCH   6  23
HETATM   23  C   LIG     1      41.328   8.540   1.597  1.00  0.00     0.198 C 
BRANCH  23  24
HETATM   24  O   LIG     1      41.966   9.764   1.929  1.00  0.00    -0.398 OA
HETATM   25  H   LIG     1      41.478  10.172   2.661  1.00  0.00     0.209 HD
ENDBRANCH  23  24
ENDBRANCH   6  23
BRANCH   1  26
HETATM   26  O   LIG     1      40.648   6.195  -0.335  1.00  0.00    -0.390 OA
HETATM   27  H   LIG     1      40.665   5.342  -0.803  1.00  0.00     0.210 HD
ENDBRANCH   1  26
TORSDOF 15
ENDMDL
