REMARK AutoDockVina VirtualScreeningResult  Sat Mar  5 21:14:15 2016
USER  AD>  6 of 9 MODELS
USER  AD>  ligand efficiency  -0.2571
USER  AD>  -5.40, 14.982, 16.690
USER  AD> macro_close_ats: 14
USER  AD> hepi:A:SER305:N
USER  AD> hepi:A:ASP191:O
USER  AD> hepi:A:HIS193:O
USER  AD> hepi:A:LEU304:H
USER  AD> hepi:A:ASP190:CB
USER  AD> hepi:A:GLU196:CG
USER  AD> hepi:A:PRO195:CG
USER  AD> hepi:A:LEU304:N
USER  AD> hepi:A:ASP191:CA
USER  AD> hepi:A:SER305:H
USER  AD> hepi:A:GLU303:C
USER  AD> hepi:A:GLU196:H
USER  AD> hepi:A:LEU304:CB
USER  AD> hepi:A:PRO195:CD

USER  AD> lig_close_ats: 10
USER  AD> h11_aa8_m6_model1: :LIG1:C,C,H,C,O,C,C,H,O,H
MODEL 6
REMARK VINA RESULT:      -5.4     14.982     16.690
REMARK  13 active torsions:
REMARK  status: ('A' for Active; 'I' for Inactive)
REMARK    1  A    between atoms: C_1  and  O_7 
REMARK    2  A    between atoms: C_2  and  O_10 
REMARK    3  A    between atoms: C_3  and  O_11 
REMARK    4  A    between atoms: C_4  and  O_12 
REMARK    5  A    between atoms: C_6  and  C_8 
REMARK    6  A    between atoms: C_8  and  O_9 
REMARK    7  A    between atoms: O_12  and  C_13 
REMARK    8  A    between atoms: C_13  and  C_14 
REMARK    9  A    between atoms: C_15  and  C_16 
REMARK   10  A    between atoms: C_16  and  C_17 
REMARK   11  A    between atoms: C_17  and  C_18 
REMARK   12  A    between atoms: C_18  and  C_19 
REMARK   13  A    between atoms: C_19  and  C_20 
ROOT
HETATM    1  C   LIG     1      28.520  16.013   1.374  1.00  0.00     0.180 C 
HETATM    2  C   LIG     1      29.905  16.206   2.010  1.00  0.00     0.183 C 
HETATM    3  C   LIG     1      29.908  17.511   2.815  1.00  0.00     0.204 C 
HETATM    4  C   LIG     1      29.565  18.669   1.845  1.00  0.00     0.291 C 
HETATM    5  O   LIG     1      28.252  18.445   1.292  1.00  0.00    -0.348 OA
HETATM    6  C   LIG     1      28.178  17.240   0.506  1.00  0.00     0.179 C 
ENDROOT
BRANCH   4   7
HETATM    7  O   LIG     1      30.506  18.815   0.772  1.00  0.00    -0.355 OA
BRANCH   7   8
HETATM    8  C   LIG     1      31.363  19.925   0.990  1.00  0.00     0.198 C 
BRANCH   8   9
HETATM    9  C   LIG     1      32.776  19.473   1.074  1.00  0.00    -0.005 C 
HETATM   10  C   LIG     1      33.529  19.971   2.063  1.00  0.00    -0.029 C 
BRANCH  10  11
HETATM   11  C   LIG     1      34.925  19.495   2.320  1.00  0.00     0.027 C 
BRANCH  11  12
HETATM   12  C   LIG     1      35.384  19.967   3.683  1.00  0.00     0.004 C 
BRANCH  12  13
HETATM   13  C   LIG     1      34.570  21.182   4.077  1.00  0.00     0.000 C 
BRANCH  13  14
HETATM   14  C   LIG     1      33.636  20.849   5.221  1.00  0.00    -0.000 C 
BRANCH  14  15
HETATM   15  C   LIG     1      32.534  21.892   5.320  1.00  0.00    -0.005 C 
HETATM   16  C   LIG     1      31.324  21.459   4.516  1.00  0.00     0.005 C 
ENDBRANCH  14  15
ENDBRANCH  13  14
ENDBRANCH  12  13
ENDBRANCH  11  12
ENDBRANCH  10  11
ENDBRANCH   8   9
ENDBRANCH   7   8
ENDBRANCH   4   7
BRANCH   3  17
HETATM   17  O   LIG     1      31.134  17.688   3.536  1.00  0.00    -0.388 OA
HETATM   18  H   LIG     1      30.926  18.243   4.315  1.00  0.00     0.210 HD
ENDBRANCH   3  17
BRANCH   2  19
HETATM   19  O   LIG     1      30.229  15.115   2.876  1.00  0.00    -0.390 OA
HETATM   20  H   LIG     1      29.373  14.730   3.153  1.00  0.00     0.210 HD
ENDBRANCH   2  19
BRANCH   6  21
HETATM   21  C   LIG     1      26.777  17.141  -0.111  1.00  0.00     0.198 C 
BRANCH  21  22
HETATM   22  O   LIG     1      25.760  17.441   0.840  1.00  0.00    -0.398 OA
HETATM   23  H   LIG     1      25.302  18.247   0.546  1.00  0.00     0.209 HD
ENDBRANCH  21  22
ENDBRANCH   6  21
BRANCH   1  24
HETATM   24  O   LIG     1      27.575  15.840   2.450  1.00  0.00    -0.390 OA
HETATM   25  H   LIG     1      27.270  14.914   2.437  1.00  0.00     0.210 HD
ENDBRANCH   1  24
TORSDOF 13
ENDMDL
