REMARK AutoDockVina VirtualScreeningResult  Sat Mar  5 21:13:58 2016
USER  AD>  6 of 9 MODELS
USER  AD>  ligand efficiency  -0.2025
USER  AD>  -8.10, 10.125, 13.082
USER  AD> macro_close_ats: 20
USER  AD> hepi:A:ARG143:H
USER  AD> hepi:A:ARG143:NH1
USER  AD> hepi:A:LYS7:H
USER  AD> hepi:A:ASP13:OD1
USER  AD> hepi:A:HIS16:CE1
USER  AD> hepi:A:GLN94:O
USER  AD> hepi:A:ARG120:CG
USER  AD> hepi:A:LYS7:NZ
USER  AD> hepi:A:HIS16:H
USER  AD> hepi:A:ARG143:H
USER  AD> hepi:A:ASP13:OD2
USER  AD> hepi:A:ASP13:CG
USER  AD> hepi:A:ARG120:CD
USER  AD> hepi:A:HIS266:NE2
USER  AD> hepi:A:LYS7:H
USER  AD> hepi:A:HIS266:CD2
USER  AD> hepi:A:LYS7:H
USER  AD> hepi:A:ILE287:CB
USER  AD> hepi:A:ARG120:H
USER  AD> hepi:A:ALA93:O

USER  AD> lig_close_ats: 14
USER  AD> h11_adph_m6_model1: :   1:H,O,C,H,H,O,H,C,O,O,O,C,H,H
MODEL 6
REMARK VINA RESULT:      -8.1     10.125     13.082
REMARK  19 active torsions:
REMARK  status: ('A' for Active; 'I' for Inactive)
REMARK    1  A    between atoms: C_1  and  C_3 
REMARK    2  A    between atoms: C_1  and  O_13 
REMARK    3  A    between atoms: O_2  and  C_3 
REMARK    4  A    between atoms: C_3  and  C_11 
REMARK    5  A    between atoms: O_4  and  C_5 
REMARK    6  A    between atoms: O_6  and  C_7 
REMARK    7  A    between atoms: O_8  and  C_9 
REMARK    8  A    between atoms: C_12  and  O_40 
REMARK    9  A    between atoms: C_22  and  N_23 
REMARK   10  A    between atoms: C_24  and  O_25 
REMARK   11  A    between atoms: C_26  and  O_27 
REMARK   12  A    between atoms: C_28  and  C_31 
REMARK   13  A    between atoms: C_31  and  O_32 
REMARK   14  A    between atoms: O_32  and  P_33 
REMARK   15  A    between atoms: P_33  and  O_35 
REMARK   16  A    between atoms: P_33  and  O_36 
REMARK   17  A    between atoms: O_36  and  P_37 
REMARK   18  A    between atoms: P_37  and  O_40 
REMARK   19  A    between atoms: P_37  and  O_39 
ROOT
HETATM    1  P           1      39.206  -2.958   0.783  0.00  0.00     0.401 P 
HETATM    2  O           1      38.631  -3.262   2.120  0.00  0.00    -0.631 OA
ENDROOT
BRANCH   1   3
HETATM    3  O           1      39.260  -1.311   0.669  0.00  0.00    -0.294 OA
BRANCH   3   4
HETATM    4  C           1      39.887  -0.570   1.685  0.00  0.00     0.215 C 
BRANCH   4   5
HETATM    5  C           1      40.484   0.697   1.083  0.00  0.00     0.180 C 
HETATM    6  C           1      39.520   1.878   0.996  0.00  0.00     0.182 C 
HETATM    7  C           1      39.569   2.277  -0.468  0.00  0.00     0.198 C 
HETATM    8  C           1      40.866   1.645  -0.934  0.00  0.00     0.262 C 
HETATM    9  N           1      40.962   1.430  -2.384  0.00  0.00    -0.294 N 
HETATM   10  O           1      40.931   0.434  -0.218  0.00  0.00    -0.353 OA
HETATM   11  C           1      40.216   0.641  -3.031  0.00  0.00     0.214 A 
HETATM   12  C           1      41.809   1.995  -3.131  0.00  0.00     0.167 A 
HETATM   13  N           1      40.548   0.654  -4.252  0.00  0.00    -0.236 NA
HETATM   14  C           1      41.516   1.471  -4.335  0.00  0.00     0.149 A 
HETATM   15  C           1      42.236   1.847  -5.404  0.00  0.00     0.155 A 
HETATM   16  N           1      43.170   2.688  -5.223  0.00  0.00    -0.222 NA
HETATM   17  C           1      43.370   3.128  -4.049  0.00  0.00     0.237 A 
HETATM   18  N           1      42.745   2.830  -2.989  0.00  0.00    -0.222 NA
BRANCH   6  19
HETATM   19  O           1      39.993   2.954   1.771  0.00  0.00    -0.390 OA
HETATM   20  H           1      40.447   2.636   2.554  0.00  0.00     0.210 HD
ENDBRANCH   6  19
BRANCH   7  21
HETATM   21  O           1      39.580   3.677  -0.623  0.00  0.00    -0.388 OA
HETATM   22  H           1      39.681   3.890  -1.554  0.00  0.00     0.210 HD
ENDBRANCH   7  21
BRANCH  15  23
HETATM   23  N           1      41.954   1.353  -6.537  0.00  0.00    -0.382 N 
HETATM   24  H           1      42.476   0.514  -6.889  0.00  0.00     0.157 HD
HETATM   25  H           1      41.199   1.781  -7.128  0.00  0.00     0.157 HD
ENDBRANCH  15  23
ENDBRANCH   4   5
ENDBRANCH   3   4
ENDBRANCH   1   3
BRANCH   1  26
HETATM   26  O           1      40.823  -3.050   0.888  0.00  0.00    -0.307 OA
HETATM   27  H           1      41.201  -3.010   0.028  0.00  0.00     0.222 HD
ENDBRANCH   1  26
BRANCH   1  28
HETATM   28  O           1      38.456  -3.641  -0.440  0.00  0.00    -0.195 OA
BRANCH  28  29
HETATM   29  P           1      38.983  -3.318  -1.909  0.00  0.00     0.404 P 
HETATM   30  O           1      38.130  -2.335  -2.630  0.00  0.00    -0.631 OA
BRANCH  29  31
HETATM   31  O           1      39.527  -4.491  -2.908  0.00  0.00    -0.263 OA
BRANCH  31  32
HETATM   32  C           1      40.848  -4.982  -2.800  0.00  0.00     0.303 C 
HETATM   33  C           1      40.874  -6.442  -3.204  0.00  0.00     0.205 C 
HETATM   34  C           1      42.312  -6.926  -3.200  0.00  0.00     0.183 C 
HETATM   35  C           1      43.073  -6.038  -4.161  0.00  0.00     0.181 C 
HETATM   36  C           1      42.957  -4.579  -3.725  0.00  0.00     0.186 C 
HETATM   37  O           1      41.603  -4.208  -3.713  0.00  0.00    -0.347 OA
BRANCH  33  38
HETATM   38  O           1      40.143  -7.207  -2.278  0.00  0.00    -0.388 OA
HETATM   39  H           1      39.694  -6.607  -1.678  0.00  0.00     0.210 HD
ENDBRANCH  33  38
BRANCH  34  40
HETATM   40  O           1      42.377  -8.269  -3.613  0.00  0.00    -0.390 OA
HETATM   41  H           1      41.552  -8.714  -3.402  0.00  0.00     0.210 HD
ENDBRANCH  34  40
BRANCH  35  42
HETATM   42  O           1      44.414  -6.450  -4.211  0.00  0.00    -0.390 OA
HETATM   43  H           1      44.728  -6.541  -3.306  0.00  0.00     0.210 HD
ENDBRANCH  35  42
BRANCH  36  44
HETATM   44  C           1      43.765  -3.637  -4.619  0.00  0.00     0.173 C 
BRANCH  44  45
HETATM   45  C           1      43.069  -2.333  -4.962  0.00  0.00     0.198 C 
BRANCH  45  46
HETATM   46  O           1      42.619  -1.688  -3.789  0.00  0.00    -0.398 OA
HETATM   47  H           1      43.377  -1.425  -3.262  0.00  0.00     0.209 HD
ENDBRANCH  45  46
ENDBRANCH  44  45
BRANCH  44  48
HETATM   48  O           1      44.109  -4.281  -5.824  0.00  0.00    -0.391 OA
HETATM   49  H           1      43.328  -4.326  -6.382  0.00  0.00     0.210 HD
ENDBRANCH  44  48
ENDBRANCH  36  44
ENDBRANCH  31  32
ENDBRANCH  29  31
BRANCH  29  50
HETATM   50  O           1      40.458  -2.606  -1.848  0.00  0.00    -0.307 OA
HETATM   51  H           1      40.799  -2.526  -2.722  0.00  0.00     0.222 HD
ENDBRANCH  29  50
ENDBRANCH  28  29
ENDBRANCH   1  28
TORSDOF 19
ENDMDL
