REMARK AutoDockVina VirtualScreeningResult  Sat Mar  5 21:35:04 2016
USER  AD>  2 of 9 MODELS
USER  AD>  ligand efficiency  -0.2619
USER  AD>  -5.50,  4.754,  6.615
USER  AD> macro_close_ats: 19
USER  AD> hepi:A:PHE41:CZ
USER  AD> hepi:A:MET11:H
USER  AD> hepi:A:HIS266:NE2
USER  AD> hepi:A:GLY12:H
USER  AD> hepi:A:ASP261:O
USER  AD> hepi:A:SER10:OG
USER  AD> hepi:A:THR262:C
USER  AD> hepi:A:GLY263:CA
USER  AD> hepi:A:LYS192:H
USER  AD> hepi:A:HIS266:CD2
USER  AD> hepi:A:GLY263:H
USER  AD> hepi:A:GLU38:CB
USER  AD> hepi:A:SER10:H
USER  AD> hepi:A:LYS192:NZ
USER  AD> hepi:A:SER10:CA
USER  AD> hepi:A:ASP261:C
USER  AD> hepi:A:GLY263:N
USER  AD> hepi:A:THR262:CA
USER  AD> hepi:A:SER10:H

USER  AD> lig_close_ats: 14
USER  AD> h11_gb8_m2_model1: :LIG1:C,C,C,C,C,O,C,O,H,H,C,H,C,O
MODEL 2
REMARK VINA RESULT:      -5.5      4.754      6.615
REMARK  13 active torsions:
REMARK  status: ('A' for Active; 'I' for Inactive)
REMARK    1  A    between atoms: C_1  and  O_21 
REMARK    2  A    between atoms: C_2  and  O_9 
REMARK    3  A    between atoms: C_3  and  O_10 
REMARK    4  A    between atoms: C_4  and  O_11 
REMARK    5  A    between atoms: C_6  and  C_7 
REMARK    6  A    between atoms: C_7  and  O_8 
REMARK    7  A    between atoms: O_11  and  C_12 
REMARK    8  A    between atoms: C_12  and  C_13 
REMARK    9  A    between atoms: C_14  and  C_15 
REMARK   10  A    between atoms: C_15  and  C_16 
REMARK   11  A    between atoms: C_16  and  C_17 
REMARK   12  A    between atoms: C_17  and  C_18 
REMARK   13  A    between atoms: C_18  and  C_19 
ROOT
HETATM    1  C   LIG L   1      40.225   3.612   1.398  1.00  0.00     0.180 C 
HETATM    2  C   LIG L   1      40.689   4.962   1.966  1.00  0.00     0.183 C 
HETATM    3  C   LIG L   1      42.072   5.379   1.447  1.00  0.00     0.204 C 
HETATM    4  C   LIG L   1      43.035   4.209   1.721  1.00  0.00     0.291 C 
HETATM    5  O   LIG L   1      42.585   3.046   1.031  1.00  0.00    -0.348 OA
HETATM    6  C   LIG L   1      41.334   2.551   1.509  1.00  0.00     0.179 C 
ENDROOT
BRANCH   4   7
HETATM    7  O   LIG L   1      44.349   4.509   1.256  1.00  0.00    -0.355 OA
BRANCH   7   8
HETATM    8  C   LIG L   1      44.309   5.133  -0.022  1.00  0.00     0.198 C 
BRANCH   8   9
HETATM    9  C   LIG L   1      45.621   5.793  -0.299  1.00  0.00    -0.005 C 
HETATM   10  C   LIG L   1      46.133   5.846  -1.536  1.00  0.00    -0.029 C 
BRANCH  10  11
HETATM   11  C   LIG L   1      47.430   6.514  -1.893  1.00  0.00     0.027 C 
BRANCH  11  12
HETATM   12  C   LIG L   1      48.190   5.686  -2.935  1.00  0.00     0.004 C 
BRANCH  12  13
HETATM   13  C   LIG L   1      49.604   6.214  -3.164  1.00  0.00     0.000 C 
BRANCH  13  14
HETATM   14  C   LIG L   1      49.742   7.640  -2.630  1.00  0.00    -0.000 C 
BRANCH  14  15
HETATM   15  C   LIG L   1      51.084   7.851  -1.933  1.00  0.00    -0.005 C 
HETATM   16  C   LIG L   1      52.094   6.794  -2.347  1.00  0.00     0.005 C 
ENDBRANCH  14  15
ENDBRANCH  13  14
ENDBRANCH  12  13
ENDBRANCH  11  12
ENDBRANCH  10  11
ENDBRANCH   8   9
ENDBRANCH   7   8
ENDBRANCH   4   7
BRANCH   3  17
HETATM   17  O   LIG L   1      42.502   6.587   2.092  1.00  0.00    -0.388 OA
HETATM   18  H   LIG L   1      42.413   6.487   3.055  1.00  0.00     0.210 HD
ENDBRANCH   3  17
BRANCH   2  19
HETATM   19  O   LIG L   1      39.686   5.953   1.703  1.00  0.00    -0.390 OA
HETATM   20  H   LIG L   1      39.338   6.271   2.557  1.00  0.00     0.210 HD
ENDBRANCH   2  19
BRANCH   6  21
HETATM   21  C   LIG L   1      41.012   1.281   0.701  1.00  0.00     0.198 C 
BRANCH  21  22
HETATM   22  O   LIG L   1      42.073   0.339   0.632  1.00  0.00    -0.398 OA
HETATM   23  H   LIG L   1      42.771   0.696   0.054  1.00  0.00     0.209 HD
ENDBRANCH  21  22
ENDBRANCH   6  21
BRANCH   1  24
HETATM   24  O   LIG L   1      39.075   3.194   2.146  1.00  0.00    -0.390 OA
HETATM   25  H   LIG L   1      38.510   2.701   1.516  1.00  0.00     0.210 HD
ENDBRANCH   1  24
TORSDOF 13
ENDMDL
