REMARK AutoDockVina VirtualScreeningResult  Sat Mar  5 21:14:06 2016
USER  AD>  6 of 9 MODELS
USER  AD>  ligand efficiency  -0.3615
USER  AD>  -4.70,  2.890,  4.612
USER  AD> macro_close_ats: 13
USER  AD> hepi:A:LYS192:H
USER  AD> hepi:A:ASP261:C
USER  AD> hepi:A:ASP261:CG
USER  AD> hepi:A:GLY263:CA
USER  AD> hepi:A:MET11:H
USER  AD> hepi:A:GLY12:H
USER  AD> hepi:A:LYS192:NZ
USER  AD> hepi:A:ASP261:O
USER  AD> hepi:A:GLY263:N
USER  AD> hepi:A:SER10:H
USER  AD> hepi:A:THR188:H
USER  AD> hepi:A:GLY263:H
USER  AD> hepi:A:SER10:OG

USER  AD> lig_close_ats: 10
USER  AD> h11_abm_m6_model1: :LIG1:H,O,O,H,C,C,H,O,C,C
MODEL 6
REMARK VINA RESULT:      -4.7      2.890      4.612
REMARK  6 active torsions:
REMARK  status: ('A' for Active; 'I' for Inactive)
REMARK    1  A    between atoms: C_1  and  O_7 
REMARK    2  A    between atoms: C_2  and  O_10 
REMARK    3  A    between atoms: C_3  and  O_12 
REMARK    4  A    between atoms: C_4  and  O_11 
REMARK    5  A    between atoms: C_6  and  C_8 
REMARK    6  A    between atoms: C_8  and  O_9 
ROOT
HETATM    1  C   LIG     1      42.253   4.506   1.116  1.00  0.00     0.180 C 
HETATM    2  C   LIG     1      43.686   5.008   0.940  1.00  0.00     0.183 C 
HETATM    3  C   LIG     1      43.906   6.342   1.661  1.00  0.00     0.204 C 
HETATM    4  C   LIG     1      42.785   7.345   1.312  1.00  0.00     0.290 C 
HETATM    5  O   LIG     1      41.482   6.769   1.475  1.00  0.00    -0.349 OA
HETATM    6  C   LIG     1      41.284   5.607   0.658  1.00  0.00     0.179 C 
ENDROOT
BRANCH   6   7
HETATM    7  C   LIG     1      39.820   5.165   0.770  1.00  0.00     0.198 C 
BRANCH   7   8
HETATM    8  O   LIG     1      39.267   5.563   2.018  1.00  0.00    -0.398 OA
HETATM    9  H   LIG     1      39.022   6.505   1.946  1.00  0.00     0.209 HD
ENDBRANCH   7   8
ENDBRANCH   6   7
BRANCH   1  10
HETATM   10  O   LIG     1      42.075   4.186   2.510  1.00  0.00    -0.390 OA
HETATM   11  H   LIG     1      42.834   4.562   2.998  1.00  0.00     0.210 HD
ENDBRANCH   1  10
BRANCH   2  12
HETATM   12  O   LIG     1      44.620   4.048   1.461  1.00  0.00    -0.390 OA
HETATM   13  H   LIG     1      44.443   3.218   0.971  1.00  0.00     0.210 HD
ENDBRANCH   2  12
BRANCH   4  14
HETATM   14  O   LIG     1      42.899   8.455   2.207  1.00  0.00    -0.363 OA
HETATM   15  C   LIG     1      42.988   9.692   1.518  1.00  0.00     0.204 C 
ENDBRANCH   4  14
BRANCH   3  16
HETATM   16  O   LIG     1      45.194   6.853   1.274  1.00  0.00    -0.388 OA
HETATM   17  H   LIG     1      45.770   6.068   1.197  1.00  0.00     0.210 HD
ENDBRANCH   3  16
TORSDOF 6
ENDMDL
