REMARK AutoDockVina VirtualScreeningResult  Sat Mar  5 21:14:46 2016
USER  AD>  4 of 9 MODELS
USER  AD>  ligand efficiency  -0.2435
USER  AD>  -5.60,  2.603,  5.130
USER  AD> macro_close_ats: 26
USER  AD> hepi:A:MET11:N
USER  AD> hepi:A:PRO216:CB
USER  AD> hepi:A:ALA186:H
USER  AD> hepi:A:THR188:CG2
USER  AD> hepi:A:SER10:CB
USER  AD> hepi:A:THR188:CB
USER  AD> hepi:A:ALA186:CB
USER  AD> hepi:A:THR262:CA
USER  AD> hepi:A:SER10:H
USER  AD> hepi:A:THR188:N
USER  AD> hepi:A:THR187:OG1
USER  AD> hepi:A:ALA186:O
USER  AD> hepi:A:LYS192:H
USER  AD> hepi:A:SER10:C
USER  AD> hepi:A:LYS192:NZ
USER  AD> hepi:A:THR188:H
USER  AD> hepi:A:SER10:OG
USER  AD> hepi:A:HIS185:H
USER  AD> hepi:A:LEU184:CD2
USER  AD> hepi:A:SER10:CA
USER  AD> hepi:A:LEU264:CD1
USER  AD> hepi:A:LEU184:CA
USER  AD> hepi:A:MET11:H
USER  AD> hepi:A:GLY12:H
USER  AD> hepi:A:MET11:CB
USER  AD> hepi:A:LYS192:H

USER  AD> lig_close_ats: 11
USER  AD> h11_gb10_m4_model1: :LIG1:O,C,O,C,C,C,H,H,C,O,C
MODEL 4
REMARK VINA RESULT:      -5.6      2.603      5.130
REMARK  15 active torsions:
REMARK  status: ('A' for Active; 'I' for Inactive)
REMARK    1  A    between atoms: C_1  and  O_23 
REMARK    2  A    between atoms: C_2  and  O_9 
REMARK    3  A    between atoms: C_3  and  O_10 
REMARK    4  A    between atoms: C_4  and  O_11 
REMARK    5  A    between atoms: C_6  and  C_7 
REMARK    6  A    between atoms: C_7  and  O_8 
REMARK    7  A    between atoms: O_11  and  C_12 
REMARK    8  A    between atoms: C_12  and  C_13 
REMARK    9  A    between atoms: C_14  and  C_15 
REMARK   10  A    between atoms: C_15  and  C_16 
REMARK   11  A    between atoms: C_16  and  C_17 
REMARK   12  A    between atoms: C_17  and  C_18 
REMARK   13  A    between atoms: C_18  and  C_19 
REMARK   14  A    between atoms: C_19  and  C_20 
REMARK   15  A    between atoms: C_20  and  C_21 
ROOT
HETATM    1  C   LIG     1      42.878   5.809   1.283  1.00  0.00     0.180 C 
HETATM    2  C   LIG     1      44.341   5.397   1.069  1.00  0.00     0.183 C 
HETATM    3  C   LIG     1      45.329   6.331   1.783  1.00  0.00     0.204 C 
HETATM    4  C   LIG     1      45.000   7.768   1.340  1.00  0.00     0.291 C 
HETATM    5  O   LIG     1      43.665   8.093   1.715  1.00  0.00    -0.348 OA
HETATM    6  C   LIG     1      42.680   7.314   1.034  1.00  0.00     0.179 C 
ENDROOT
BRANCH   4   7
HETATM    7  O   LIG     1      45.869   8.706   1.969  1.00  0.00    -0.355 OA
BRANCH   7   8
HETATM    8  C   LIG     1      45.228   9.338   3.068  1.00  0.00     0.198 C 
BRANCH   8   9
HETATM    9  C   LIG     1      46.208  10.207   3.789  1.00  0.00    -0.005 C 
HETATM   10  C   LIG     1      47.057   9.702   4.696  1.00  0.00    -0.029 C 
BRANCH  10  11
HETATM   11  C   LIG     1      48.083  10.504   5.438  1.00  0.00     0.027 C 
BRANCH  11  12
HETATM   12  C   LIG     1      47.764  11.999   5.341  1.00  0.00     0.004 C 
BRANCH  12  13
HETATM   13  C   LIG     1      47.175  12.539   6.642  1.00  0.00     0.000 C 
BRANCH  13  14
HETATM   14  C   LIG     1      45.697  12.887   6.459  1.00  0.00     0.000 C 
BRANCH  14  15
HETATM   15  C   LIG     1      44.797  11.770   6.981  1.00  0.00     0.000 C 
BRANCH  15  16
HETATM   16  C   LIG     1      43.817  12.296   8.030  1.00  0.00    -0.000 C 
BRANCH  16  17
HETATM   17  C   LIG     1      44.456  13.396   8.877  1.00  0.00    -0.005 C 
HETATM   18  C   LIG     1      43.609  13.720  10.096  1.00  0.00     0.005 C 
ENDBRANCH  16  17
ENDBRANCH  15  16
ENDBRANCH  14  15
ENDBRANCH  13  14
ENDBRANCH  12  13
ENDBRANCH  11  12
ENDBRANCH  10  11
ENDBRANCH   8   9
ENDBRANCH   7   8
ENDBRANCH   4   7
BRANCH   3  19
HETATM   19  O   LIG     1      46.679   5.963   1.465  1.00  0.00    -0.388 OA
HETATM   20  H   LIG     1      47.080   6.657   0.916  1.00  0.00     0.210 HD
ENDBRANCH   3  19
BRANCH   2  21
HETATM   21  O   LIG     1      44.506   4.026   1.463  1.00  0.00    -0.390 OA
HETATM   22  H   LIG     1      44.892   3.537   0.714  1.00  0.00     0.210 HD
ENDBRANCH   2  21
BRANCH   6  23
HETATM   23  C   LIG     1      41.303   7.808   1.514  1.00  0.00     0.198 C 
BRANCH  23  24
HETATM   24  O   LIG     1      41.272   9.170   1.917  1.00  0.00    -0.398 OA
HETATM   25  H   LIG     1      41.095   9.723   1.135  1.00  0.00     0.209 HD
ENDBRANCH  23  24
ENDBRANCH   6  23
BRANCH   1  26
HETATM   26  O   LIG     1      42.072   5.055   0.367  1.00  0.00    -0.390 OA
HETATM   27  H   LIG     1      41.309   5.628   0.148  1.00  0.00     0.210 HD
ENDBRANCH   1  26
TORSDOF 15
ENDMDL
