747599
 OpenBabel07281513532D

 39 43  0  0  0  0  0  0  0  0999 V2000
  -11.3320  -14.8724    0.0000 C   0  0  0  0  0  0  0  0  0  0  0  0
  -10.0329  -15.6224    0.0000 C   0  0  0  0  0  0  0  0  0  0  0  0
   -8.7339  -14.8724    0.0000 C   0  0  0  0  0  0  0  0  0  0  0  0
   -8.7339  -13.3724    0.0000 C   0  0  0  0  0  0  0  0  0  0  0  0
  -10.0329  -12.6224    0.0000 C   0  0  0  0  0  0  0  0  0  0  0  0
  -11.3320  -13.3724    0.0000 C   0  0  0  0  0  0  0  0  0  0  0  0
  -12.6310  -12.6224    0.0000 N   0  0  0  0  0  0  0  0  0  0  0  0
  -12.7878  -11.1307    0.0000 C   0  0  0  0  0  0  0  0  0  0  0  0
  -14.2550  -10.8188    0.0000 C   0  0  0  0  0  0  0  0  0  0  0  0
  -15.0050  -12.1178    0.0000 N   0  0  0  0  0  0  0  0  0  0  0  0
  -14.0013  -13.2325    0.0000 C   0  0  0  0  0  0  0  0  0  0  0  0
   -6.1358  -13.3724    0.0000 C   0  0  0  0  0  0  0  0  0  0  0  0
   -6.1358  -14.8724    0.0000 O   0  0  0  0  0  0  0  0  0  0  0  0
   -4.8368  -12.6224    0.0000 C   0  0  0  0  0  0  0  0  0  0  0  0
   -3.5377  -13.3724    0.0000 C   0  0  0  0  0  0  0  0  0  0  0  0
   -2.2387  -12.6224    0.0000 C   0  0  0  0  0  0  0  0  0  0  0  0
   -2.2387  -11.1224    0.0000 C   0  0  0  0  0  0  0  0  0  0  0  0
   -3.5377  -10.3724    0.0000 C   0  0  0  0  0  0  0  0  0  0  0  0
   -4.8368  -11.1224    0.0000 C   0  0  0  0  0  0  0  0  0  0  0  0
    0.3594  -12.6224    0.0000 C   0  0  0  0  0  0  0  0  0  0  0  0
    1.6584  -13.3724    0.0000 N   0  0  0  0  0  0  0  0  0  0  0  0
    2.9575  -12.6224    0.0000 C   0  0  0  0  0  0  0  0  0  0  0  0
    2.9575  -11.1224    0.0000 C   0  0  0  0  0  0  0  0  0  0  0  0
    1.6584  -10.3724    0.0000 C   0  0  0  0  0  0  0  0  0  0  0  0
    0.3594  -11.1224    0.0000 N   0  0  0  0  0  0  0  0  0  0  0  0
    1.6584   -8.8724    0.0000 C   0  0  0  0  0  0  0  0  0  0  0  0
    2.9574   -8.1224    0.0000 C   0  0  0  0  0  0  0  0  0  0  0  0
    2.9574   -6.6224    0.0000 C   0  0  0  0  0  0  0  0  0  0  0  0
    1.6584   -5.8724    0.0000 C   0  0  0  0  0  0  0  0  0  0  0  0
    0.3594   -6.6224    0.0000 N   0  0  0  0  0  0  0  0  0  0  0  0
    0.3594   -8.1224    0.0000 C   0  0  0  0  0  0  0  0  0  0  0  0
   -0.9397  -10.3724    0.0000 C   0  0  0  0  0  0  0  0  0  0  0  0
  -14.8651   -9.4485    0.0000 C   0  0  0  0  0  0  0  0  0  0  0  0
  -10.0329  -17.1224    0.0000 C   0  0  0  0  0  0  0  0  0  0  0  0
  -11.5329  -17.1224    0.0000 F   0  0  0  0  0  0  0  0  0  0  0  0
  -10.0329  -18.6224    0.0000 F   0  0  0  0  0  0  0  0  0  0  0  0
   -8.5329  -17.1224    0.0000 F   0  0  0  0  0  0  0  0  0  0  0  0
   -7.4348  -12.6224    0.0000 N   0  0  0  0  0  0  0  0  0  0  0  0
   -0.9397  -13.3724    0.0000 N   0  0  0  0  0  0  0  0  0  0  0  0
  1  2  2  0  0  0  0
  1  6  1  0  0  0  0
  2  3  1  0  0  0  0
  2 34  1  0  0  0  0
  3  4  2  0  0  0  0
  4  5  1  0  0  0  0
  4 38  1  0  0  0  0
  5  6  2  0  0  0  0
  6  7  1  0  0  0  0
  7  8  1  0  0  0  0
  7 11  1  0  0  0  0
  8  9  2  0  0  0  0
  9 10  1  0  0  0  0
  9 33  1  0  0  0  0
 10 11  2  0  0  0  0
 12 13  2  0  0  0  0
 12 14  1  0  0  0  0
 12 38  1  0  0  0  0
 14 15  2  0  0  0  0
 14 19  1  0  0  0  0
 15 16  1  0  0  0  0
 16 17  2  0  0  0  0
 16 39  1  0  0  0  0
 17 18  1  0  0  0  0
 17 32  1  0  0  0  0
 18 19  2  0  0  0  0
 20 21  2  0  0  0  0
 20 25  1  0  0  0  0
 20 39  1  0  0  0  0
 21 22  1  0  0  0  0
 22 23  2  0  0  0  0
 23 24  1  0  0  0  0
 24 25  2  0  0  0  0
 24 26  1  0  0  0  0
 26 27  2  0  0  0  0
 26 31  1  0  0  0  0
 27 28  1  0  0  0  0
 28 29  2  0  0  0  0
 29 30  1  0  0  0  0
 30 31  2  0  0  0  0
 34 35  1  0  0  0  0
 34 36  1  0  0  0  0
 34 37  1  0  0  0  0
M  END
