763932
 OpenBabel07281513532D

 33 35  0  0  0  0  0  0  0  0999 V2000
   -4.2826    0.3879    0.0000 N   0  0  0  0  0  0  0  0  0  0  0  0
   -4.2826   -0.4120    0.0000 C   0  0  0  0  0  0  0  0  0  0  0  0
   -3.5896   -0.8120    0.0000 C   0  0  0  0  0  0  0  0  0  0  0  0
   -2.8966   -0.4120    0.0000 C   0  0  0  0  0  0  0  0  0  0  0  0
   -2.8966    0.3879    0.0000 C   0  0  0  0  0  0  0  0  0  0  0  0
   -3.5896    0.7878    0.0000 C   0  0  0  0  0  0  0  0  0  0  0  0
   -4.9756   -0.8120    0.0000 C   0  0  0  0  0  0  0  0  0  0  0  0
   -4.9756   -1.6121    0.0000 O   0  0  0  0  0  0  0  0  0  0  0  0
   -5.6686    0.3879    0.0000 C   0  0  0  0  0  0  0  0  0  0  0  0
   -2.2046   -0.8120    0.0000 O   0  0  0  0  0  0  0  0  0  0  0  0
   -1.5116   -0.4120    0.0000 C   0  0  0  0  0  0  0  0  0  0  0  0
   -0.8186   -0.8120    0.0000 C   0  0  0  0  0  0  0  0  0  0  0  0
   -0.1257   -0.4120    0.0000 C   0  0  0  0  0  0  0  0  0  0  0  0
   -0.1257    0.3879    0.0000 C   0  0  0  0  0  0  0  0  0  0  0  0
   -0.8186    0.7878    0.0000 C   0  0  0  0  0  0  0  0  0  0  0  0
   -1.5116    0.3879    0.0000 C   0  0  0  0  0  0  0  0  0  0  0  0
    0.5673   -0.8120    0.0000 F   0  0  0  0  0  0  0  0  0  0  0  0
    1.2593    0.3879    0.0000 C   0  0  0  0  0  0  0  0  0  0  0  0
    1.2593   -0.4120    0.0000 O   0  0  0  0  0  0  0  0  0  0  0  0
    4.0303   -0.4120    0.0000 C   0  0  0  0  0  0  0  0  0  0  0  0
    4.0303    0.3879    0.0000 C   0  0  0  0  0  0  0  0  0  0  0  0
    4.7233   -0.8120    0.0000 Cl  0  0  0  0  0  0  0  0  0  0  0  0
   -5.6686   -0.4120    0.0000 N   0  0  0  0  0  0  0  0  0  0  0  0
    0.5673    0.7878    0.0000 N   0  0  0  0  0  0  0  0  0  0  0  0
    4.7233    0.7878    0.0000 C   0  0  0  0  0  0  0  0  0  0  0  0
    4.3234    1.4807    0.0000 F   0  0  0  0  0  0  0  0  0  0  0  0
    5.1232    0.0950    0.0000 F   0  0  0  0  0  0  0  0  0  0  0  0
    5.4162    1.1878    0.0000 F   0  0  0  0  0  0  0  0  0  0  0  0
    1.9523    0.7878    0.0000 N   0  0  0  0  0  0  0  0  0  0  0  0
    2.6453    0.3879    0.0000 C   0  0  0  0  0  0  0  0  0  0  0  0
    2.6453   -0.4120    0.0000 C   0  0  0  0  0  0  0  0  0  0  0  0
    3.3383   -0.8120    0.0000 C   0  0  0  0  0  0  0  0  0  0  0  0
    3.3383    0.7878    0.0000 C   0  0  0  0  0  0  0  0  0  0  0  0
  1  2  2  0  0  0  0
  1  6  1  0  0  0  0
  2  3  1  0  0  0  0
  2  7  1  0  0  0  0
  3  4  2  0  0  0  0
  4  5  1  0  0  0  0
  4 10  1  0  0  0  0
  5  6  2  0  0  0  0
  7  8  2  0  0  0  0
  7 23  1  0  0  0  0
  9 23  1  0  0  0  0
 10 11  1  0  0  0  0
 11 12  2  0  0  0  0
 11 16  1  0  0  0  0
 12 13  1  0  0  0  0
 13 14  2  0  0  0  0
 13 17  1  0  0  0  0
 14 15  1  0  0  0  0
 14 24  1  0  0  0  0
 15 16  2  0  0  0  0
 18 19  2  0  0  0  0
 18 24  1  0  0  0  0
 18 29  1  0  0  0  0
 20 22  1  0  0  0  0
 20 21  1  0  0  0  0
 20 32  2  0  0  0  0
 21 25  1  0  0  0  0
 21 33  2  0  0  0  0
 25 26  1  0  0  0  0
 25 27  1  0  0  0  0
 25 28  1  0  0  0  0
 29 30  1  0  0  0  0
 30 31  2  0  0  0  0
 30 33  1  0  0  0  0
 31 32  1  0  0  0  0
M  END
