1390
 OpenBabel07281513532D

 12 13  0  0  0  0  0  0  0  0999 V2000
   -5.7581   -5.6905    0.0000 H   0  0  0  0  0  0  0  0  0  0  0  0
   -4.4591   -4.9405    0.0000 N   0  0  0  0  0  0  0  0  0  0  0  0
   -3.1600   -2.6905    0.0000 N   0  0  0  0  0  0  0  0  0  0  0  0
   -3.1600   -7.1905    0.0000 O   0  0  0  0  0  0  0  0  0  0  0  0
   -0.4344   -2.9770    0.0000 N   0  0  0  0  0  0  0  0  0  0  0  0
    0.0291   -1.5504    0.0000 H   0  0  0  0  0  0  0  0  0  0  0  0
    0.4473   -4.1905    0.0000 N   0  0  0  0  0  0  0  0  0  0  0  0
   -1.8610   -3.4405    0.0000 C   0  0  0  0  0  0  0  0  0  0  0  0
   -1.8610   -4.9405    0.0000 C   0  0  0  0  0  0  0  0  0  0  0  0
   -3.1600   -5.6905    0.0000 C   0  0  0  0  0  0  0  0  0  0  0  0
   -0.4344   -5.4040    0.0000 C   0  0  0  0  0  0  0  0  0  0  0  0
   -4.4591   -3.4405    0.0000 C   0  0  0  0  0  0  0  0  0  0  0  0
  1  2  1  0  0  0  0
  2 10  1  0  0  0  0
  2 12  1  0  0  0  0
  3 12  2  0  0  0  0
  3  8  1  0  0  0  0
  4 10  2  0  0  0  0
  5  7  1  0  0  0  0
  5  8  1  0  0  0  0
  5  6  1  0  0  0  0
  7 11  2  0  0  0  0
  8  9  2  0  0  0  0
  9 10  1  0  0  0  0
  9 11  1  0  0  0  0
M  END
