712807
 OpenBabel07281513532D

 25 26  0  0  1  0  0  0  0  0999 V2000
   -3.6226   -7.7745    0.0000 N   0  0  0  0  0  0  0  0  0  0  0  0
   -3.6226   -9.2745    0.0000 C   0  0  0  0  0  0  0  0  0  0  0  0
   -2.3235  -10.0245    0.0000 N   0  0  0  0  0  0  0  0  0  0  0  0
   -1.0245   -9.2745    0.0000 C   0  0  0  0  0  0  0  0  0  0  0  0
   -1.0245   -7.7745    0.0000 C   0  0  0  0  0  0  0  0  0  0  0  0
   -2.3235   -7.0245    0.0000 C   0  0  0  0  0  0  0  0  0  0  0  0
   -3.5371  -12.4062    0.0000 O   0  0  0  0  0  0  0  0  0  0  0  0
   -3.0735  -13.8328    0.0000 C   0  0  3  0  0  0  0  0  0  0  0  0
   -1.5735  -13.8328    0.0000 C   0  0  3  0  0  0  0  0  0  0  0  0
   -1.1100  -12.4062    0.0000 C   0  0  3  0  0  0  0  0  0  0  0  0
   -2.3235  -11.5245    0.0000 C   0  0  3  0  0  0  0  0  0  0  0  0
   -4.9216  -10.0245    0.0000 O   0  0  0  0  0  0  0  0  0  0  0  0
   -3.9552  -15.0463    0.0000 C   0  0  0  0  0  0  0  0  0  0  0  0
    0.2745   -7.0245    0.0000 F   0  0  0  0  0  0  0  0  0  0  0  0
   -1.0245   -4.7745    0.0000 C   0  0  0  0  0  0  0  0  0  0  0  0
    0.2745   -5.5245    0.0000 O   0  0  0  0  0  0  0  0  0  0  0  0
   -1.0245   -3.2745    0.0000 O   0  0  0  0  0  0  0  0  0  0  0  0
    1.5736   -4.7745    0.0000 C   0  0  0  0  0  0  0  0  0  0  0  0
    2.8726   -5.5245    0.0000 C   0  0  0  0  0  0  0  0  0  0  0  0
    4.1716   -4.7745    0.0000 C   0  0  0  0  0  0  0  0  0  0  0  0
    5.4707   -5.5245    0.0000 C   0  0  0  0  0  0  0  0  0  0  0  0
    6.7697   -4.7745    0.0000 C   0  0  0  0  0  0  0  0  0  0  0  0
   -2.3235   -5.5245    0.0000 N   0  0  0  0  0  0  0  0  0  0  0  0
    0.3166  -11.9427    0.0000 O   0  0  0  0  0  0  0  0  0  0  0  0
   -0.6919  -15.0463    0.0000 O   0  0  0  0  0  0  0  0  0  0  0  0
  1  2  1  0  0  0  0
  1  6  2  0  0  0  0
  2  3  1  0  0  0  0
  2 12  2  0  0  0  0
  3  4  1  0  0  0  0
  3 11  1  0  0  0  0
  4  5  2  0  0  0  0
  5  6  1  0  0  0  0
  5 14  1  0  0  0  0
  6 23  1  0  0  0  0
  7  8  1  0  0  0  0
  7 11  1  0  0  0  0
  8  9  1  0  0  0  0
  8 13  1  0  0  0  0
  9 10  1  0  0  0  0
  9 25  1  0  0  0  0
 10 11  1  0  0  0  0
 10 24  1  0  0  0  0
 15 16  1  0  0  0  0
 15 17  2  0  0  0  0
 15 23  1  0  0  0  0
 16 18  1  0  0  0  0
 18 19  1  0  0  0  0
 19 20  1  0  0  0  0
 20 21  1  0  0  0  0
 21 22  1  0  0  0  0
M  END
