141540
 OpenBabel07281513532D

 46 52  0  0  1  0  0  0  0  0999 V2000
   -9.9708    7.8237    0.0000 O   0  0  0  0  0  0  0  0  0  0  0  0
   -9.9708   10.2507    0.0000 O   0  0  0  0  0  0  0  0  0  0  0  0
   -3.5592    0.7500    0.0000 O   0  0  0  0  0  0  0  0  0  0  0  0
   -3.3450    3.1981    0.0000 O   0  0  0  0  0  0  0  0  0  0  0  0
   -6.0624    3.8295    0.0000 O   0  0  0  0  0  0  0  0  0  0  0  0
   -5.6113    6.3882    0.0000 O   0  0  0  0  0  0  0  0  0  0  0  0
   -4.6471    9.0372    0.0000 H   0  0  0  0  0  0  0  0  0  0  0  0
   -3.6829    6.3882    0.0000 H   0  0  0  0  0  0  0  0  0  0  0  0
   -3.1913   11.2790    0.0000 H   0  0  0  0  0  0  0  0  0  0  0  0
   -3.1913    6.7954    0.0000 H   0  0  0  0  0  0  0  0  0  0  0  0
   -1.4580   11.6773    0.0000 O   0  0  0  0  0  0  0  0  0  0  0  0
   -1.0398    9.0372    0.0000 O   0  0  0  0  0  0  0  0  0  0  0  0
   -4.6471   15.0372    0.0000 C   0  0  0  0  0  0  0  0  0  0  0  0
   -3.3481   14.2872    0.0000 C   0  0  0  0  0  0  0  0  0  0  0  0
   -5.9462   14.2872    0.0000 C   0  0  0  0  0  0  0  0  0  0  0  0
   -3.3481   12.7872    0.0000 C   0  0  0  0  0  0  0  0  0  0  0  0
   -5.9462   12.7872    0.0000 C   0  0  0  0  0  0  0  0  0  0  0  0
   -4.6471   12.0372    0.0000 C   0  0  0  0  0  0  0  0  0  0  0  0
   -4.6471   10.5372    0.0000 C   0  0  2  0  0  0  0  0  0  0  0  0
   -5.9461    9.7872    0.0000 C   0  0  0  0  0  0  0  0  0  0  0  0
   -3.3481    9.7872    0.0000 C   0  0  1  0  0  0  0  0  0  0  0  0
   -1.9215   10.2507    0.0000 C   0  0  0  0  0  0  0  0  0  0  0  0
   -7.2452   10.5372    0.0000 C   0  0  0  0  0  0  0  0  0  0  0  0
   -8.5442    9.7872    0.0000 C   0  0  0  0  0  0  0  0  0  0  0  0
   -3.3481    8.2872    0.0000 C   0  0  1  0  0  0  0  0  0  0  0  0
   -5.9461    8.2872    0.0000 C   0  0  0  0  0  0  0  0  0  0  0  0
   -8.5442    8.2872    0.0000 C   0  0  0  0  0  0  0  0  0  0  0  0
   -4.6471    7.5372    0.0000 C   0  0  1  0  0  0  0  0  0  0  0  0
   -7.2452    7.5372    0.0000 C   0  0  0  0  0  0  0  0  0  0  0  0
  -10.8525    9.0372    0.0000 C   0  0  0  0  0  0  0  0  0  0  0  0
   -1.9215    7.8237    0.0000 C   0  0  0  0  0  0  0  0  0  0  0  0
   -2.5950    1.8991    0.0000 C   0  0  3  0  0  0  0  0  0  0  0  0
   -5.5494    2.4200    0.0000 C   0  0  3  0  0  0  0  0  0  0  0  0
   -4.0722    2.1595    0.0000 C   0  0  3  0  0  0  0  0  0  0  0  0
   -3.1080    3.3086    0.0000 C   0  0  3  0  0  0  0  0  0  0  0  0
   -3.6210    4.7181    0.0000 C   0  0  3  0  0  0  0  0  0  0  0  0
   -5.0983    4.9786    0.0000 C   0  0  3  0  0  0  0  0  0  0  0  0
   -1.1007    1.7683    0.0000 C   0  0  0  0  0  0  0  0  0  0  0  0
   -7.2452   15.0372    0.0000 O   0  0  0  0  0  0  0  0  0  0  0  0
   -8.5442   14.2872    0.0000 C   0  0  0  0  0  0  0  0  0  0  0  0
   -5.0364    1.0105    0.0000 C   0  0  0  0  0  0  0  0  0  0  0  0
   -4.5852    3.5691    0.0000 O   0  0  0  0  0  0  0  0  0  0  0  0
   -2.6569    5.8672    0.0000 O   0  0  0  0  0  0  0  0  0  0  0  0
   -4.6471   16.5372    0.0000 O   0  0  0  0  0  0  0  0  0  0  0  0
   -2.0490   15.0372    0.0000 O   0  0  0  0  0  0  0  0  0  0  0  0
   -0.7500   14.2872    0.0000 C   0  0  0  0  0  0  0  0  0  0  0  0
  1 27  1  0  0  0  0
  1 30  1  0  0  0  0
  2 24  1  0  0  0  0
  2 30  1  0  0  0  0
  3 32  1  0  0  0  0
  3 41  1  0  0  0  0
  4 32  1  0  0  0  0
  4 34  1  0  0  0  0
  5 33  1  0  0  0  0
  5 37  1  0  0  0  0
  6 37  1  0  0  0  0
 11 22  2  0  0  0  0
 12 22  1  0  0  0  0
 12 31  1  0  0  0  0
 13 14  2  0  0  0  0
 13 15  1  0  0  0  0
 13 44  1  0  0  0  0
 14 16  1  0  0  0  0
 14 45  1  0  0  0  0
 15 17  2  0  0  0  0
 15 39  1  0  0  0  0
 16 18  2  0  0  0  0
 17 18  1  0  0  0  0
 19  7  1  6  0  0  0
 19 18  1  0  0  0  0
 19 20  1  0  0  0  0
 19 21  1  0  0  0  0
 20 26  2  0  0  0  0
 20 23  1  0  0  0  0
 21  9  1  6  0  0  0
 21 22  1  0  0  0  0
 21 25  1  0  0  0  0
 23 24  2  0  0  0  0
 24 27  1  0  0  0  0
 25 10  1  1  0  0  0
 25 31  1  0  0  0  0
 25 28  1  0  0  0  0
 26 28  1  0  0  0  0
 26 29  1  0  0  0  0
 27 29  2  0  0  0  0
 28  6  1  0  0  0  0
 28  8  1  1  0  0  0
 32 38  1  0  0  0  0
 33 34  1  0  0  0  0
 33 41  1  0  0  0  0
 34 35  1  0  0  0  0
 35 36  1  0  0  0  0
 35 42  1  0  0  0  0
 36 37  1  0  0  0  0
 36 43  1  0  0  0  0
 39 40  1  0  0  0  0
 45 46  1  0  0  0  0
M  END
