713563
 OpenBabel07281513542D

 25 28  0  0  1  0  0  0  0  0999 V2000
   -0.3750    6.6495    0.0000 C   0  0  0  0  0  0  0  0  0  0  0  0
   -0.3750    5.1495    0.0000 C   0  0  0  0  0  0  0  0  0  0  0  0
    0.9241    4.3995    0.0000 C   0  0  0  0  0  0  0  0  0  0  0  0
    2.2231    5.1495    0.0000 C   0  0  0  0  0  0  0  0  0  0  0  0
    0.9241    7.3995    0.0000 C   0  0  0  0  0  0  0  0  0  0  0  0
    3.5221    4.3995    0.0000 C   0  0  0  0  0  0  0  0  0  0  0  0
    4.8212    5.1495    0.0000 C   0  0  0  0  0  0  0  0  0  0  0  0
    3.5221    7.3995    0.0000 C   0  0  2  0  0  0  0  0  0  0  0  0
    6.1202    7.3995    0.0000 C   0  0  1  0  0  0  0  0  0  0  0  0
    6.1202    8.8995    0.0000 C   0  0  2  0  0  0  0  0  0  0  0  0
    4.8212    9.6495    0.0000 C   0  0  0  0  0  0  0  0  0  0  0  0
    3.5221    8.8995    0.0000 C   0  0  0  0  0  0  0  0  0  0  0  0
    7.5468    6.9360    0.0000 C   0  0  0  0  0  0  0  0  0  0  0  0
    8.4285    8.1495    0.0000 C   0  0  0  0  0  0  0  0  0  0  0  0
    7.5468    9.3630    0.0000 C   0  0  0  0  0  0  0  0  0  0  0  0
    8.0103   10.7896    0.0000 O   0  0  0  0  0  0  0  0  0  0  0  0
    6.2770   10.3913    0.0000 C   0  0  0  0  0  0  0  0  0  0  0  0
    3.5221    5.8995    0.0000 H   0  0  0  0  0  0  0  0  0  0  0  0
    6.2770    5.9077    0.0000 H   0  0  0  0  0  0  0  0  0  0  0  0
    3.5221    2.8995    0.0000 C   0  0  0  0  0  0  0  0  0  0  0  0
   -1.6740    4.3995    0.0000 O   0  0  0  0  0  0  0  0  0  0  0  0
    4.8212    8.1495    0.0000 H   0  0  0  0  0  0  0  0  0  0  0  0
    2.2231    6.6495    0.0000 C   0  0  2  0  0  0  0  0  0  0  0  0
    2.2231    8.1495    0.0000 C   0  0  0  0  0  0  0  0  0  0  0  0
    4.8212    6.6495    0.0000 C   0  0  2  0  0  0  0  0  0  0  0  0
  1  2  1  0  0  0  0
  1  5  2  0  0  0  0
  2  3  1  0  0  0  0
  2 21  2  0  0  0  0
  3  4  2  0  0  0  0
  4  6  1  0  0  0  0
  4 23  1  0  0  0  0
  5 23  1  0  0  0  0
  6  7  1  0  0  0  0
  6 20  2  0  0  0  0
  7 25  1  0  0  0  0
  8 12  1  0  0  0  0
  8 18  1  6  0  0  0
  8 23  1  0  0  0  0
  8 25  1  0  0  0  0
  9 10  1  0  0  0  0
  9 13  1  0  0  0  0
  9 19  1  6  0  0  0
  9 25  1  0  0  0  0
 10 11  1  0  0  0  0
 10 15  1  0  0  0  0
 10 17  1  1  0  0  0
 11 12  1  0  0  0  0
 13 14  1  0  0  0  0
 14 15  1  0  0  0  0
 15 16  2  0  0  0  0
 23 24  1  1  0  0  0
 25 22  1  1  0  0  0
M  END
