312887
 OpenBabel07281513532D

 24 26  0  0  1  0  0  0  0  0999 V2000
    5.5351   11.0871    0.0000 F   0  0  0  0  0  0  0  0  0  0  0  0
    4.2360   13.3371    0.0000 N   0  0  0  0  0  0  0  0  0  0  0  0
    2.9370   11.0871    0.0000 N   0  0  0  0  0  0  0  0  0  0  0  0
   -2.8923    7.1017    0.0000 C   0  0  0  0  0  0  0  0  0  0  0  0
   -1.6788    9.4834    0.0000 O   0  0  0  0  0  0  0  0  0  0  0  0
    2.9370   14.0871    0.0000 C   0  0  0  0  0  0  0  0  0  0  0  0
    1.6379   13.3371    0.0000 C   0  0  0  0  0  0  0  0  0  0  0  0
    1.6379   11.8371    0.0000 C   0  0  0  0  0  0  0  0  0  0  0  0
    4.2360   11.8371    0.0000 C   0  0  0  0  0  0  0  0  0  0  0  0
   -0.2522    9.9469    0.0000 C   0  0  3  0  0  0  0  0  0  0  0  0
    0.6295    8.7334    0.0000 C   0  0  3  0  0  0  0  0  0  0  0  0
   -0.2522    7.5199    0.0000 C   0  0  3  0  0  0  0  0  0  0  0  0
   -1.6788    7.9834    0.0000 C   0  0  3  0  0  0  0  0  0  0  0  0
   -2.7355    5.6100    0.0000 O   0  0  0  0  0  0  0  0  0  0  0  0
   -3.9490    4.7283    0.0000 P   0  0  0  0  0  0  0  0  0  0  0  0
   -4.8307    5.9418    0.0000 O   0  0  0  0  0  0  0  0  0  0  0  0
    2.9370   15.5871    0.0000 N   0  0  0  0  0  0  0  0  0  0  0  0
    0.2114    6.0933    0.0000 O   0  0  0  0  0  0  0  0  0  0  0  0
   -0.8705    8.7334    0.0000 O   0  0  0  0  0  0  0  0  0  0  0  0
    0.2114   13.8006    0.0000 N   0  0  0  0  0  0  0  0  0  0  0  0
   -0.6703   12.5871    0.0000 C   0  0  0  0  0  0  0  0  0  0  0  0
    0.2114   11.3735    0.0000 N   0  0  0  0  0  0  0  0  0  0  0  0
   -5.1625    3.8466    0.0000 O   0  0  0  0  0  0  0  0  0  0  0  0
   -3.0673    3.5148    0.0000 O   0  0  0  0  0  0  0  0  0  0  0  0
  1  9  1  0  0  0  0
  2  6  2  0  0  0  0
  2  9  1  0  0  0  0
  3  9  2  0  0  0  0
  3  8  1  0  0  0  0
  4 13  1  0  0  0  0
  4 14  1  0  0  0  0
  5 10  1  0  0  0  0
  5 13  1  0  0  0  0
  6  7  1  0  0  0  0
  6 17  1  0  0  0  0
  7  8  2  0  0  0  0
  7 20  1  0  0  0  0
  8 22  1  0  0  0  0
 10 11  1  0  0  0  0
 10 22  1  0  0  0  0
 11 12  1  0  0  0  0
 11 19  1  0  0  0  0
 12 13  1  0  0  0  0
 12 18  1  0  0  0  0
 14 15  1  0  0  0  0
 15 16  2  0  0  0  0
 15 23  1  0  0  0  0
 15 24  1  0  0  0  0
 20 21  2  0  0  0  0
 21 22  1  0  0  0  0
M  END
