749226
 OpenBabel07281513542D

 29 33  0  0  1  0  0  0  0  0999 V2000
    0.2389    5.5862    0.0000 C   0  0  0  0  0  0  0  0  0  0  0  0
    0.2389    4.0862    0.0000 C   0  0  1  0  0  0  0  0  0  0  0  0
    1.5379    3.3362    0.0000 C   0  0  0  0  0  0  0  0  0  0  0  0
    2.8370    4.0862    0.0000 C   0  0  0  0  0  0  0  0  0  0  0  0
    2.8370    5.5862    0.0000 C   0  0  2  0  0  0  0  0  0  0  0  0
    1.5379    6.3362    0.0000 C   0  0  0  0  0  0  0  0  0  0  0  0
    4.1360    3.3362    0.0000 C   0  0  0  0  0  0  0  0  0  0  0  0
    5.4350    4.0862    0.0000 C   0  0  0  0  0  0  0  0  0  0  0  0
    5.4350    5.5862    0.0000 C   0  0  2  0  0  0  0  0  0  0  0  0
    4.1360    6.3362    0.0000 C   0  0  2  0  0  0  0  0  0  0  0  0
    6.7341    6.3362    0.0000 C   0  0  1  0  0  0  0  0  0  0  0  0
    6.7341    7.8362    0.0000 C   0  0  2  0  0  0  0  0  0  0  0  0
    5.4350    8.5862    0.0000 C   0  0  0  0  0  0  0  0  0  0  0  0
    4.1360    7.8362    0.0000 C   0  0  0  0  0  0  0  0  0  0  0  0
    8.1607    5.8727    0.0000 C   0  0  0  0  0  0  0  0  0  0  0  0
    9.0423    7.0862    0.0000 C   0  0  0  0  0  0  0  0  0  0  0  0
    8.1607    8.2998    0.0000 C   0  0  0  0  0  0  0  0  0  0  0  0
    8.6242    9.7264    0.0000 C   0  0  0  0  0  0  0  0  0  0  0  0
   10.0914   10.0382    0.0000 C   0  0  0  0  0  0  0  0  0  0  0  0
   10.5550   11.4648    0.0000 N   0  0  0  0  0  0  0  0  0  0  0  0
    9.5513   12.5795    0.0000 C   0  0  0  0  0  0  0  0  0  0  0  0
    8.0840   12.2677    0.0000 C   0  0  0  0  0  0  0  0  0  0  0  0
    7.6205   10.8411    0.0000 C   0  0  0  0  0  0  0  0  0  0  0  0
    2.8370    7.0862    0.0000 C   0  0  0  0  0  0  0  0  0  0  0  0
    6.8909    9.3280    0.0000 C   0  0  0  0  0  0  0  0  0  0  0  0
   -1.0601    3.3362    0.0000 O   0  0  0  0  0  0  0  0  0  0  0  0
    4.1360    4.8362    0.0000 H   0  0  0  0  0  0  0  0  0  0  0  0
    6.8909    4.8445    0.0000 H   0  0  0  0  0  0  0  0  0  0  0  0
    5.4350    7.0862    0.0000 H   0  0  0  0  0  0  0  0  0  0  0  0
  1  2  1  0  0  0  0
  1  6  1  0  0  0  0
  2  3  1  0  0  0  0
  2 26  1  1  0  0  0
  3  4  1  0  0  0  0
  4  5  1  0  0  0  0
  4  7  2  0  0  0  0
  5  6  1  0  0  0  0
  5 10  1  0  0  0  0
  5 24  1  1  0  0  0
  7  8  1  0  0  0  0
  8  9  1  0  0  0  0
  9 10  1  0  0  0  0
  9 11  1  0  0  0  0
  9 29  1  1  0  0  0
 10 14  1  0  0  0  0
 10 27  1  6  0  0  0
 11 12  1  0  0  0  0
 11 15  1  0  0  0  0
 11 28  1  6  0  0  0
 12 13  1  0  0  0  0
 12 17  1  0  0  0  0
 12 25  1  1  0  0  0
 13 14  1  0  0  0  0
 15 16  1  0  0  0  0
 16 17  2  0  0  0  0
 17 18  1  0  0  0  0
 18 19  1  0  0  0  0
 18 23  2  0  0  0  0
 19 20  2  0  0  0  0
 20 21  1  0  0  0  0
 21 22  2  0  0  0  0
 22 23  1  0  0  0  0
M  END
