24559
 OpenBabel07281513542D

 77 84  0  0  1  0  0  0  0  0999 V2000
   11.4168   -1.2254    0.0000 C   0  0  0  0  0  0  0  0  0  0  0  0
   12.7159   -1.9754    0.0000 C   0  0  0  0  0  0  0  0  0  0  0  0
   14.0149   -1.2254    0.0000 C   0  0  0  0  0  0  0  0  0  0  0  0
   14.0149    0.2746    0.0000 C   0  0  0  0  0  0  0  0  0  0  0  0
   12.7158    1.0246    0.0000 C   0  0  0  0  0  0  0  0  0  0  0  0
   11.4168    0.2746    0.0000 C   0  0  0  0  0  0  0  0  0  0  0  0
   15.3140   -1.9754    0.0000 C   0  0  0  0  0  0  0  0  0  0  0  0
   16.6130   -1.2254    0.0000 C   0  0  0  0  0  0  0  0  0  0  0  0
   16.6130    0.2746    0.0000 C   0  0  0  0  0  0  0  0  0  0  0  0
   15.3139    1.0246    0.0000 C   0  0  0  0  0  0  0  0  0  0  0  0
   17.9120   -1.9754    0.0000 C   0  0  0  0  0  0  0  0  0  0  0  0
   19.2111   -1.2254    0.0000 C   0  0  2  0  0  0  0  0  0  0  0  0
   19.2111    0.2746    0.0000 C   0  0  1  0  0  0  0  0  0  0  0  0
   17.9120    1.0246    0.0000 C   0  0  0  0  0  0  0  0  0  0  0  0
   17.9120   -3.4754    0.0000 O   0  0  0  0  0  0  0  0  0  0  0  0
   15.3140   -3.4754    0.0000 O   0  0  0  0  0  0  0  0  0  0  0  0
   12.7159   -3.4754    0.0000 O   0  0  0  0  0  0  0  0  0  0  0  0
   20.6883    0.0141    0.0000 C   0  0  1  0  0  0  0  0  0  0  0  0
   21.4383    1.3132    0.0000 C   0  0  0  0  0  0  0  0  0  0  0  0
   22.9155    1.5737    0.0000 C   0  0  2  0  0  0  0  0  0  0  0  0
   23.8797    0.4246    0.0000 C   0  0  1  0  0  0  0  0  0  0  0  0
   20.6883    2.6122    0.0000 O   0  0  0  0  0  0  0  0  0  0  0  0
   25.3569    0.6851    0.0000 C   0  0  0  0  0  0  0  0  0  0  0  0
   23.3667   -0.9849    0.0000 O   0  0  0  0  0  0  0  0  0  0  0  0
   23.4285    2.9832    0.0000 O   0  0  0  0  0  0  0  0  0  0  0  0
   21.2013   -1.3954    0.0000 O   0  0  0  0  0  0  0  0  0  0  0  0
   22.6785   -1.6559    0.0000 C   0  0  0  0  0  0  0  0  0  0  0  0
   20.5101   -1.9754    0.0000 O   0  0  0  0  0  0  0  0  0  0  0  0
    7.1020    2.7657    0.0000 O   0  0  0  0  0  0  0  0  0  0  0  0
   10.1178   -1.9754    0.0000 C   0  0  0  0  0  0  0  0  0  0  0  0
   19.7241    1.6842    0.0000 H   0  0  0  0  0  0  0  0  0  0  0  0
   20.2496   -3.4526    0.0000 C   0  0  3  0  0  0  0  0  0  0  0  0
   21.3987   -4.4168    0.0000 O   0  0  0  0  0  0  0  0  0  0  0  0
   21.1382   -5.8940    0.0000 C   0  0  3  0  0  0  0  0  0  0  0  0
   19.7287   -6.4070    0.0000 C   0  0  3  0  0  0  0  0  0  0  0  0
   18.5796   -5.4428    0.0000 C   0  0  3  0  0  0  0  0  0  0  0  0
   18.8401   -3.9656    0.0000 C   0  0  0  0  0  0  0  0  0  0  0  0
   23.8058   -8.1323    0.0000 C   0  0  3  0  0  0  0  0  0  0  0  0
   25.2154   -7.6193    0.0000 O   0  0  0  0  0  0  0  0  0  0  0  0
   26.3644   -8.5835    0.0000 C   0  0  3  0  0  0  0  0  0  0  0  0
   26.1040  -10.0607    0.0000 C   0  0  3  0  0  0  0  0  0  0  0  0
   24.6944  -10.5737    0.0000 C   0  0  3  0  0  0  0  0  0  0  0  0
   23.5454   -9.6095    0.0000 C   0  0  0  0  0  0  0  0  0  0  0  0
   30.9530    0.0726    0.0000 C   0  0  3  0  0  0  0  0  0  0  0  0
   31.2134    1.5498    0.0000 O   0  0  0  0  0  0  0  0  0  0  0  0
   32.6230    2.0628    0.0000 C   0  0  3  0  0  0  0  0  0  0  0  0
   33.7721    1.0986    0.0000 C   0  0  3  0  0  0  0  0  0  0  0  0
   33.5116   -0.3786    0.0000 C   0  0  3  0  0  0  0  0  0  0  0  0
   32.1020   -0.8916    0.0000 C   0  0  0  0  0  0  0  0  0  0  0  0
    5.8030    2.0157    0.0000 C   0  0  3  0  0  0  0  0  0  0  0  0
    4.5039    2.7657    0.0000 O   0  0  0  0  0  0  0  0  0  0  0  0
    3.2049    2.0157    0.0000 C   0  0  3  0  0  0  0  0  0  0  0  0
    3.2049    0.5157    0.0000 C   0  0  3  0  0  0  0  0  0  0  0  0
    4.5039   -0.2343    0.0000 C   0  0  3  0  0  0  0  0  0  0  0  0
    5.8030    0.5157    0.0000 C   0  0  0  0  0  0  0  0  0  0  0  0
    3.2049    9.5958    0.0000 C   0  0  3  0  0  0  0  0  0  0  0  0
    3.2049   11.0958    0.0000 O   0  0  0  0  0  0  0  0  0  0  0  0
    1.9059   11.8458    0.0000 C   0  0  3  0  0  0  0  0  0  0  0  0
    0.6068   11.0958    0.0000 C   0  0  3  0  0  0  0  0  0  0  0  0
    0.6068    9.5958    0.0000 C   0  0  3  0  0  0  0  0  0  0  0  0
    1.9059    8.8458    0.0000 C   0  0  0  0  0  0  0  0  0  0  0  0
    4.5040    8.8458    0.0000 O   0  0  0  0  0  0  0  0  0  0  0  0
    1.9059   10.3458    0.0000 O   0  0  0  0  0  0  0  0  0  0  0  0
    1.9059   13.3458    0.0000 C   0  0  0  0  0  0  0  0  0  0  0  0
    1.9058    2.7657    0.0000 C   0  0  0  0  0  0  0  0  0  0  0  0
    1.9059   -0.2343    0.0000 O   0  0  0  0  0  0  0  0  0  0  0  0
   19.9892   -4.9298    0.0000 O   0  0  0  0  0  0  0  0  0  0  0  0
   26.2712   -1.6315    0.0000 O   0  0  0  0  0  0  0  0  0  0  0  0
   22.2873   -6.8582    0.0000 C   0  0  0  0  0  0  0  0  0  0  0  0
   27.7740   -8.0704    0.0000 C   0  0  0  0  0  0  0  0  0  0  0  0
   32.8835    3.5400    0.0000 C   0  0  0  0  0  0  0  0  0  0  0  0
   32.3625    0.5856    0.0000 C   0  0  0  0  0  0  0  0  0  0  0  0
   -0.6922   11.8458    0.0000 O   0  0  0  0  0  0  0  0  0  0  0  0
   19.4682   -7.8842    0.0000 O   0  0  0  0  0  0  0  0  0  0  0  0
   27.2530  -11.0249    0.0000 O   0  0  0  0  0  0  0  0  0  0  0  0
   35.1816    1.6116    0.0000 O   0  0  0  0  0  0  0  0  0  0  0  0
   34.6607   -1.3428    0.0000 O   0  0  0  0  0  0  0  0  0  0  0  0
  1  2  2  0  0  0  0
  1  6  1  0  0  0  0
  1 30  1  0  0  0  0
  2  3  1  0  0  0  0
  2 17  1  0  0  0  0
  3  4  2  0  0  0  0
  3  7  1  0  0  0  0
  4  5  1  0  0  0  0
  4 10  1  0  0  0  0
  5  6  2  0  0  0  0
  6 29  1  0  0  0  0
  7  8  2  0  0  0  0
  7 16  1  0  0  0  0
  8  9  1  0  0  0  0
  8 11  1  0  0  0  0
  9 10  2  0  0  0  0
  9 14  1  0  0  0  0
 11 12  1  0  0  0  0
 11 15  2  0  0  0  0
 12 13  1  0  0  0  0
 12 28  1  6  0  0  0
 13 14  1  0  0  0  0
 13 18  1  0  0  0  0
 13 31  1  6  0  0  0
 18 19  1  1  0  0  0
 18 26  1  0  0  0  0
 19 22  2  0  0  0  0
 20 19  1  1  0  0  0
 20 21  1  0  0  0  0
 20 25  1  0  0  0  0
 21 23  1  1  0  0  0
 21 24  1  0  0  0  0
 26 27  1  0  0  0  0
 28 32  1  0  0  0  0
 29 50  1  0  0  0  0
 32 33  1  0  0  0  0
 32 37  1  0  0  0  0
 33 34  1  0  0  0  0
 34 35  1  0  0  0  0
 34 69  1  0  0  0  0
 35 36  1  0  0  0  0
 35 74  1  0  0  0  0
 36 37  1  0  0  0  0
 36 67  1  0  0  0  0
 38 39  1  0  0  0  0
 38 43  1  0  0  0  0
 38 67  1  0  0  0  0
 39 40  1  0  0  0  0
 40 41  1  0  0  0  0
 40 70  1  0  0  0  0
 41 42  1  0  0  0  0
 41 75  1  0  0  0  0
 42 43  1  0  0  0  0
 42 68  1  0  0  0  0
 44 45  1  0  0  0  0
 44 49  1  0  0  0  0
 44 68  1  0  0  0  0
 45 46  1  0  0  0  0
 46 47  1  0  0  0  0
 46 71  1  0  0  0  0
 47 48  1  0  0  0  0
 47 76  1  0  0  0  0
 48 49  1  0  0  0  0
 48 72  1  0  0  0  0
 48 77  1  0  0  0  0
 50 51  1  0  0  0  0
 50 55  1  0  0  0  0
 51 52  1  0  0  0  0
 52 53  1  0  0  0  0
 52 65  1  0  0  0  0
 53 54  1  0  0  0  0
 53 66  1  0  0  0  0
 54 55  1  0  0  0  0
 54 62  1  0  0  0  0
 56 57  1  0  0  0  0
 56 61  1  0  0  0  0
 56 62  1  0  0  0  0
 57 58  1  0  0  0  0
 58 59  1  0  0  0  0
 58 64  1  0  0  0  0
 59 60  1  0  0  0  0
 59 73  1  0  0  0  0
 60 61  1  0  0  0  0
 60 63  1  0  0  0  0
M  END
