754143
 OpenBabel07281513542D

 36 37  0  0  1  0  0  0  0  0999 V2000
    8.0706   -0.5449    0.0000 O   0  0  0  0  0  0  0  0  0  0  0  0
    5.4943   -0.2088    0.0000 C   0  0  0  0  0  0  0  0  0  0  0  0
    5.4943    1.2912    0.0000 C   0  0  0  0  0  0  0  0  0  0  0  0
    4.2202    2.0830    0.0000 O   0  0  0  0  0  0  0  0  0  0  0  0
    9.2616   -1.4567    0.0000 C   0  0  0  0  0  0  0  0  0  0  0  0
   10.6468   -0.8811    0.0000 C   0  0  2  0  0  0  0  0  0  0  0  0
    9.0676   -2.9441    0.0000 O   0  0  0  0  0  0  0  0  0  0  0  0
   11.8379   -1.7928    0.0000 C   0  0  0  0  0  0  0  0  0  0  0  0
   12.2260    1.1820    0.0000 C   0  0  0  0  0  0  0  0  0  0  0  0
   13.4171    0.2702    0.0000 O   0  0  0  0  0  0  0  0  0  0  0  0
   12.4201    2.6694    0.0000 C   0  0  0  0  0  0  0  0  0  0  0  0
   13.8052    3.2450    0.0000 C   0  0  0  0  0  0  0  0  0  0  0  0
    7.3382    3.3700    0.0000 C   0  0  1  0  0  0  0  0  0  0  0  0
    8.7648    3.8335    0.0000 C   0  0  0  0  0  0  0  0  0  0  0  0
    6.2909    4.4438    0.0000 C   0  0  0  0  0  0  0  0  0  0  0  0
    7.7978    4.9802    0.0000 O   0  0  0  0  0  0  0  0  0  0  0  0
    6.8392    1.9554    0.0000 N   0  0  0  0  0  0  0  0  0  0  0  0
    6.6972    5.8878    0.0000 C   0  0  0  0  0  0  0  0  0  0  0  0
    9.4625    5.1614    0.0000 N   0  0  0  0  0  0  0  0  0  0  0  0
   13.2230   -1.2172    0.0000 C   0  0  0  0  0  0  0  0  0  0  0  0
   11.6438   -3.2802    0.0000 C   0  0  0  0  0  0  0  0  0  0  0  0
   13.9993    4.7324    0.0000 C   0  0  0  0  0  0  0  0  0  0  0  0
   11.4231    5.0685    0.0000 C   0  0  0  0  0  0  0  0  0  0  0  0
   12.6074    5.9891    0.0000 O   0  0  0  0  0  0  0  0  0  0  0  0
    6.6854   -1.1206    0.0000 C   0  0  1  0  0  0  0  0  0  0  0  0
    8.0303   -0.4563    0.0000 C   0  0  0  0  0  0  0  0  0  0  0  0
    9.4569   -0.9198    0.0000 C   0  0  0  0  0  0  0  0  0  0  0  0
   10.6921   -0.0688    0.0000 C   0  0  0  0  0  0  0  0  0  0  0  0
   12.1497    0.2852    0.0000 C   0  0  0  0  0  0  0  0  0  0  0  0
   12.4029    1.7637    0.0000 S   0  0  0  0  0  0  0  0  0  0  0  0
   11.1461    2.5825    0.0000 S   0  0  0  0  0  0  0  0  0  0  0  0
   11.8437    3.9104    0.0000 C   0  0  0  0  0  0  0  0  0  0  0  0
   10.9620    5.1239    0.0000 C   0  0  1  0  0  0  0  0  0  0  0  0
   10.8409    0.6063    0.0000 N   0  0  0  0  0  0  0  0  0  0  0  0
   11.2290    3.5811    0.0000 N   0  0  0  0  0  0  0  0  0  0  0  0
    4.8373    4.0737    0.0000 C   0  0  0  0  0  0  0  0  0  0  0  0
  1  5  1  0  0  0  0
  2  3  1  0  0  0  0
  2 25  1  0  0  0  0
  3  4  2  0  0  0  0
  3 17  1  0  0  0  0
  5  6  1  0  0  0  0
  5  7  2  0  0  0  0
  6  8  1  1  0  0  0
  6 34  1  0  0  0  0
  8 20  1  0  0  0  0
  8 21  1  0  0  0  0
  9 10  2  0  0  0  0
  9 11  1  0  0  0  0
  9 34  1  0  0  0  0
 11 12  2  0  0  0  0
 11 35  1  0  0  0  0
 12 22  1  0  0  0  0
 13 14  1  0  0  0  0
 13 15  1  6  0  0  0
 13 17  1  0  0  0  0
 14 16  2  0  0  0  0
 14 19  1  0  0  0  0
 15 18  1  0  0  0  0
 15 36  1  0  0  0  0
 23 24  2  0  0  0  0
 23 35  1  0  0  0  0
 25  1  1  1  0  0  0
 25 26  1  0  0  0  0
 26 27  2  0  0  0  0
 27 28  1  0  0  0  0
 28 29  1  0  0  0  0
 29 30  1  0  0  0  0
 30 31  1  0  0  0  0
 31 32  1  0  0  0  0
 32 33  1  0  0  0  0
 33 23  1  1  0  0  0
 33 19  1  0  0  0  0
M  END
