758252
 OpenBabel07281513542D

 52 55  0  0  1  0  0  0  0  0999 V2000
   -3.7820    0.4839    0.0000 C   0  0  0  0  0  0  0  0  0  0  0  0
   -3.0890    0.8839    0.0000 C   0  0  1  0  0  0  0  0  0  0  0  0
   -3.7820   -0.3160    0.0000 O   0  0  0  0  0  0  0  0  0  0  0  0
   -1.7040    0.8839    0.0000 C   0  0  0  0  0  0  0  0  0  0  0  0
   -1.0109    0.4839    0.0000 C   0  0  2  0  0  0  0  0  0  0  0  0
   -1.7040    1.6839    0.0000 O   0  0  0  0  0  0  0  0  0  0  0  0
   -1.0109   -0.3160    0.0000 C   0  0  0  0  0  0  0  0  0  0  0  0
   -1.7040   -0.7160    0.0000 C   0  0  0  0  0  0  0  0  0  0  0  0
   -2.3970   -0.3160    0.0000 C   0  0  0  0  0  0  0  0  0  0  0  0
   -3.0890   -0.7160    0.0000 C   0  0  0  0  0  0  0  0  0  0  0  0
   -3.0890   -1.5160    0.0000 C   0  0  0  0  0  0  0  0  0  0  0  0
   -2.3970   -1.9160    0.0000 C   0  0  0  0  0  0  0  0  0  0  0  0
   -1.7040   -1.5160    0.0000 C   0  0  0  0  0  0  0  0  0  0  0  0
    0.3750    0.4839    0.0000 C   0  0  0  0  0  0  0  0  0  0  0  0
    1.0679    0.8839    0.0000 C   0  0  2  0  0  0  0  0  0  0  0  0
    0.3750   -0.3160    0.0000 O   0  0  0  0  0  0  0  0  0  0  0  0
    1.0679    1.6839    0.0000 C   0  0  0  0  0  0  0  0  0  0  0  0
    0.3750    2.0840    0.0000 C   0  0  0  0  0  0  0  0  0  0  0  0
    2.4529    0.8839    0.0000 C   0  0  0  0  0  0  0  0  0  0  0  0
    3.1460    0.4839    0.0000 C   0  0  2  0  0  0  0  0  0  0  0  0
    2.4529    1.6839    0.0000 O   0  0  0  0  0  0  0  0  0  0  0  0
    3.1460   -0.3160    0.0000 C   0  0  0  0  0  0  0  0  0  0  0  0
    2.4529   -0.7160    0.0000 C   0  0  0  0  0  0  0  0  0  0  0  0
    2.4529   -1.5160    0.0000 C   0  0  0  0  0  0  0  0  0  0  0  0
    1.7600   -1.9160    0.0000 C   0  0  0  0  0  0  0  0  0  0  0  0
    1.7600   -2.7160    0.0000 C   0  0  0  0  0  0  0  0  0  0  0  0
    2.4529   -3.1159    0.0000 C   0  0  0  0  0  0  0  0  0  0  0  0
    3.1460   -2.7160    0.0000 C   0  0  0  0  0  0  0  0  0  0  0  0
    3.1460   -1.9160    0.0000 C   0  0  0  0  0  0  0  0  0  0  0  0
    4.5320    0.4839    0.0000 C   0  0  0  0  0  0  0  0  0  0  0  0
    5.2250    0.8839    0.0000 C   0  0  0  0  0  0  0  0  0  0  0  0
    4.5320   -0.3160    0.0000 O   0  0  0  0  0  0  0  0  0  0  0  0
    5.9169    0.4839    0.0000 N   0  0  0  0  0  0  0  0  0  0  0  0
    5.9169   -0.3160    0.0000 C   0  0  0  0  0  0  0  0  0  0  0  0
    6.6100   -0.7160    0.0000 C   0  0  0  0  0  0  0  0  0  0  0  0
    7.3020   -0.3160    0.0000 O   0  0  0  0  0  0  0  0  0  0  0  0
    7.3020    0.4839    0.0000 C   0  0  0  0  0  0  0  0  0  0  0  0
    6.6100    0.8839    0.0000 C   0  0  0  0  0  0  0  0  0  0  0  0
    3.8389    0.8839    0.0000 N   0  0  0  0  0  0  0  0  0  0  0  0
    1.7610    0.4839    0.0000 N   0  0  0  0  0  0  0  0  0  0  0  0
   -0.3179    0.8839    0.0000 N   0  0  0  0  0  0  0  0  0  0  0  0
   -2.3959    0.4839    0.0000 N   0  0  0  0  0  0  0  0  0  0  0  0
    0.3750    2.8840    0.0000 C   0  0  0  0  0  0  0  0  0  0  0  0
   -3.0890    1.6839    0.0000 C   0  0  0  0  0  0  0  0  0  0  0  0
   -3.6259    2.7269    0.0000 C   0  0  0  0  0  0  0  0  0  0  0  0
   -4.8750    1.7070    0.0000 C   0  0  0  0  0  0  0  0  0  0  0  0
   -3.2259    3.4200    0.0000 C   0  0  0  0  0  0  0  0  0  0  0  0
   -4.4749    0.8839    0.0000 C   0  0  2  0  0  0  0  0  0  0  0  0
   -5.2519    1.0920    0.0000 O   0  0  0  0  0  0  0  0  0  0  0  0
   -5.0399    0.3189    0.0000 C   0  0  0  0  0  0  0  0  0  0  0  0
   -4.4699    2.7269    0.0000 C   0  0  0  0  0  0  0  0  0  0  0  0
   -0.3179    1.6839    0.0000 C   0  0  0  0  0  0  0  0  0  0  0  0
  1  3  2  0  0  0  0
  2  1  1  6  0  0  0
  2 42  1  0  0  0  0
  2 44  1  0  0  0  0
  4  6  2  0  0  0  0
  4 42  1  0  0  0  0
  5  4  1  1  0  0  0
  5  7  1  0  0  0  0
  5 41  1  0  0  0  0
  7  8  1  0  0  0  0
  8  9  2  0  0  0  0
  8 13  1  0  0  0  0
  9 10  1  0  0  0  0
 10 11  2  0  0  0  0
 11 12  1  0  0  0  0
 12 13  2  0  0  0  0
 14 16  2  0  0  0  0
 14 41  1  0  0  0  0
 15 14  1  6  0  0  0
 15 17  1  0  0  0  0
 15 40  1  0  0  0  0
 17 18  1  0  0  0  0
 18 43  1  0  0  0  0
 18 52  1  0  0  0  0
 19 21  2  0  0  0  0
 19 40  1  0  0  0  0
 20 19  1  1  0  0  0
 20 22  1  0  0  0  0
 20 39  1  0  0  0  0
 22 23  1  0  0  0  0
 23 24  1  0  0  0  0
 24 25  2  0  0  0  0
 24 29  1  0  0  0  0
 25 26  1  0  0  0  0
 26 27  2  0  0  0  0
 27 28  1  0  0  0  0
 28 29  2  0  0  0  0
 30 31  1  0  0  0  0
 30 32  2  0  0  0  0
 30 39  1  0  0  0  0
 31 33  1  0  0  0  0
 33 34  1  0  0  0  0
 33 38  1  0  0  0  0
 34 35  1  0  0  0  0
 35 36  1  0  0  0  0
 36 37  1  0  0  0  0
 37 38  1  0  0  0  0
 44 45  1  0  0  0  0
 45 47  1  0  0  0  0
 45 51  1  0  0  0  0
 48  1  1  1  0  0  0
 48 46  1  0  0  0  0
 48 49  1  0  0  0  0
 48 50  1  0  0  0  0
 49 50  1  0  0  0  0
M  END
