362856
 OpenBabel07281513532D

 14 15  0  0  0  0  0  0  0  0999 V2000
   -6.0018    0.0595    0.0000 C   0  0  0  0  0  0  0  0  0  0  0  0
   -5.9903   -1.4404    0.0000 N   0  0  0  0  0  0  0  0  0  0  0  0
   -4.6855   -2.1804    0.0000 C   0  0  0  0  0  0  0  0  0  0  0  0
   -3.3923   -1.4205    0.0000 N   0  0  0  0  0  0  0  0  0  0  0  0
   -3.4038    0.0795    0.0000 N   0  0  0  0  0  0  0  0  0  0  0  0
   -4.7086    0.8195    0.0000 N   0  0  0  0  0  0  0  0  0  0  0  0
   -7.4319    0.5120    0.0000 C   0  0  0  0  0  0  0  0  0  0  0  0
   -8.3042   -0.7082    0.0000 N   0  0  0  0  0  0  0  0  0  0  0  0
   -7.4132   -1.9149    0.0000 C   0  0  0  0  0  0  0  0  0  0  0  0
   -7.9064    1.9350    0.0000 C   0  0  0  0  0  0  0  0  0  0  0  0
   -6.9113    3.0574    0.0000 O   0  0  0  0  0  0  0  0  0  0  0  0
   -4.6739   -3.6804    0.0000 O   0  0  0  0  0  0  0  0  0  0  0  0
   -9.3760    2.2356    0.0000 N   0  0  0  0  0  0  0  0  0  0  0  0
   -2.0875   -2.1604    0.0000 C   0  0  0  0  0  0  0  0  0  0  0  0
  1  2  1  0  0  0  0
  1  6  1  0  0  0  0
  1  7  2  0  0  0  0
  2  3  1  0  0  0  0
  2  9  1  0  0  0  0
  3  4  1  0  0  0  0
  3 12  2  0  0  0  0
  4  5  1  0  0  0  0
  4 14  1  0  0  0  0
  5  6  2  0  0  0  0
  7  8  1  0  0  0  0
  7 10  1  0  0  0  0
  8  9  2  0  0  0  0
 10 11  2  0  0  0  0
 10 13  1  0  0  0  0
M  END
