241240
 OpenBabel07281513542D

 17 18  0  0  0  0  0  0  0  0999 V2000
    0.4865   -6.5852    0.0000 O   0  0  0  0  0  0  0  0  0  0  0  0
   -0.8126   -5.8352    0.0000 C   0  0  0  0  0  0  0  0  0  0  0  0
   -0.8126   -4.3352    0.0000 C   0  0  0  0  0  0  0  0  0  0  0  0
   -2.1116   -6.5852    0.0000 O   0  0  0  0  0  0  0  0  0  0  0  0
   -2.1116   -3.5852    0.0000 C   0  0  0  0  0  0  0  0  0  0  0  0
   -0.4244   -2.8863    0.0000 C   0  0  0  0  0  0  0  0  0  0  0  0
    0.6363   -4.7234    0.0000 C   0  0  0  0  0  0  0  0  0  0  0  0
   -3.4107   -5.8352    0.0000 Pt  0  0  0  0  0  0  0  0  0  0  0  0
   -2.1116   -2.0852    0.0000 O   0  0  0  0  0  0  0  0  0  0  0  0
   -3.4107   -4.3352    0.0000 O   0  0  0  0  0  0  0  0  0  0  0  0
    1.0245   -3.2745    0.0000 C   0  0  0  0  0  0  0  0  0  0  0  0
   -4.8879   -5.5747    0.0000 N   0  0  0  0  0  0  0  0  0  0  0  0
   -3.9237   -7.2447    0.0000 N   0  0  0  0  0  0  0  0  0  0  0  0
   -2.9595   -8.3938    0.0000 H   0  0  0  0  0  0  0  0  0  0  0  0
   -5.4009   -7.5052    0.0000 H   0  0  0  0  0  0  0  0  0  0  0  0
   -5.8521   -6.7238    0.0000 H   0  0  0  0  0  0  0  0  0  0  0  0
   -5.4009   -4.1652    0.0000 H   0  0  0  0  0  0  0  0  0  0  0  0
  2  1  2  0  0  0  0
  3  2  1  0  0  0  0
  4  2  1  0  0  0  0
  5  3  1  0  0  0  0
  6  3  1  0  0  0  0
  7  3  1  0  0  0  0
  8  4  1  0  0  0  0
  9  5  2  0  0  0  0
 10  5  1  0  0  0  0
 10  8  1  0  0  0  0
 11  6  1  0  0  0  0
 11  7  1  0  0  0  0
 12  8  1  0  0  0  0
 12 16  1  0  0  0  0
 12 17  1  0  0  0  0
 13  8  1  0  0  0  0
 13 14  1  0  0  0  0
 13 15  1  0  0  0  0
M  END
