256942
 OpenBabel07281513542D

 40 43  0  0  1  0  0  0  0  0999 V2000
    0.7500    7.7927    0.0000 C   0  0  0  0  0  0  0  0  0  0  0  0
    0.7500    6.2927    0.0000 C   0  0  0  0  0  0  0  0  0  0  0  0
    2.0490    5.5427    0.0000 C   0  0  0  0  0  0  0  0  0  0  0  0
    3.3481    6.2927    0.0000 C   0  0  0  0  0  0  0  0  0  0  0  0
    3.3481    7.7927    0.0000 C   0  0  0  0  0  0  0  0  0  0  0  0
    2.0490    8.5427    0.0000 C   0  0  0  0  0  0  0  0  0  0  0  0
    4.6471    5.5427    0.0000 C   0  0  0  0  0  0  0  0  0  0  0  0
    5.9462    6.2927    0.0000 C   0  0  0  0  0  0  0  0  0  0  0  0
    5.9462    7.7927    0.0000 C   0  0  0  0  0  0  0  0  0  0  0  0
    4.6471    8.5427    0.0000 C   0  0  0  0  0  0  0  0  0  0  0  0
    7.2452    5.5427    0.0000 C   0  0  0  0  0  0  0  0  0  0  0  0
    8.5442    6.2927    0.0000 C   0  0  0  0  0  0  0  0  0  0  0  0
    8.5442    7.7927    0.0000 C   0  0  0  0  0  0  0  0  0  0  0  0
    7.2452    8.5427    0.0000 C   0  0  0  0  0  0  0  0  0  0  0  0
    9.8433    5.5427    0.0000 C   0  0  2  0  0  0  0  0  0  0  0  0
   11.1423    6.2927    0.0000 C   0  0  0  0  0  0  0  0  0  0  0  0
   11.1423    7.7927    0.0000 C   0  0  1  0  0  0  0  0  0  0  0  0
    9.8433    8.5427    0.0000 C   0  0  0  0  0  0  0  0  0  0  0  0
    4.6471   10.0427    0.0000 O   0  0  0  0  0  0  0  0  0  0  0  0
   12.6195    7.5323    0.0000 C   0  0  0  0  0  0  0  0  0  0  0  0
   13.5837    8.6813    0.0000 C   0  0  0  0  0  0  0  0  0  0  0  0
   13.1326    6.1227    0.0000 O   0  0  0  0  0  0  0  0  0  0  0  0
   14.1549    3.7406    0.0000 C   0  0  3  0  0  0  0  0  0  0  0  0
   12.8559    2.9906    0.0000 O   0  0  0  0  0  0  0  0  0  0  0  0
   11.1423    3.2927    0.0000 C   0  0  3  0  0  0  0  0  0  0  0  0
   12.6657    1.4772    0.0000 C   0  0  0  0  0  0  0  0  0  0  0  0
   13.9648    2.2272    0.0000 C   0  0  3  0  0  0  0  0  0  0  0  0
   15.6783    1.9251    0.0000 C   0  0  3  0  0  0  0  0  0  0  0  0
    9.8433    4.0427    0.0000 O   0  0  0  0  0  0  0  0  0  0  0  0
    4.6471    4.0427    0.0000 O   0  0  0  0  0  0  0  0  0  0  0  0
    2.0490    4.0427    0.0000 O   0  0  0  0  0  0  0  0  0  0  0  0
    0.7500    3.2927    0.0000 C   0  0  0  0  0  0  0  0  0  0  0  0
    7.2452    4.0427    0.0000 O   0  0  0  0  0  0  0  0  0  0  0  0
    7.2452   10.0427    0.0000 O   0  0  0  0  0  0  0  0  0  0  0  0
   11.6553    9.2023    0.0000 O   0  0  0  0  0  0  0  0  0  0  0  0
   15.0609    8.4209    0.0000 O   0  0  0  0  0  0  0  0  0  0  0  0
   16.9774    1.1750    0.0000 O   0  0  0  0  0  0  0  0  0  0  0  0
   14.4154    5.2178    0.0000 C   0  0  0  0  0  0  0  0  0  0  0  0
   14.2252    0.7500    0.0000 N   0  0  0  0  0  0  0  0  0  0  0  0
    7.6799   11.5427    0.0000 Cl  0  0  0  0  0  0  0  0  0  0  0  0
  1  2  2  0  0  0  0
  1  6  1  0  0  0  0
  2  3  1  0  0  0  0
  3  4  2  0  0  0  0
  3 31  1  0  0  0  0
  4  5  1  0  0  0  0
  4  7  1  0  0  0  0
  5  6  2  0  0  0  0
  5 10  1  0  0  0  0
  7  8  1  0  0  0  0
  7 30  2  0  0  0  0
  8  9  2  0  0  0  0
  8 11  1  0  0  0  0
  9 10  1  0  0  0  0
  9 14  1  0  0  0  0
 10 19  2  0  0  0  0
 11 12  2  0  0  0  0
 11 33  1  0  0  0  0
 12 13  1  0  0  0  0
 12 15  1  0  0  0  0
 13 14  2  0  0  0  0
 13 18  1  0  0  0  0
 14 34  1  0  0  0  0
 15 16  1  0  0  0  0
 15 29  1  6  0  0  0
 16 17  1  0  0  0  0
 17 18  1  0  0  0  0
 17 20  1  1  0  0  0
 17 35  1  0  0  0  0
 20 21  1  0  0  0  0
 20 22  2  0  0  0  0
 21 36  1  0  0  0  0
 23 24  1  0  0  0  0
 23 28  1  0  0  0  0
 23 38  1  0  0  0  0
 24 25  1  0  0  0  0
 25 26  1  0  0  0  0
 25 29  1  0  0  0  0
 26 27  1  0  0  0  0
 27 28  1  0  0  0  0
 27 39  1  0  0  0  0
 28 37  1  0  0  0  0
 31 32  1  0  0  0  0
M  END
