63878
 OpenBabel07281513532D

 18 18  0  0  1  0  0  0  0  0999 V2000
   -1.4731   -0.7769    0.0000 O   0  0  0  0  0  0  0  0  0  0  0  0
    0.4866    1.0409    0.0000 N   0  0  0  0  0  0  0  0  0  0  0  0
    2.4813    2.7056    0.0000 N   0  0  0  0  0  0  0  0  0  0  0  0
    2.9257    0.1458    0.0000 O   0  0  0  0  0  0  0  0  0  0  0  0
    1.5201    3.8573    0.0000 C   0  0  0  0  0  0  0  0  0  0  0  0
    0.0422    3.6007    0.0000 C   0  0  0  0  0  0  0  0  0  0  0  0
   -0.4745    2.1925    0.0000 C   0  0  0  0  0  0  0  0  0  0  0  0
    1.9645    1.2975    0.0000 C   0  0  0  0  0  0  0  0  0  0  0  0
   -0.0301   -0.3673    0.0000 C   0  0  3  0  0  0  0  0  0  0  0  0
    0.8054   -1.6130    0.0000 C   0  0  3  0  0  0  0  0  0  0  0  0
   -0.1213   -2.7926    0.0000 C   0  0  3  0  0  0  0  0  0  0  0  0
   -1.5294   -2.2759    0.0000 C   0  0  3  0  0  0  0  0  0  0  0  0
   -2.6745   -4.6080    0.0000 O   0  0  0  0  0  0  0  0  0  0  0  0
   -2.7752   -3.1114    0.0000 C   0  0  0  0  0  0  0  0  0  0  0  0
    0.2884   -4.2356    0.0000 O   0  0  0  0  0  0  0  0  0  0  0  0
   -0.6936   -1.5567    0.0000 O   0  0  0  0  0  0  0  0  0  0  0  0
    2.0369    5.2654    0.0000 N   0  0  0  0  0  0  0  0  0  0  0  0
   -2.7793    1.2316    0.0000 Cl  0  0  0  0  0  0  0  0  0  0  0  0
  1  9  1  0  0  0  0
  1 12  1  0  0  0  0
  2  7  1  0  0  0  0
  2  8  1  0  0  0  0
  2  9  1  0  0  0  0
  3  5  2  0  0  0  0
  3  8  1  0  0  0  0
  4  8  2  0  0  0  0
  5  6  1  0  0  0  0
  5 17  1  0  0  0  0
  6  7  2  0  0  0  0
  9 10  1  0  0  0  0
 10 11  1  0  0  0  0
 10 16  1  0  0  0  0
 11 12  1  0  0  0  0
 11 15  1  0  0  0  0
 12 14  1  0  0  0  0
 13 14  1  0  0  0  0
M  END
