71423
 OpenBabel07281513532D

 31 34  0  0  1  0  0  0  0  0999 V2000
   -3.9403    2.5753    0.0000 O   0  0  0  0  0  0  0  0  0  0  0  0
   -0.6182    6.8431    0.0000 H   0  0  0  0  0  0  0  0  0  0  0  0
   -0.8897    9.4269    0.0000 H   0  0  0  0  0  0  0  0  0  0  0  0
    1.6058    8.4690    0.0000 H   0  0  0  0  0  0  0  0  0  0  0  0
    0.6021   12.0108    0.0000 C   0  0  1  0  0  0  0  0  0  0  0  0
    2.0287   11.5472    0.0000 C   0  0  0  0  0  0  0  0  0  0  0  0
   -0.2796   10.7972    0.0000 C   0  0  1  0  0  0  0  0  0  0  0  0
   -1.7714   10.6404    0.0000 C   0  0  0  0  0  0  0  0  0  0  0  0
   -2.3815    9.2701    0.0000 C   0  0  0  0  0  0  0  0  0  0  0  0
    2.0287   10.0472    0.0000 C   0  0  0  0  0  0  0  0  0  0  0  0
    0.6021    9.5837    0.0000 C   0  0  1  0  0  0  0  0  0  0  0  0
   -1.4998    8.0566    0.0000 C   0  0  1  0  0  0  0  0  0  0  0  0
   -0.0081    8.2134    0.0000 C   0  0  1  0  0  0  0  0  0  0  0  0
   -2.1100    6.6863    0.0000 C   0  0  1  0  0  0  0  0  0  0  0  0
   -3.6017    6.5295    0.0000 C   0  0  0  0  0  0  0  0  0  0  0  0
   -4.2119    5.1592    0.0000 C   0  0  0  0  0  0  0  0  0  0  0  0
    0.8736    6.9998    0.0000 C   0  0  0  0  0  0  0  0  0  0  0  0
   -1.2283    5.4727    0.0000 C   0  0  0  0  0  0  0  0  0  0  0  0
   -3.3302    3.9456    0.0000 C   0  0  0  0  0  0  0  0  0  0  0  0
    0.2635    5.6295    0.0000 C   0  0  0  0  0  0  0  0  0  0  0  0
   -1.8384    4.1024    0.0000 C   0  0  0  0  0  0  0  0  0  0  0  0
   -2.9916    7.8998    0.0000 C   0  0  0  0  0  0  0  0  0  0  0  0
    1.1452    4.4160    0.0000 C   0  0  0  0  0  0  0  0  0  0  0  0
   -1.0296   12.0963    0.0000 C   0  0  0  0  0  0  0  0  0  0  0  0
   -0.3621   13.1598    0.0000 C   0  0  0  0  0  0  0  0  0  0  0  0
   -1.8393   12.8993    0.0000 O   0  0  0  0  0  0  0  0  0  0  0  0
    0.1509   14.5694    0.0000 C   0  0  0  0  0  0  0  0  0  0  0  0
    1.4409   13.2543    0.0000 O   0  0  0  0  0  0  0  0  0  0  0  0
    2.9372   13.1497    0.0000 C   0  0  0  0  0  0  0  0  0  0  0  0
    3.7760   14.3932    0.0000 O   0  0  0  0  0  0  0  0  0  0  0  0
    3.5948   11.8015    0.0000 C   0  0  0  0  0  0  0  0  0  0  0  0
  1 19  2  0  0  0  0
  5  6  1  0  0  0  0
  5  7  1  0  0  0  0
  5 25  1  1  0  0  0
  5 28  1  0  0  0  0
  6 10  1  0  0  0  0
  7  8  1  0  0  0  0
  7 11  1  0  0  0  0
  7 24  1  1  0  0  0
  8  9  1  0  0  0  0
  9 12  1  0  0  0  0
 10 11  1  0  0  0  0
 11  4  1  6  0  0  0
 11 13  1  0  0  0  0
 12  2  1  6  0  0  0
 12 14  1  0  0  0  0
 12 13  1  0  0  0  0
 13  3  1  1  0  0  0
 13 17  1  0  0  0  0
 14 15  1  0  0  0  0
 14 18  1  0  0  0  0
 14 22  1  1  0  0  0
 15 16  1  0  0  0  0
 16 19  1  0  0  0  0
 17 20  2  0  0  0  0
 18 21  2  0  0  0  0
 18 20  1  0  0  0  0
 19 21  1  0  0  0  0
 20 23  1  0  0  0  0
 25 26  2  0  0  0  0
 25 27  1  0  0  0  0
 28 29  1  0  0  0  0
 29 30  2  0  0  0  0
 29 31  1  0  0  0  0
M  END
