740
 OpenBabel07281513542D

 33 35  0  0  1  0  0  0  0  0999 V2000
   -5.9462   -0.7500    0.0000 N   0  0  0  0  0  0  0  0  0  0  0  0
   -5.9462   -3.7500    0.0000 N   0  0  0  0  0  0  0  0  0  0  0  0
   -3.3481   -0.7500    0.0000 N   0  0  0  0  0  0  0  0  0  0  0  0
   -2.0490   -3.0000    0.0000 N   0  0  0  0  0  0  0  0  0  0  0  0
   -2.0490   -1.5000    0.0000 C   0  0  0  0  0  0  0  0  0  0  0  0
   -4.6471   -1.5000    0.0000 C   0  0  0  0  0  0  0  0  0  0  0  0
   -4.6471   -3.0000    0.0000 C   0  0  0  0  0  0  0  0  0  0  0  0
   -3.3481   -3.7500    0.0000 C   0  0  0  0  0  0  0  0  0  0  0  0
   -7.2452   -1.5000    0.0000 C   0  0  0  0  0  0  0  0  0  0  0  0
   -7.2452   -3.0000    0.0000 C   0  0  0  0  0  0  0  0  0  0  0  0
  -12.4413   -3.0000    0.0000 C   0  0  0  0  0  0  0  0  0  0  0  0
  -13.7404   -3.7500    0.0000 C   0  0  0  0  0  0  0  0  0  0  0  0
  -11.1423   -3.7500    0.0000 C   0  0  0  0  0  0  0  0  0  0  0  0
  -11.1423   -5.2500    0.0000 C   0  0  0  0  0  0  0  0  0  0  0  0
  -13.7404   -5.2500    0.0000 C   0  0  0  0  0  0  0  0  0  0  0  0
  -12.4413   -6.0000    0.0000 C   0  0  0  0  0  0  0  0  0  0  0  0
  -20.2356   -6.0000    0.0000 C   0  0  0  0  0  0  0  0  0  0  0  0
  -18.9365   -5.2500    0.0000 C   0  0  0  0  0  0  0  0  0  0  0  0
  -17.6375   -6.0000    0.0000 C   0  0  2  0  0  0  0  0  0  0  0  0
  -15.0394   -6.0000    0.0000 C   0  0  0  0  0  0  0  0  0  0  0  0
  -15.0394   -7.5000    0.0000 O   0  0  0  0  0  0  0  0  0  0  0  0
   -9.8433   -3.0000    0.0000 N   0  0  0  0  0  0  0  0  0  0  0  0
   -8.5442   -3.7500    0.0000 C   0  0  0  0  0  0  0  0  0  0  0  0
   -9.8433   -1.5000    0.0000 C   0  0  0  0  0  0  0  0  0  0  0  0
  -16.3384   -5.2500    0.0000 N   0  0  0  0  0  0  0  0  0  0  0  0
   -0.7500   -0.7500    0.0000 N   0  0  0  0  0  0  0  0  0  0  0  0
   -3.3481   -5.2500    0.0000 N   0  0  0  0  0  0  0  0  0  0  0  0
  -17.6375   -7.5000    0.0000 C   0  0  0  0  0  0  0  0  0  0  0  0
  -18.9365   -8.2500    0.0000 O   0  0  0  0  0  0  0  0  0  0  0  0
  -16.3384   -8.2500    0.0000 O   0  0  0  0  0  0  0  0  0  0  0  0
  -21.5346   -5.2500    0.0000 C   0  0  0  0  0  0  0  0  0  0  0  0
  -22.8336   -6.0000    0.0000 O   0  0  0  0  0  0  0  0  0  0  0  0
  -21.5346   -3.7500    0.0000 O   0  0  0  0  0  0  0  0  0  0  0  0
  1  9  2  0  0  0  0
  1  6  1  0  0  0  0
  2 10  2  0  0  0  0
  2  7  1  0  0  0  0
  3  5  2  0  0  0  0
  3  6  1  0  0  0  0
  4  8  2  0  0  0  0
  4  5  1  0  0  0  0
  5 26  1  0  0  0  0
  6  7  2  0  0  0  0
  7  8  1  0  0  0  0
  8 27  1  0  0  0  0
  9 10  1  0  0  0  0
 10 23  1  0  0  0  0
 11 12  2  0  0  0  0
 11 13  1  0  0  0  0
 12 15  1  0  0  0  0
 13 14  2  0  0  0  0
 13 22  1  0  0  0  0
 14 16  1  0  0  0  0
 15 16  2  0  0  0  0
 15 20  1  0  0  0  0
 17 18  1  0  0  0  0
 17 31  1  0  0  0  0
 19 18  1  6  0  0  0
 19 25  1  0  0  0  0
 19 28  1  0  0  0  0
 20 21  2  0  0  0  0
 20 25  1  0  0  0  0
 22 23  1  0  0  0  0
 22 24  1  0  0  0  0
 28 29  1  0  0  0  0
 28 30  2  0  0  0  0
 31 32  1  0  0  0  0
 31 33  2  0  0  0  0
M  END
