85998
 OpenBabel07281513542D

 18 17  0  0  1  0  0  0  0  0999 V2000
   -0.3750    5.1495    0.0000 C   0  0  0  0  0  0  0  0  0  0  0  0
    0.9240    4.3995    0.0000 C   0  0  2  0  0  0  0  0  0  0  0  0
    2.2231    5.1495    0.0000 C   0  0  2  0  0  0  0  0  0  0  0  0
    3.5221    4.3995    0.0000 C   0  0  1  0  0  0  0  0  0  0  0  0
    4.8211    5.1495    0.0000 C   0  0  1  0  0  0  0  0  0  0  0  0
    6.1202    7.3995    0.0000 C   0  0  0  0  0  0  0  0  0  0  0  0
    7.4192    6.6495    0.0000 N   0  0  0  0  0  0  0  0  0  0  0  0
    6.1202    8.8995    0.0000 O   0  0  0  0  0  0  0  0  0  0  0  0
    0.9240    2.8995    0.0000 O   0  0  0  0  0  0  0  0  0  0  0  0
    2.2231    6.6495    0.0000 O   0  0  0  0  0  0  0  0  0  0  0  0
    3.5221    2.8995    0.0000 O   0  0  0  0  0  0  0  0  0  0  0  0
    7.4192    5.1496    0.0000 C   0  0  0  0  0  0  0  0  0  0  0  0
    4.8211    6.6495    0.0000 N   0  0  0  0  0  0  0  0  0  0  0  0
    6.1202    4.3995    0.0000 C   0  0  0  0  0  0  0  0  0  0  0  0
    6.1202    2.8995    0.0000 O   0  0  0  0  0  0  0  0  0  0  0  0
   -1.6740    4.3995    0.0000 O   0  0  0  0  0  0  0  0  0  0  0  0
    8.7182    7.3996    0.0000 N   0  0  0  0  0  0  0  0  0  0  0  0
    8.7182    8.8996    0.0000 O   0  0  0  0  0  0  0  0  0  0  0  0
  1 16  1  0  0  0  0
  2  1  1  6  0  0  0
  2  3  1  0  0  0  0
  2  9  1  0  0  0  0
  3  4  1  0  0  0  0
  3 10  1  1  0  0  0
  4  5  1  0  0  0  0
  4 11  1  1  0  0  0
  5 13  1  1  0  0  0
  5 14  1  0  0  0  0
  6  7  1  0  0  0  0
  6  8  2  0  0  0  0
  6 13  1  0  0  0  0
  7 12  1  0  0  0  0
  7 17  1  0  0  0  0
 14 15  2  0  0  0  0
 17 18  2  0  0  0  0
M  END
