702294
 OpenBabel07281513542D

 37 39  0  0  1  0  0  0  0  0999 V2000
   -2.2290  -11.3620    0.0000 H   0  0  0  0  0  0  0  0  0  0  0  0
   -1.6889   -8.8207    0.0000 H   0  0  0  0  0  0  0  0  0  0  0  0
    0.3885  -10.5029    0.0000 H   0  0  0  0  0  0  0  0  0  0  0  0
    0.5283   -5.3243    0.0000 O   0  0  0  0  0  0  0  0  0  0  0  0
    0.5284   -6.8243    0.0000 C   0  0  1  0  0  0  0  0  0  0  0  0
    1.7419   -7.7060    0.0000 C   0  0  0  0  0  0  0  0  0  0  0  0
   -0.6852   -7.7060    0.0000 C   0  0  1  0  0  0  0  0  0  0  0  0
   -2.1524   -7.3941    0.0000 C   0  0  0  0  0  0  0  0  0  0  0  0
   -3.1561   -8.5088    0.0000 C   0  0  0  0  0  0  0  0  0  0  0  0
    1.2784   -9.1325    0.0000 C   0  0  0  0  0  0  0  0  0  0  0  0
   -0.2216   -9.1325    0.0000 C   0  0  1  0  0  0  0  0  0  0  0  0
   -2.6926   -9.9354    0.0000 C   0  0  1  0  0  0  0  0  0  0  0  0
   -1.2253  -10.2473    0.0000 C   0  0  1  0  0  0  0  0  0  0  0  0
   -3.6963  -11.0501    0.0000 C   0  0  0  0  0  0  0  0  0  0  0  0
   -5.1635  -10.7382    0.0000 C   0  0  0  0  0  0  0  0  0  0  0  0
   -6.1672  -11.8530    0.0000 C   0  0  0  0  0  0  0  0  0  0  0  0
   -0.7618  -11.6738    0.0000 C   0  0  0  0  0  0  0  0  0  0  0  0
   -3.2327  -12.4767    0.0000 C   0  0  0  0  0  0  0  0  0  0  0  0
   -5.7037  -13.2795    0.0000 C   0  0  0  0  0  0  0  0  0  0  0  0
   -1.7655  -12.7886    0.0000 C   0  0  0  0  0  0  0  0  0  0  0  0
   -4.2364  -13.5914    0.0000 C   0  0  0  0  0  0  0  0  0  0  0  0
   -0.9970   -6.2387    0.0000 C   0  0  0  0  0  0  0  0  0  0  0  0
    1.8274   -4.5743    0.0000 P   0  0  0  0  0  0  0  0  0  0  0  0
    3.1264   -3.8243    0.0000 O   0  0  0  0  0  0  0  0  0  0  0  0
    2.5774   -5.8733    0.0000 O   0  0  0  0  0  0  0  0  0  0  0  0
    1.0774   -3.2752    0.0000 O   0  0  0  0  0  0  0  0  0  0  0  0
   -6.7074  -14.3943    0.0000 O   0  0  0  0  0  0  0  0  0  0  0  0
   -8.1746  -14.0824    0.0000 C   0  0  0  0  0  0  0  0  0  0  0  0
   -9.1783  -15.1971    0.0000 N   0  0  0  0  0  0  0  0  0  0  0  0
   -8.6381  -12.6558    0.0000 O   0  0  0  0  0  0  0  0  0  0  0  0
  -10.6455  -14.8852    0.0000 C   0  0  0  0  0  0  0  0  0  0  0  0
   -8.7147  -16.6237    0.0000 C   0  0  0  0  0  0  0  0  0  0  0  0
   -9.7184  -17.7384    0.0000 C   0  0  0  0  0  0  0  0  0  0  0  0
   -9.2549  -19.1650    0.0000 Cl  0  0  0  0  0  0  0  0  0  0  0  0
  -11.6492  -16.0000    0.0000 C   0  0  0  0  0  0  0  0  0  0  0  0
  -13.1164  -15.6881    0.0000 Cl  0  0  0  0  0  0  0  0  0  0  0  0
   -0.5359  -13.7712    0.0000 Na  0  3  0  0  0 15  0  0  0  0  0  0
  4 23  1  0  0  0  0
  5  4  1  1  0  0  0
  5  6  1  0  0  0  0
  5  7  1  0  0  0  0
  6 10  1  0  0  0  0
  7  8  1  0  0  0  0
  7 11  1  0  0  0  0
  7 22  1  1  0  0  0
  8  9  1  0  0  0  0
  9 12  1  0  0  0  0
 10 11  1  0  0  0  0
 11  3  1  6  0  0  0
 11 13  1  0  0  0  0
 12  1  1  6  0  0  0
 12 13  1  0  0  0  0
 12 14  1  0  0  0  0
 13  2  1  1  0  0  0
 13 17  1  0  0  0  0
 14 18  2  0  0  0  0
 14 15  1  0  0  0  0
 15 16  2  0  0  0  0
 16 19  1  0  0  0  0
 17 20  1  0  0  0  0
 18 20  1  0  0  0  0
 18 21  1  0  0  0  0
 19 21  2  0  0  0  0
 19 27  1  0  0  0  0
 23 24  2  0  0  0  0
 23 25  1  0  0  0  0
 23 26  1  0  0  0  0
 27 28  1  0  0  0  0
 28 29  1  0  0  0  0
 28 30  2  0  0  0  0
 29 31  1  0  0  0  0
 29 32  1  0  0  0  0
 31 35  1  0  0  0  0
 32 33  1  0  0  0  0
 33 34  1  0  0  0  0
 35 36  1  0  0  0  0
M  CHG  1  37   1
M  END
