3053
 OpenBabel07281513542D

 90 96  0  0  1  0  0  0  0  0999 V2000
   -1.6725  -23.8971    0.0000 C   0  0  0  0  0  0  0  0  0  0  0  0
   -1.6725  -22.3971    0.0000 C   0  0  0  0  0  0  0  0  0  0  0  0
   -9.9863  -14.3742    0.0000 C   0  0  0  0  0  0  0  0  0  0  0  0
  -11.0282  -15.4533    0.0000 C   0  0  0  0  0  0  0  0  0  0  0  0
   -8.6381  -15.0318    0.0000 C   0  0  0  0  0  0  0  0  0  0  0  0
  -10.3858  -20.7458    0.0000 C   0  0  0  0  0  0  0  0  0  0  0  0
   -0.3735  -24.6471    0.0000 C   0  0  0  0  0  0  0  0  0  0  0  0
    4.8227  -24.6471    0.0000 C   0  0  0  0  0  0  0  0  0  0  0  0
   -0.3735  -21.6471    0.0000 C   0  0  0  0  0  0  0  0  0  0  0  0
    6.1217  -22.3970    0.0000 C   0  0  0  0  0  0  0  0  0  0  0  0
    0.9256  -22.3971    0.0000 C   0  0  0  0  0  0  0  0  0  0  0  0
    6.1218  -23.8971    0.0000 C   0  0  0  0  0  0  0  0  0  0  0  0
    0.9256  -23.8971    0.0000 C   0  0  0  0  0  0  0  0  0  0  0  0
    3.5237  -22.3971    0.0000 C   0  0  0  0  0  0  0  0  0  0  0  0
    3.5237  -23.8971    0.0000 C   0  0  0  0  0  0  0  0  0  0  0  0
   -3.5128  -20.8529    0.0000 C   0  0  1  0  0  0  0  0  0  0  0  0
  -10.3240  -16.7777    0.0000 C   0  0  1  0  0  0  0  0  0  0  0  0
   -2.9998  -19.4434    0.0000 C   0  0  1  0  0  0  0  0  0  0  0  0
   -6.4053  -17.4057    0.0000 C   0  0  1  0  0  0  0  0  0  0  0  0
   -6.9802  -22.7834    0.0000 C   0  0  2  0  0  0  0  0  0  0  0  0
   -9.4216  -21.8949    0.0000 C   0  0  0  0  0  0  0  0  0  0  0  0
  -10.8370  -18.1872    0.0000 C   0  0  0  0  0  0  0  0  0  0  0  0
   -3.9639  -18.2943    0.0000 C   0  0  0  0  0  0  0  0  0  0  0  0
   -7.8826  -17.6662    0.0000 C   0  0  0  0  0  0  0  0  0  0  0  0
   -5.5030  -22.5230    0.0000 C   0  0  0  0  0  0  0  0  0  0  0  0
   -5.8923  -15.9962    0.0000 C   0  0  0  0  0  0  0  0  0  0  0  0
   -7.4932  -24.1930    0.0000 C   0  0  0  0  0  0  0  0  0  0  0  0
   -0.3735  -20.1471    0.0000 C   0  0  0  0  0  0  0  0  0  0  0  0
    2.2246  -21.6471    0.0000 N   0  0  0  0  0  0  0  0  0  0  0  0
   -9.8728  -19.3363    0.0000 N   0  0  0  0  0  0  0  0  0  0  0  0
   -7.9444  -21.6344    0.0000 N   0  0  0  0  0  0  0  0  0  0  0  0
   -8.8468  -16.5172    0.0000 N   0  0  0  0  0  0  0  0  0  0  0  0
    7.4208  -24.6470    0.0000 O   0  0  0  0  0  0  0  0  0  0  0  0
   -9.9346  -23.3044    0.0000 O   0  0  0  0  0  0  0  0  0  0  0  0
  -12.3142  -18.4477    0.0000 O   0  0  0  0  0  0  0  0  0  0  0  0
   -3.4509  -16.8848    0.0000 O   0  0  0  0  0  0  0  0  0  0  0  0
   -8.3956  -19.0758    0.0000 O   0  0  0  0  0  0  0  0  0  0  0  0
   -4.5388  -23.6720    0.0000 O   0  0  0  0  0  0  0  0  0  0  0  0
    0.9256  -19.3971    0.0000 O   0  0  0  0  0  0  0  0  0  0  0  0
    2.2246  -24.6471    0.0000 O   0  0  0  0  0  0  0  0  0  0  0  0
   -4.9900  -21.1134    0.0000 O   0  0  0  0  0  0  0  0  0  0  0  0
    4.8227  -26.1471    0.0000 C   0  0  0  0  0  0  0  0  0  0  0  0
   -0.3734  -26.1471    0.0000 C   0  0  0  0  0  0  0  0  0  0  0  0
   -2.5486  -22.0020    0.0000 C   0  0  0  0  0  0  0  0  0  0  0  0
   -8.9704  -24.4535    0.0000 C   0  0  0  0  0  0  0  0  0  0  0  0
   -6.5290  -25.3421    0.0000 C   0  0  0  0  0  0  0  0  0  0  0  0
   -7.4314  -20.2249    0.0000 C   0  0  0  0  0  0  0  0  0  0  0  0
   -6.8565  -14.8471    0.0000 C   0  0  0  0  0  0  0  0  0  0  0  0
   -4.4151  -15.7357    0.0000 C   0  0  0  0  0  0  0  0  0  0  0  0
   -8.3956  -19.0758    0.0000 C   0  0  0  0  0  0  0  0  0  0  0  0
    7.4208  -21.6470    0.0000 N   0  0  0  0  0  0  0  0  0  0  0  0
   -1.5225  -19.1829    0.0000 N   0  0  0  0  0  0  0  0  0  0  0  0
   -1.2918  -13.0885    0.0000 C   0  0  0  0  0  0  0  0  0  0  0  0
   -0.6342  -11.7403    0.0000 C   0  0  0  0  0  0  0  0  0  0  0  0
   -0.2128  -14.1305    0.0000 C   0  0  0  0  0  0  0  0  0  0  0  0
    4.5589  -10.5338    0.0000 C   0  0  0  0  0  0  0  0  0  0  0  0
    4.8227  -21.6471    0.0000 C   0  0  0  0  0  0  0  0  0  0  0  0
    7.0103  -16.9557    0.0000 C   0  0  1  0  0  0  0  0  0  0  0  0
    0.8512  -11.9491    0.0000 C   0  0  1  0  0  0  0  0  0  0  0  0
    5.8612  -17.9198    0.0000 C   0  0  1  0  0  0  0  0  0  0  0  0
    2.7817  -15.4166    0.0000 C   0  0  1  0  0  0  0  0  0  0  0  0
    7.6384  -13.0371    0.0000 C   0  0  2  0  0  0  0  0  0  0  0  0
    5.9684  -11.0468    0.0000 C   0  0  0  0  0  0  0  0  0  0  0  0
    2.0003  -10.9849    0.0000 C   0  0  0  0  0  0  0  0  0  0  0  0
    4.4517  -17.4068    0.0000 C   0  0  0  0  0  0  0  0  0  0  0  0
    2.5212  -13.9394    0.0000 C   0  0  0  0  0  0  0  0  0  0  0  0
    7.8989  -14.5143    0.0000 C   0  0  0  0  0  0  0  0  0  0  0  0
    1.6326  -16.3808    0.0000 C   0  0  0  0  0  0  0  0  0  0  0  0
    8.7875  -12.0729    0.0000 C   0  0  0  0  0  0  0  0  0  0  0  0
    4.8227  -20.1471    0.0000 C   0  0  0  0  0  0  0  0  0  0  0  0
    3.4098  -11.4979    0.0000 N   0  0  0  0  0  0  0  0  0  0  0  0
    6.2289  -12.5240    0.0000 N   0  0  0  0  0  0  0  0  0  0  0  0
    1.1117  -13.4263    0.0000 N   0  0  0  0  0  0  0  0  0  0  0  0
    7.1175  -10.0826    0.0000 O   0  0  0  0  0  0  0  0  0  0  0  0
    1.7398   -9.5077    0.0000 O   0  0  0  0  0  0  0  0  0  0  0  0
    3.3026  -18.3710    0.0000 O   0  0  0  0  0  0  0  0  0  0  0  0
    3.6703  -12.9752    0.0000 O   0  0  0  0  0  0  0  0  0  0  0  0
    9.3085  -15.0273    0.0000 O   0  0  0  0  0  0  0  0  0  0  0  0
    3.5236  -19.3971    0.0000 O   0  0  0  0  0  0  0  0  0  0  0  0
    6.7498  -15.4784    0.0000 O   0  0  0  0  0  0  0  0  0  0  0  0
    8.4199  -17.4687    0.0000 C   0  0  0  0  0  0  0  0  0  0  0  0
   10.1971  -12.5859    0.0000 C   0  0  0  0  0  0  0  0  0  0  0  0
    8.5270  -10.5957    0.0000 C   0  0  0  0  0  0  0  0  0  0  0  0
    5.0798  -13.4882    0.0000 C   0  0  0  0  0  0  0  0  0  0  0  0
    0.2231  -15.8677    0.0000 C   0  0  0  0  0  0  0  0  0  0  0  0
    1.8931  -17.8580    0.0000 C   0  0  0  0  0  0  0  0  0  0  0  0
    3.6703  -12.9752    0.0000 C   0  0  0  0  0  0  0  0  0  0  0  0
   -5.4412  -18.5548    0.0000 N   0  0  0  0  0  0  0  0  0  0  0  0
    4.1912  -15.9296    0.0000 N   0  0  0  0  0  0  0  0  0  0  0  0
    6.1217  -19.3971    0.0000 N   0  0  0  0  0  0  0  0  0  0  0  0
  1  2  2  0  0  0  0
  1  7  1  0  0  0  0
  2  9  1  0  0  0  0
  3  4  1  0  0  0  0
  3  5  1  0  0  0  0
  5 32  1  0  0  0  0
  6 21  1  0  0  0  0
  6 30  1  0  0  0  0
  7 13  2  0  0  0  0
  7 43  1  0  0  0  0
  8 12  1  0  0  0  0
  8 15  2  0  0  0  0
  8 42  1  0  0  0  0
  9 11  2  0  0  0  0
  9 28  1  0  0  0  0
 10 12  1  0  0  0  0
 10 51  1  0  0  0  0
 10 57  2  0  0  0  0
 11 13  1  0  0  0  0
 11 29  1  0  0  0  0
 12 33  2  0  0  0  0
 13 40  1  0  0  0  0
 14 15  1  0  0  0  0
 14 29  2  0  0  0  0
 14 57  1  0  0  0  0
 15 40  1  0  0  0  0
 16 18  1  0  0  0  0
 16 41  1  0  0  0  0
 16 44  1  6  0  0  0
 17  4  1  6  0  0  0
 17 22  1  0  0  0  0
 17 32  1  0  0  0  0
 18 23  1  0  0  0  0
 18 52  1  1  0  0  0
 19 24  1  0  0  0  0
 19 26  1  1  0  0  0
 19 88  1  0  0  0  0
 20 25  1  0  0  0  0
 20 27  1  6  0  0  0
 20 31  1  0  0  0  0
 21 31  1  0  0  0  0
 21 34  2  0  0  0  0
 22 30  1  0  0  0  0
 22 35  2  0  0  0  0
 23 36  2  0  0  0  0
 23 88  1  0  0  0  0
 24 32  1  0  0  0  0
 24 37  2  0  0  0  0
 25 38  2  0  0  0  0
 25 41  1  0  0  0  0
 26 48  1  0  0  0  0
 26 49  1  0  0  0  0
 27 45  1  0  0  0  0
 27 46  1  0  0  0  0
 28 39  2  0  0  0  0
 28 52  1  0  0  0  0
 30 50  1  0  0  0  0
 31 47  1  0  0  0  0
 53 54  1  0  0  0  0
 53 55  1  0  0  0  0
 55 73  1  0  0  0  0
 56 63  1  0  0  0  0
 56 71  1  0  0  0  0
 57 70  1  0  0  0  0
 58 60  1  0  0  0  0
 58 80  1  0  0  0  0
 58 81  1  1  0  0  0
 59 54  1  1  0  0  0
 59 64  1  0  0  0  0
 59 73  1  0  0  0  0
 60 65  1  0  0  0  0
 60 90  1  6  0  0  0
 61 66  1  0  0  0  0
 61 68  1  6  0  0  0
 61 89  1  0  0  0  0
 62 67  1  0  0  0  0
 62 69  1  1  0  0  0
 62 72  1  0  0  0  0
 63 72  1  0  0  0  0
 63 74  2  0  0  0  0
 64 71  1  0  0  0  0
 64 75  2  0  0  0  0
 65 76  2  0  0  0  0
 65 89  1  0  0  0  0
 66 73  1  0  0  0  0
 66 77  2  0  0  0  0
 67 78  2  0  0  0  0
 67 80  1  0  0  0  0
 68 85  1  0  0  0  0
 68 86  1  0  0  0  0
 69 82  1  0  0  0  0
 69 83  1  0  0  0  0
 70 79  2  0  0  0  0
 70 90  1  0  0  0  0
 71 87  1  0  0  0  0
 72 84  1  0  0  0  0
M  END
