613327
 OpenBabel07281513532D

 19 19  0  0  1  0  0  0  0  0999 V2000
   -3.2224   -8.8554    0.0000 C   0  0  3  0  0  0  0  0  0  0  0  0
   -2.0089   -9.7371    0.0000 C   0  0  3  0  0  0  0  0  0  0  0  0
   -0.7954   -8.8554    0.0000 C   0  0  0  0  0  0  0  0  0  0  0  0
   -1.2589   -7.4288    0.0000 C   0  0  3  0  0  0  0  0  0  0  0  0
   -2.7589   -7.4288    0.0000 O   0  0  0  0  0  0  0  0  0  0  0  0
   -2.2219   -8.3919    0.0000 F   0  0  0  0  0  0  0  0  0  0  0  0
    0.6312   -9.3189    0.0000 F   0  0  0  0  0  0  0  0  0  0  0  0
   -4.6490   -9.3189    0.0000 C   0  0  0  0  0  0  0  0  0  0  0  0
   -0.3772   -6.2153    0.0000 N   0  0  0  0  0  0  0  0  0  0  0  0
    1.1146   -6.3721    0.0000 C   0  0  0  0  0  0  0  0  0  0  0  0
    1.9962   -5.1586    0.0000 C   0  0  0  0  0  0  0  0  0  0  0  0
    1.3861   -3.7882    0.0000 C   0  0  0  0  0  0  0  0  0  0  0  0
   -0.1056   -3.6314    0.0000 N   0  0  0  0  0  0  0  0  0  0  0  0
   -0.9873   -4.8450    0.0000 C   0  0  0  0  0  0  0  0  0  0  0  0
   -2.4791   -4.6882    0.0000 O   0  0  0  0  0  0  0  0  0  0  0  0
   -4.9609  -10.7862    0.0000 O   0  0  0  0  0  0  0  0  0  0  0  0
   -2.0089  -11.2371    0.0000 O   0  0  0  0  0  0  0  0  0  0  0  0
    2.2678   -2.5747    0.0000 N   0  0  0  0  0  0  0  0  0  0  0  0
    2.4161   -9.4142    0.0000 Cl  0  0  0  0  0  0  0  0  0  0  0  0
  1  2  1  0  0  0  0
  1  5  1  0  0  0  0
  1  8  1  0  0  0  0
  2  3  1  0  0  0  0
  2 17  1  0  0  0  0
  3  4  1  0  0  0  0
  3  6  1  0  0  0  0
  3  7  1  0  0  0  0
  4  5  1  0  0  0  0
  4  9  1  0  0  0  0
  8 16  1  0  0  0  0
  9 10  1  0  0  0  0
  9 14  1  0  0  0  0
 10 11  2  0  0  0  0
 11 12  1  0  0  0  0
 12 13  2  0  0  0  0
 12 18  1  0  0  0  0
 13 14  1  0  0  0  0
 14 15  2  0  0  0  0
M  END
