77213
 OpenBabel07281513532D

 17 16  0  0  0  0  0  0  0  0999 V2000
   -6.0000   -2.0490    0.0000 C   0  0  0  0  0  0  0  0  0  0  0  0
   -7.5000   -2.0490    0.0000 C   0  0  0  0  0  0  0  0  0  0  0  0
   -5.2500   -3.3481    0.0000 C   0  0  0  0  0  0  0  0  0  0  0  0
   -6.0000   -4.6471    0.0000 C   0  0  0  0  0  0  0  0  0  0  0  0
   -8.2500   -3.3481    0.0000 C   0  0  0  0  0  0  0  0  0  0  0  0
   -7.5000   -4.6471    0.0000 C   0  0  0  0  0  0  0  0  0  0  0  0
  -12.0000   -2.0491    0.0000 C   0  0  0  0  0  0  0  0  0  0  0  0
   -9.7500   -3.3481    0.0000 C   0  0  0  0  0  0  0  0  0  0  0  0
  -10.5000   -4.6471    0.0000 O   0  0  0  0  0  0  0  0  0  0  0  0
   -3.7500   -3.3481    0.0000 C   0  0  0  0  0  0  0  0  0  0  0  0
  -12.7500   -0.7500    0.0000 C   0  0  0  0  0  0  0  0  0  0  0  0
  -12.7500   -3.3481    0.0000 C   0  0  0  0  0  0  0  0  0  0  0  0
   -0.7500   -3.3481    0.0000 C   0  0  0  0  0  0  0  0  0  0  0  0
   -3.0000   -4.6471    0.0000 N   0  0  0  0  0  0  0  0  0  0  0  0
   -1.5000   -4.6471    0.0000 N   0  0  0  0  0  0  0  0  0  0  0  0
  -10.5000   -2.0491    0.0000 N   0  0  0  0  0  0  0  0  0  0  0  0
   -6.7500   -6.1471    0.0000 Cl  0  0  0  0  0  0  0  0  0  0  0  0
  1  3  2  0  0  0  0
  1  2  1  0  0  0  0
  2  5  2  0  0  0  0
  3  4  1  0  0  0  0
  3 10  1  0  0  0  0
  4  6  2  0  0  0  0
  5  6  1  0  0  0  0
  5  8  1  0  0  0  0
  7 11  1  0  0  0  0
  7 12  1  0  0  0  0
  7 16  1  0  0  0  0
  8  9  2  0  0  0  0
  8 16  1  0  0  0  0
 10 14  1  0  0  0  0
 13 15  1  0  0  0  0
 14 15  1  0  0  0  0
M  END
