32065
 OpenBabel07281513532D

  5  4  0  0  0  0  0  0  0  0999 V2000
    2.0490    1.5000    0.0000 C   0  0  0  0  0  0  0  0  0  0  0  0
    2.0490    3.0000    0.0000 O   0  0  0  0  0  0  0  0  0  0  0  0
    3.3481    0.7500    0.0000 N   0  0  0  0  0  0  0  0  0  0  0  0
    4.6471    1.5000    0.0000 O   0  0  0  0  0  0  0  0  0  0  0  0
    0.7500    0.7500    0.0000 N   0  0  0  0  0  0  0  0  0  0  0  0
  1  2  2  0  0  0  0
  1  3  1  0  0  0  0
  1  5  1  0  0  0  0
  3  4  1  0  0  0  0
M  END
