27640
 OpenBabel07281513532D

 17 18  0  0  1  0  0  0  0  0999 V2000
   -5.9462   10.1421    0.0000 F   0  0  0  0  0  0  0  0  0  0  0  0
   -4.5616    4.7604    0.0000 O   0  0  0  0  0  0  0  0  0  0  0  0
   -3.3481   11.6421    0.0000 O   0  0  0  0  0  0  0  0  0  0  0  0
   -3.3481    7.1421    0.0000 N   0  0  0  0  0  0  0  0  0  0  0  0
   -0.7500    7.1421    0.0000 O   0  0  0  0  0  0  0  0  0  0  0  0
   -3.3481   10.1421    0.0000 C   0  0  0  0  0  0  0  0  0  0  0  0
   -4.6471    9.3921    0.0000 C   0  0  0  0  0  0  0  0  0  0  0  0
   -4.6471    7.8921    0.0000 C   0  0  0  0  0  0  0  0  0  0  0  0
   -2.0490    7.8921    0.0000 C   0  0  0  0  0  0  0  0  0  0  0  0
   -3.3481    5.6421    0.0000 C   0  0  3  0  0  0  0  0  0  0  0  0
   -2.1345    4.7604    0.0000 C   0  0  0  0  0  0  0  0  0  0  0  0
   -2.5981    3.3339    0.0000 C   0  0  3  0  0  0  0  0  0  0  0  0
   -4.0981    3.3338    0.0000 C   0  0  3  0  0  0  0  0  0  0  0  0
   -1.7164    2.1203    0.0000 O   0  0  0  0  0  0  0  0  0  0  0  0
   -2.0490    9.3921    0.0000 N   0  0  0  0  0  0  0  0  0  0  0  0
   -4.9797    2.1203    0.0000 C   0  0  0  0  0  0  0  0  0  0  0  0
   -4.3696    0.7500    0.0000 O   0  0  0  0  0  0  0  0  0  0  0  0
  1  7  1  0  0  0  0
  2 10  1  0  0  0  0
  2 13  1  0  0  0  0
  3  6  2  0  0  0  0
  4  8  1  0  0  0  0
  4  9  1  0  0  0  0
  4 10  1  0  0  0  0
  5  9  2  0  0  0  0
  6  7  1  0  0  0  0
  6 15  1  0  0  0  0
  7  8  2  0  0  0  0
  9 15  1  0  0  0  0
 10 11  1  0  0  0  0
 11 12  1  0  0  0  0
 12 13  1  0  0  0  0
 12 14  1  0  0  0  0
 13 16  1  0  0  0  0
 16 17  1  0  0  0  0
M  END
