105014
 OpenBabel07281513542D

 20 22  0  0  1  0  0  0  0  0999 V2000
   -3.0491    7.1100    0.0000 O   0  0  0  0  0  0  0  0  0  0  0  0
   -3.0491    5.6100    0.0000 C   0  0  3  0  0  0  0  0  0  0  0  0
   -1.6225    5.1464    0.0000 C   0  0  3  0  0  0  0  0  0  0  0  0
   -0.7408    6.3600    0.0000 C   0  0  0  0  0  0  0  0  0  0  0  0
   -1.6225    7.5735    0.0000 C   0  0  3  0  0  0  0  0  0  0  0  0
    0.7592    6.3600    0.0000 H   0  0  0  0  0  0  0  0  0  0  0  0
   -4.2626    4.7283    0.0000 C   0  0  0  0  0  0  0  0  0  0  0  0
    2.8657    9.4636    0.0000 C   0  0  0  0  0  0  0  0  0  0  0  0
    2.8657   10.9636    0.0000 N   0  0  0  0  0  0  0  0  0  0  0  0
    1.5667   11.7136    0.0000 C   0  0  0  0  0  0  0  0  0  0  0  0
    0.2677   10.9636    0.0000 C   0  0  0  0  0  0  0  0  0  0  0  0
    0.2676    9.4636    0.0000 C   0  0  0  0  0  0  0  0  0  0  0  0
    1.5667    8.7136    0.0000 N   0  0  0  0  0  0  0  0  0  0  0  0
   -1.1589   11.4271    0.0000 N   0  0  0  0  0  0  0  0  0  0  0  0
   -2.0406   10.2136    0.0000 C   0  0  0  0  0  0  0  0  0  0  0  0
   -1.1589    9.0001    0.0000 N   0  0  0  0  0  0  0  0  0  0  0  0
   -4.1058    3.2365    0.0000 O   0  0  0  0  0  0  0  0  0  0  0  0
    4.1648    8.7136    0.0000 Cl  0  0  0  0  0  0  0  0  0  0  0  0
    1.5667   13.2136    0.0000 N   0  0  0  0  0  0  0  0  0  0  0  0
   -1.1589    3.7198    0.0000 O   0  0  0  0  0  0  0  0  0  0  0  0
  1  2  1  0  0  0  0
  1  5  1  0  0  0  0
  2  3  1  0  0  0  0
  2  7  1  0  0  0  0
  3  4  1  0  0  0  0
  3 20  1  0  0  0  0
  4  5  1  0  0  0  0
  4  6  1  0  0  0  0
  5 16  1  0  0  0  0
  7 17  1  0  0  0  0
  8  9  2  0  0  0  0
  8 13  1  0  0  0  0
  8 18  1  0  0  0  0
  9 10  1  0  0  0  0
 10 11  2  0  0  0  0
 10 19  1  0  0  0  0
 11 12  1  0  0  0  0
 11 14  1  0  0  0  0
 12 13  2  0  0  0  0
 12 16  1  0  0  0  0
 14 15  2  0  0  0  0
 15 16  1  0  0  0  0
M  RAD  1   4   2
M  END
