732517
 OpenBabel07281513542D

 33 36  0  0  0  0  0  0  0  0999 V2000
  -19.0661   -1.5000    0.0000 N   0  0  0  0  0  0  0  0  0  0  0  0
  -19.0661   -3.0000    0.0000 C   0  0  0  0  0  0  0  0  0  0  0  0
  -17.7671   -3.7500    0.0000 C   0  0  0  0  0  0  0  0  0  0  0  0
  -16.4680   -3.0000    0.0000 N   0  0  0  0  0  0  0  0  0  0  0  0
  -16.4680   -1.5000    0.0000 C   0  0  0  0  0  0  0  0  0  0  0  0
  -17.7671   -0.7500    0.0000 C   0  0  0  0  0  0  0  0  0  0  0  0
  -15.1690   -3.7500    0.0000 C   0  0  0  0  0  0  0  0  0  0  0  0
  -15.1690   -5.2500    0.0000 N   0  0  0  0  0  0  0  0  0  0  0  0
  -13.8699   -6.0000    0.0000 C   0  0  0  0  0  0  0  0  0  0  0  0
  -12.5709   -5.2500    0.0000 N   0  0  0  0  0  0  0  0  0  0  0  0
  -12.5709   -3.7500    0.0000 C   0  0  0  0  0  0  0  0  0  0  0  0
  -13.8699   -3.0000    0.0000 C   0  0  0  0  0  0  0  0  0  0  0  0
   -3.7336   -5.1546    0.0000 C   0  0  0  0  0  0  0  0  0  0  0  0
   -2.8519   -6.3681    0.0000 C   0  0  0  0  0  0  0  0  0  0  0  0
   -1.3601   -6.2113    0.0000 C   0  0  0  0  0  0  0  0  0  0  0  0
   -0.7500   -4.8410    0.0000 C   0  0  0  0  0  0  0  0  0  0  0  0
   -1.6317   -3.6275    0.0000 C   0  0  0  0  0  0  0  0  0  0  0  0
   -3.1235   -3.7843    0.0000 C   0  0  0  0  0  0  0  0  0  0  0  0
   -8.6025   -3.1399    0.0000 S   0  0  0  0  0  0  0  0  0  0  0  0
   -9.9728   -3.7500    0.0000 C   0  0  0  0  0  0  0  0  0  0  0  0
   -9.8160   -5.2418    0.0000 N   0  0  0  0  0  0  0  0  0  0  0  0
   -8.3488   -5.5537    0.0000 C   0  0  0  0  0  0  0  0  0  0  0  0
   -7.5988   -4.2546    0.0000 C   0  0  0  0  0  0  0  0  0  0  0  0
  -20.3651   -0.7500    0.0000 C   0  0  0  0  0  0  0  0  0  0  0  0
  -21.6642   -1.5000    0.0000 C   0  0  0  0  0  0  0  0  0  0  0  0
  -13.8699   -7.5000    0.0000 C   0  0  0  0  0  0  0  0  0  0  0  0
  -22.9632   -0.7500    0.0000 O   0  0  0  0  0  0  0  0  0  0  0  0
   -6.1070   -4.0979    0.0000 C   0  0  0  0  0  0  0  0  0  0  0  0
   -4.0051   -2.5707    0.0000 Cl  0  0  0  0  0  0  0  0  0  0  0  0
   -5.4969   -2.7275    0.0000 O   0  0  0  0  0  0  0  0  0  0  0  0
   -3.4620   -7.7384    0.0000 C   0  0  0  0  0  0  0  0  0  0  0  0
  -11.2719   -3.0000    0.0000 N   0  0  0  0  0  0  0  0  0  0  0  0
   -5.2253   -5.3114    0.0000 N   0  0  0  0  0  0  0  0  0  0  0  0
  1  2  1  0  0  0  0
  1  6  1  0  0  0  0
  1 24  1  0  0  0  0
  2  3  1  0  0  0  0
  3  4  1  0  0  0  0
  4  5  1  0  0  0  0
  4  7  1  0  0  0  0
  5  6  1  0  0  0  0
  7  8  1  0  0  0  0
  7 12  2  0  0  0  0
  8  9  2  0  0  0  0
  9 10  1  0  0  0  0
  9 26  1  0  0  0  0
 10 11  2  0  0  0  0
 11 12  1  0  0  0  0
 11 32  1  0  0  0  0
 13 14  2  0  0  0  0
 13 18  1  0  0  0  0
 13 33  1  0  0  0  0
 14 15  1  0  0  0  0
 14 31  1  0  0  0  0
 15 16  2  0  0  0  0
 16 17  1  0  0  0  0
 17 18  2  0  0  0  0
 18 29  1  0  0  0  0
 19 20  1  0  0  0  0
 19 23  1  0  0  0  0
 20 21  2  0  0  0  0
 20 32  1  0  0  0  0
 21 22  1  0  0  0  0
 22 23  2  0  0  0  0
 23 28  1  0  0  0  0
 24 25  1  0  0  0  0
 25 27  1  0  0  0  0
 28 30  2  0  0  0  0
 28 33  1  0  0  0  0
M  END
