719276
 OpenBabel07281513542D

 44 47  0  0  1  0  0  0  0  0999 V2000
  -26.7308   -4.8902    0.0000 C   0  0  0  0  0  0  0  0  0  0  0  0
  -26.7308   -6.3902    0.0000 C   0  0  0  0  0  0  0  0  0  0  0  0
  -25.4317   -7.1402    0.0000 C   0  0  0  0  0  0  0  0  0  0  0  0
  -24.1327   -6.3902    0.0000 C   0  0  0  0  0  0  0  0  0  0  0  0
  -24.1327   -4.8902    0.0000 C   0  0  0  0  0  0  0  0  0  0  0  0
  -25.4317   -4.1402    0.0000 C   0  0  0  0  0  0  0  0  0  0  0  0
  -22.8336   -7.1401    0.0000 C   0  0  0  0  0  0  0  0  0  0  0  0
  -21.5346   -6.3901    0.0000 C   0  0  2  0  0  0  0  0  0  0  0  0
  -21.5346   -4.8901    0.0000 C   0  0  2  0  0  0  0  0  0  0  0  0
  -22.8336   -4.1401    0.0000 C   0  0  2  0  0  0  0  0  0  0  0  0
  -20.2356   -4.1401    0.0000 C   0  0  1  0  0  0  0  0  0  0  0  0
  -20.2356   -2.6401    0.0000 C   0  0  2  0  0  0  0  0  0  0  0  0
  -21.5346   -1.8901    0.0000 C   0  0  0  0  0  0  0  0  0  0  0  0
  -22.8336   -2.6401    0.0000 C   0  0  0  0  0  0  0  0  0  0  0  0
  -18.8090   -4.6037    0.0000 C   0  0  0  0  0  0  0  0  0  0  0  0
  -17.9273   -3.3901    0.0000 C   0  0  0  0  0  0  0  0  0  0  0  0
  -18.8090   -2.1766    0.0000 C   0  0  2  0  0  0  0  0  0  0  0  0
  -20.2356   -7.1401    0.0000 C   0  0  0  0  0  0  0  0  0  0  0  0
  -18.9365   -6.3901    0.0000 C   0  0  0  0  0  0  0  0  0  0  0  0
  -17.6375   -7.1401    0.0000 C   0  0  0  0  0  0  0  0  0  0  0  0
  -16.3384   -6.3901    0.0000 C   0  0  0  0  0  0  0  0  0  0  0  0
  -15.0394   -7.1401    0.0000 C   0  0  0  0  0  0  0  0  0  0  0  0
  -13.7404   -6.3901    0.0000 C   0  0  0  0  0  0  0  0  0  0  0  0
  -12.4413   -7.1401    0.0000 C   0  0  0  0  0  0  0  0  0  0  0  0
  -11.1423   -6.3901    0.0000 C   0  0  0  0  0  0  0  0  0  0  0  0
  -22.8336   -5.6401    0.0000 H   0  0  0  0  0  0  0  0  0  0  0  0
  -21.5346   -3.3901    0.0000 H   0  0  0  0  0  0  0  0  0  0  0  0
  -20.0788   -5.6319    0.0000 H   0  0  0  0  0  0  0  0  0  0  0  0
  -20.0788   -1.1484    0.0000 C   0  0  0  0  0  0  0  0  0  0  0  0
  -18.3455   -0.7500    0.0000 O   0  0  0  0  0  0  0  0  0  0  0  0
  -28.0298   -7.1402    0.0000 O   0  0  0  0  0  0  0  0  0  0  0  0
   -9.8433   -7.1401    0.0000 C   0  0  0  0  0  0  0  0  0  0  0  0
   -8.5442   -6.3901    0.0000 S   0  0  3  0  0  0  0  0  0  0  0  0
   -7.2452   -7.1401    0.0000 C   0  0  0  0  0  0  0  0  0  0  0  0
   -8.5442   -4.8901    0.0000 O   0  0  0  0  0  0  0  0  0  0  0  0
   -5.9461   -6.3901    0.0000 C   0  0  0  0  0  0  0  0  0  0  0  0
   -4.6471   -7.1401    0.0000 C   0  0  0  0  0  0  0  0  0  0  0  0
   -3.3481   -6.3901    0.0000 C   0  0  0  0  0  0  0  0  0  0  0  0
   -2.0490   -5.6401    0.0000 C   0  0  0  0  0  0  0  0  0  0  0  0
   -4.0981   -5.0911    0.0000 F   0  0  0  0  0  0  0  0  0  0  0  0
   -2.5981   -7.6891    0.0000 F   0  0  0  0  0  0  0  0  0  0  0  0
   -2.0490   -4.1401    0.0000 F   0  0  0  0  0  0  0  0  0  0  0  0
   -0.7500   -6.3901    0.0000 F   0  0  0  0  0  0  0  0  0  0  0  0
   -0.7500   -4.8901    0.0000 F   0  0  0  0  0  0  0  0  0  0  0  0
  1  2  2  0  0  0  0
  1  6  1  0  0  0  0
  2  3  1  0  0  0  0
  2 31  1  0  0  0  0
  3  4  2  0  0  0  0
  4  5  1  0  0  0  0
  4  7  1  0  0  0  0
  5  6  2  0  0  0  0
  5 10  1  0  0  0  0
  7  8  1  0  0  0  0
  8  9  1  0  0  0  0
  8 18  1  6  0  0  0
  9 10  1  0  0  0  0
  9 11  1  0  0  0  0
  9 27  1  1  0  0  0
 10 14  1  0  0  0  0
 10 26  1  6  0  0  0
 11 12  1  0  0  0  0
 11 15  1  0  0  0  0
 11 28  1  6  0  0  0
 12 13  1  0  0  0  0
 12 17  1  0  0  0  0
 12 29  1  1  0  0  0
 13 14  1  0  0  0  0
 15 16  1  0  0  0  0
 16 17  1  0  0  0  0
 17 30  1  1  0  0  0
 18 19  1  0  0  0  0
 19 20  1  0  0  0  0
 20 21  1  0  0  0  0
 21 22  1  0  0  0  0
 22 23  1  0  0  0  0
 23 24  1  0  0  0  0
 24 25  1  0  0  0  0
 25 32  1  0  0  0  0
 32 33  1  0  0  0  0
 33 34  1  0  0  0  0
 33 35  2  0  0  0  0
 34 36  1  0  0  0  0
 36 37  1  0  0  0  0
 37 38  1  0  0  0  0
 38 40  1  0  0  0  0
 38 41  1  0  0  0  0
 38 39  1  0  0  0  0
 39 42  1  0  0  0  0
 39 43  1  0  0  0  0
 39 44  1  0  0  0  0
M  END
