92859
 OpenBabel07281513542D

  5  4  0  0  0  0  0  0  0  0999 V2000
   -7.0333   -0.8833    0.0000 O   0  0  0  0  0  0  0  0  0  0  0  0
   -5.7343   -1.6333    0.0000 As  0  0  0  0  0  0  0  0  0  0  0  0
   -5.7343   -3.1333    0.0000 O   0  0  0  0  0  0  0  0  0  0  0  0
   -7.0333   -3.8833    0.0000 As  0  0  0  0  0  0  0  0  0  0  0  0
   -8.3324   -3.1333    0.0000 O   0  0  0  0  0  0  0  0  0  0  0  0
  1  2  2  0  0  0  0
  2  3  1  0  0  0  0
  3  4  1  0  0  0  0
  4  5  2  0  0  0  0
M  END
