752
 OpenBabel07281513532D

 13 14  0  0  0  0  0  0  0  0999 V2000
   -2.2123   -5.5193    0.0000 N   0  0  0  0  0  0  0  0  0  0  0  0
   -0.2816   -7.2577    0.0000 N   0  0  0  0  0  0  0  0  0  0  0  0
   -1.6721   -2.9780    0.0000 S   0  0  0  0  0  0  0  0  0  0  0  0
    0.1820   -8.6843    0.0000 H   0  0  0  0  0  0  0  0  0  0  0  0
    1.4721   -2.3347    0.0000 H   0  0  0  0  0  0  0  0  0  0  0  0
    1.4721   -3.8347    0.0000 N   0  0  0  0  0  0  0  0  0  0  0  0
    2.2221   -6.1430    0.0000 N   0  0  0  0  0  0  0  0  0  0  0  0
   -1.2086   -4.4045    0.0000 C   0  0  0  0  0  0  0  0  0  0  0  0
    0.2586   -4.7164    0.0000 C   0  0  0  0  0  0  0  0  0  0  0  0
    0.7221   -6.1430    0.0000 C   0  0  0  0  0  0  0  0  0  0  0  0
    2.6857   -4.7164    0.0000 C   0  0  0  0  0  0  0  0  0  0  0  0
   -1.7488   -6.9458    0.0000 C   0  0  0  0  0  0  0  0  0  0  0  0
   -2.7525   -8.0606    0.0000 N   0  0  0  0  0  0  0  0  0  0  0  0
  1 12  2  0  0  0  0
  1  8  1  0  0  0  0
  2 10  1  0  0  0  0
  2 12  1  0  0  0  0
  2  4  1  0  0  0  0
  3  8  2  0  0  0  0
  5  6  1  0  0  0  0
  6  9  1  0  0  0  0
  6 11  1  0  0  0  0
  7 11  2  0  0  0  0
  7 10  1  0  0  0  0
  8  9  1  0  0  0  0
  9 10  2  0  0  0  0
 12 13  1  0  0  0  0
M  END
