747971
 OpenBabel07281513532D

 32 34  0  0  0  0  0  0  0  0999 V2000
   15.0394    4.5000    0.0000 C   0  0  0  0  0  0  0  0  0  0  0  0
   16.3385    3.7500    0.0000 C   0  0  0  0  0  0  0  0  0  0  0  0
   17.6375    4.5000    0.0000 C   0  0  0  0  0  0  0  0  0  0  0  0
   17.6375    6.0000    0.0000 N   0  0  0  0  0  0  0  0  0  0  0  0
   16.3385    6.7500    0.0000 C   0  0  0  0  0  0  0  0  0  0  0  0
   15.0394    6.0000    0.0000 C   0  0  0  0  0  0  0  0  0  0  0  0
    9.8433    6.0000    0.0000 C   0  0  0  0  0  0  0  0  0  0  0  0
    9.8433    4.5000    0.0000 C   0  0  0  0  0  0  0  0  0  0  0  0
   11.1423    3.7500    0.0000 C   0  0  0  0  0  0  0  0  0  0  0  0
   12.4413    4.5000    0.0000 C   0  0  0  0  0  0  0  0  0  0  0  0
   12.4413    6.0000    0.0000 C   0  0  0  0  0  0  0  0  0  0  0  0
   11.1423    6.7500    0.0000 C   0  0  0  0  0  0  0  0  0  0  0  0
    2.0490    6.0000    0.0000 C   0  0  0  0  0  0  0  0  0  0  0  0
    2.0490    4.5000    0.0000 C   0  0  0  0  0  0  0  0  0  0  0  0
    3.3481    3.7500    0.0000 C   0  0  0  0  0  0  0  0  0  0  0  0
    4.6471    4.5000    0.0000 C   0  0  0  0  0  0  0  0  0  0  0  0
    4.6471    6.0000    0.0000 C   0  0  0  0  0  0  0  0  0  0  0  0
    3.3481    6.7500    0.0000 C   0  0  0  0  0  0  0  0  0  0  0  0
    0.7500    3.7500    0.0000 Cl  0  0  0  0  0  0  0  0  0  0  0  0
    7.2452    6.0000    0.0000 C   0  0  0  0  0  0  0  0  0  0  0  0
    7.2452    4.5000    0.0000 O   0  0  0  0  0  0  0  0  0  0  0  0
   13.7404    3.7500    0.0000 O   0  0  0  0  0  0  0  0  0  0  0  0
   18.9365    3.7500    0.0000 C   0  0  0  0  0  0  0  0  0  0  0  0
   18.9365    2.2500    0.0000 O   0  0  0  0  0  0  0  0  0  0  0  0
    3.3481    2.2500    0.0000 C   0  0  0  0  0  0  0  0  0  0  0  0
    1.8481    2.2500    0.0000 F   0  0  0  0  0  0  0  0  0  0  0  0
    3.3481    0.7500    0.0000 F   0  0  0  0  0  0  0  0  0  0  0  0
    4.8481    2.2500    0.0000 F   0  0  0  0  0  0  0  0  0  0  0  0
   21.5346    3.7500    0.0000 C   0  0  0  0  0  0  0  0  0  0  0  0
   20.2356    4.5000    0.0000 N   0  0  0  0  0  0  0  0  0  0  0  0
    8.5442    6.7500    0.0000 N   0  0  0  0  0  0  0  0  0  0  0  0
    5.9461    6.7500    0.0000 N   0  0  0  0  0  0  0  0  0  0  0  0
  1  6  1  0  0  0  0
  1  2  2  0  0  0  0
  1 22  1  0  0  0  0
  2  3  1  0  0  0  0
  3  4  2  0  0  0  0
  3 23  1  0  0  0  0
  4  5  1  0  0  0  0
  5  6  2  0  0  0  0
  7 12  1  0  0  0  0
  7  8  2  0  0  0  0
  7 31  1  0  0  0  0
  8  9  1  0  0  0  0
  9 10  2  0  0  0  0
 10 11  1  0  0  0  0
 10 22  1  0  0  0  0
 11 12  2  0  0  0  0
 13 18  1  0  0  0  0
 13 14  2  0  0  0  0
 14 19  1  0  0  0  0
 14 15  1  0  0  0  0
 15 16  2  0  0  0  0
 15 25  1  0  0  0  0
 16 17  1  0  0  0  0
 17 18  2  0  0  0  0
 17 32  1  0  0  0  0
 20 21  2  0  0  0  0
 20 31  1  0  0  0  0
 20 32  1  0  0  0  0
 23 24  2  0  0  0  0
 23 30  1  0  0  0  0
 25 26  1  0  0  0  0
 25 27  1  0  0  0  0
 25 28  1  0  0  0  0
 29 30  1  0  0  0  0
M  END
