755605
 OpenBabel07281513542D

 32 34  0  0  0  0  0  0  0  0999 V2000
    0.1265   -0.0668    0.0000 C   0  0  0  0  0  0  0  0  0  0  0  0
   -0.5205   -0.5367    0.0000 N   0  0  0  0  0  0  0  0  0  0  0  0
   -0.2736   -1.2976    0.0000 C   0  0  0  0  0  0  0  0  0  0  0  0
    0.5264   -1.2976    0.0000 C   0  0  0  0  0  0  0  0  0  0  0  0
    0.7734   -0.5367    0.0000 N   0  0  0  0  0  0  0  0  0  0  0  0
    0.1265    0.7333    0.0000 S   0  0  0  0  0  0  0  0  0  0  0  0
   -0.8395   -1.8636    0.0000 O   0  0  0  0  0  0  0  0  0  0  0  0
   -1.2526   -0.1147    0.0000 C   0  0  0  0  0  0  0  0  0  0  0  0
   -1.2526    0.6853    0.0000 C   0  0  0  0  0  0  0  0  0  0  0  0
   -1.9456    1.0853    0.0000 C   0  0  0  0  0  0  0  0  0  0  0  0
   -2.6375    0.6853    0.0000 C   0  0  0  0  0  0  0  0  0  0  0  0
   -2.6375   -0.1147    0.0000 C   0  0  0  0  0  0  0  0  0  0  0  0
   -1.9456   -0.5146    0.0000 C   0  0  0  0  0  0  0  0  0  0  0  0
   -3.3306    1.0853    0.0000 C   0  0  0  0  0  0  0  0  0  0  0  0
   -4.0233    0.6852    0.0000 N   0  0  0  0  0  0  0  0  0  0  0  0
   -3.3306   -0.5146    0.0000 C   0  0  0  0  0  0  0  0  0  0  0  0
   -3.7305    0.1781    0.0000 F   0  0  0  0  0  0  0  0  0  0  0  0
   -4.0234   -0.9146    0.0000 F   0  0  0  0  0  0  0  0  0  0  0  0
   -2.9306   -1.2075    0.0000 F   0  0  0  0  0  0  0  0  0  0  0  0
    1.5203   -0.1057    0.0000 C   0  0  0  0  0  0  0  0  0  0  0  0
    2.2123   -0.5056    0.0000 C   0  0  0  0  0  0  0  0  0  0  0  0
    2.9053   -0.1057    0.0000 C   0  0  0  0  0  0  0  0  0  0  0  0
    2.9053    0.6943    0.0000 C   0  0  0  0  0  0  0  0  0  0  0  0
    2.2123    1.0943    0.0000 C   0  0  0  0  0  0  0  0  0  0  0  0
    1.5203    0.6943    0.0000 C   0  0  0  0  0  0  0  0  0  0  0  0
    2.2123    1.8943    0.0000 F   0  0  0  0  0  0  0  0  0  0  0  0
    3.5984    1.0943    0.0000 C   0  0  0  0  0  0  0  0  0  0  0  0
    3.5984    1.8943    0.0000 O   0  0  0  0  0  0  0  0  0  0  0  0
    4.2913    0.6943    0.0000 N   0  0  0  0  0  0  0  0  0  0  0  0
    4.2913   -0.1057    0.0000 C   0  0  0  0  0  0  0  0  0  0  0  0
    1.3264   -1.2976    0.0000 C   0  0  0  0  0  0  0  0  0  0  0  0
    0.5264   -2.0977    0.0000 C   0  0  0  0  0  0  0  0  0  0  0  0
  1  2  1  0  0  0  0
  1  5  1  0  0  0  0
  1  6  2  0  0  0  0
  2  3  1  0  0  0  0
  2  8  1  0  0  0  0
  3  4  1  0  0  0  0
  3  7  2  0  0  0  0
  4  5  1  0  0  0  0
  4 31  1  0  0  0  0
  4 32  1  0  0  0  0
  5 20  1  0  0  0  0
  8  9  2  0  0  0  0
  8 13  1  0  0  0  0
  9 10  1  0  0  0  0
 10 11  2  0  0  0  0
 11 12  1  0  0  0  0
 11 14  1  0  0  0  0
 12 13  2  0  0  0  0
 12 16  1  0  0  0  0
 14 15  3  0  0  0  0
 16 17  1  0  0  0  0
 16 18  1  0  0  0  0
 16 19  1  0  0  0  0
 20 21  2  0  0  0  0
 20 25  1  0  0  0  0
 21 22  1  0  0  0  0
 22 23  2  0  0  0  0
 23 24  1  0  0  0  0
 23 27  1  0  0  0  0
 24 25  2  0  0  0  0
 24 26  1  0  0  0  0
 27 28  2  0  0  0  0
 27 29  1  0  0  0  0
 29 30  1  0  0  0  0
M  END
