765694
 OpenBabel07281513532D

 36 39  0  0  0  0  0  0  0  0999 V2000
   -0.6117   -0.0644    0.0000 C   0  0  0  0  0  0  0  0  0  0  0  0
   -0.6117   -0.8643    0.0000 C   0  0  0  0  0  0  0  0  0  0  0  0
    0.0812   -1.2643    0.0000 C   0  0  0  0  0  0  0  0  0  0  0  0
    0.7742   -0.8643    0.0000 C   0  0  0  0  0  0  0  0  0  0  0  0
    0.7742   -0.0644    0.0000 C   0  0  0  0  0  0  0  0  0  0  0  0
    0.0812    0.3356    0.0000 C   0  0  0  0  0  0  0  0  0  0  0  0
    1.4662   -1.2643    0.0000 N   0  0  0  0  0  0  0  0  0  0  0  0
    2.1592   -0.8643    0.0000 C   0  0  0  0  0  0  0  0  0  0  0  0
    2.1592   -0.0644    0.0000 C   0  0  0  0  0  0  0  0  0  0  0  0
    1.4662    0.3356    0.0000 C   0  0  0  0  0  0  0  0  0  0  0  0
   -1.3047   -1.2643    0.0000 O   0  0  0  0  0  0  0  0  0  0  0  0
   -1.9977   -0.8643    0.0000 C   0  0  0  0  0  0  0  0  0  0  0  0
   -2.6897   -1.2643    0.0000 C   0  0  0  0  0  0  0  0  0  0  0  0
   -3.3827   -0.8643    0.0000 C   0  0  0  0  0  0  0  0  0  0  0  0
   -4.0757   -1.2643    0.0000 N   0  0  0  0  0  0  0  0  0  0  0  0
   -4.7687   -0.8643    0.0000 C   0  0  0  0  0  0  0  0  0  0  0  0
   -5.4617   -1.2643    0.0000 C   0  0  0  0  0  0  0  0  0  0  0  0
   -5.4617   -2.0643    0.0000 N   0  0  0  0  0  0  0  0  0  0  0  0
   -4.7687   -2.4643    0.0000 C   0  0  0  0  0  0  0  0  0  0  0  0
   -4.0757   -2.0643    0.0000 C   0  0  0  0  0  0  0  0  0  0  0  0
    2.1592    1.5356    0.0000 C   0  0  0  0  0  0  0  0  0  0  0  0
    2.8522    1.1356    0.0000 C   0  0  0  0  0  0  0  0  0  0  0  0
    3.5452    1.5356    0.0000 C   0  0  0  0  0  0  0  0  0  0  0  0
    3.5452    2.3356    0.0000 C   0  0  0  0  0  0  0  0  0  0  0  0
    2.8522    2.7355    0.0000 C   0  0  0  0  0  0  0  0  0  0  0  0
    2.1592    2.3356    0.0000 C   0  0  0  0  0  0  0  0  0  0  0  0
    4.2382    2.7355    0.0000 Cl  0  0  0  0  0  0  0  0  0  0  0  0
    1.4662    2.7355    0.0000 Cl  0  0  0  0  0  0  0  0  0  0  0  0
    4.2382    1.1356    0.0000 O   0  0  0  0  0  0  0  0  0  0  0  0
    4.9309    1.5356    0.0000 C   0  0  0  0  0  0  0  0  0  0  0  0
   -1.3047    0.3356    0.0000 O   0  0  0  0  0  0  0  0  0  0  0  0
   -1.9975   -0.0645    0.0000 C   0  0  0  0  0  0  0  0  0  0  0  0
    2.8522    0.3356    0.0000 C   0  0  0  0  0  0  0  0  0  0  0  0
    3.5449   -0.0645    0.0000 N   0  0  0  0  0  0  0  0  0  0  0  0
   -6.2977   -2.5464    0.0000 C   0  0  0  0  0  0  0  0  0  0  0  0
    1.4662    1.1356    0.0000 N   0  0  0  0  0  0  0  0  0  0  0  0
  1  2  2  0  0  0  0
  1  6  1  0  0  0  0
  1 31  1  0  0  0  0
  2  3  1  0  0  0  0
  2 11  1  0  0  0  0
  3  4  2  0  0  0  0
  4  5  1  0  0  0  0
  4  7  1  0  0  0  0
  5  6  2  0  0  0  0
  5 10  1  0  0  0  0
  7  8  2  0  0  0  0
  8  9  1  0  0  0  0
  9 10  2  0  0  0  0
  9 33  1  0  0  0  0
 10 36  1  0  0  0  0
 11 12  1  0  0  0  0
 12 13  1  0  0  0  0
 13 14  1  0  0  0  0
 14 15  1  0  0  0  0
 15 16  1  0  0  0  0
 15 20  1  0  0  0  0
 16 17  1  0  0  0  0
 17 18  1  0  0  0  0
 18 19  1  0  0  0  0
 18 35  1  0  0  0  0
 19 20  1  0  0  0  0
 21 22  2  0  0  0  0
 21 26  1  0  0  0  0
 21 36  1  0  0  0  0
 22 23  1  0  0  0  0
 23 24  2  0  0  0  0
 23 29  1  0  0  0  0
 24 25  1  0  0  0  0
 24 27  1  0  0  0  0
 25 26  2  0  0  0  0
 26 28  1  0  0  0  0
 29 30  1  0  0  0  0
 31 32  1  0  0  0  0
 33 34  3  0  0  0  0
M  END
