45388
 OpenBabel07281513542D

 14 14  0  0  0  0  0  0  0  0999 V2000
   -5.6825   -7.4612    0.0000 N   0  0  0  0  0  0  0  0  0  0  0  0
   -3.2687   -7.2075    0.0000 N   0  0  0  0  0  0  0  0  0  0  0  0
   -1.8015   -7.5193    0.0000 H   0  0  0  0  0  0  0  0  0  0  0  0
   -3.1288   -4.5381    0.0000 N   0  0  0  0  0  0  0  0  0  0  0  0
   -5.3706   -5.9940    0.0000 C   0  0  0  0  0  0  0  0  0  0  0  0
   -3.8788   -5.8372    0.0000 C   0  0  0  0  0  0  0  0  0  0  0  0
   -4.3834   -8.2112    0.0000 C   0  0  0  0  0  0  0  0  0  0  0  0
   -6.3743   -4.8792    0.0000 C   0  0  0  0  0  0  0  0  0  0  0  0
   -7.8415   -5.1911    0.0000 O   0  0  0  0  0  0  0  0  0  0  0  0
   -5.9108   -3.4527    0.0000 N   0  0  0  0  0  0  0  0  0  0  0  0
   -1.6288   -4.5381    0.0000 N   0  0  0  0  0  0  0  0  0  0  0  0
   -0.8788   -3.2391    0.0000 N   0  0  0  0  0  0  0  0  0  0  0  0
    0.6212   -3.2391    0.0000 C   0  0  0  0  0  0  0  0  0  0  0  0
   -1.6288   -1.9400    0.0000 C   0  0  0  0  0  0  0  0  0  0  0  0
  1  7  2  0  0  0  0
  1  5  1  0  0  0  0
  2  6  1  0  0  0  0
  2  7  1  0  0  0  0
  2  3  1  0  0  0  0
  4  6  1  0  0  0  0
  4 11  2  0  0  0  0
  5  6  2  0  0  0  0
  5  8  1  0  0  0  0
  8  9  2  0  0  0  0
  8 10  1  0  0  0  0
 11 12  1  0  0  0  0
 12 13  1  0  0  0  0
 12 14  1  0  0  0  0
M  END
