13875
 OpenBabel07281513532D

 15 15  0  0  0  0  0  0  0  0999 V2000
    7.5104   -0.4701    0.0000 N   0  0  0  0  0  0  0  0  0  0  0  0
    8.8094    1.7799    0.0000 N   0  0  0  0  0  0  0  0  0  0  0  0
   10.1085   -0.4701    0.0000 N   0  0  0  0  0  0  0  0  0  0  0  0
   10.1085    1.0299    0.0000 C   0  0  0  0  0  0  0  0  0  0  0  0
    7.5104    1.0299    0.0000 C   0  0  0  0  0  0  0  0  0  0  0  0
    8.8094   -1.2201    0.0000 C   0  0  0  0  0  0  0  0  0  0  0  0
    6.2113    1.7799    0.0000 N   0  0  0  0  0  0  0  0  0  0  0  0
    4.9123    1.0299    0.0000 C   0  0  0  0  0  0  0  0  0  0  0  0
    6.2113    3.2799    0.0000 C   0  0  0  0  0  0  0  0  0  0  0  0
    8.8094   -2.7201    0.0000 N   0  0  0  0  0  0  0  0  0  0  0  0
    7.5104   -3.4701    0.0000 C   0  0  0  0  0  0  0  0  0  0  0  0
   10.1085   -3.4701    0.0000 C   0  0  0  0  0  0  0  0  0  0  0  0
   11.4075    1.7799    0.0000 N   0  0  0  0  0  0  0  0  0  0  0  0
   12.7065    1.0299    0.0000 C   0  0  0  0  0  0  0  0  0  0  0  0
   11.4075    3.2799    0.0000 C   0  0  0  0  0  0  0  0  0  0  0  0
  1  5  2  0  0  0  0
  1  6  1  0  0  0  0
  2  4  2  0  0  0  0
  2  5  1  0  0  0  0
  3  6  2  0  0  0  0
  3  4  1  0  0  0  0
  4 13  1  0  0  0  0
  5  7  1  0  0  0  0
  6 10  1  0  0  0  0
  7  8  1  0  0  0  0
  7  9  1  0  0  0  0
 10 11  1  0  0  0  0
 10 12  1  0  0  0  0
 13 14  1  0  0  0  0
 13 15  1  0  0  0  0
M  END
