747973
 OpenBabel07281513532D

 35 37  0  0  1  0  0  0  0  0999 V2000
    5.6410   -1.4776    0.0000 C   0  0  2  0  0  0  0  0  0  0  0  0
    6.5227   -2.6911    0.0000 C   0  0  0  0  0  0  0  0  0  0  0  0
    7.9493   -2.2276    0.0000 C   0  0  0  0  0  0  0  0  0  0  0  0
    7.9493   -0.7276    0.0000 C   0  0  0  0  0  0  0  0  0  0  0  0
    6.5227   -0.2640    0.0000 C   0  0  2  0  0  0  0  0  0  0  0  0
    9.2483   -2.9776    0.0000 C   0  0  0  0  0  0  0  0  0  0  0  0
   10.5473   -2.2275    0.0000 C   0  0  2  0  0  0  0  0  0  0  0  0
    9.2483    0.0224    0.0000 C   0  0  1  0  0  0  0  0  0  0  0  0
   11.8464   -2.9775    0.0000 C   0  0  1  0  0  0  0  0  0  0  0  0
   13.1454   -2.2275    0.0000 C   0  0  2  0  0  0  0  0  0  0  0  0
   13.1454   -0.7276    0.0000 C   0  0  0  0  0  0  0  0  0  0  0  0
   11.8464    0.0224    0.0000 C   0  0  0  0  0  0  0  0  0  0  0  0
   14.5720   -2.6911    0.0000 C   0  0  0  0  0  0  0  0  0  0  0  0
   14.5720   -0.2640    0.0000 C   0  0  1  0  0  0  0  0  0  0  0  0
    9.2483    1.5224    0.0000 C   0  0  0  0  0  0  0  0  0  0  0  0
    7.9492    2.2724    0.0000 C   0  0  0  0  0  0  0  0  0  0  0  0
    7.9492    3.7724    0.0000 C   0  0  0  0  0  0  0  0  0  0  0  0
    9.1628    4.6541    0.0000 N   0  0  0  0  0  0  0  0  0  0  0  0
    8.6992    6.0807    0.0000 C   0  0  0  0  0  0  0  0  0  0  0  0
    7.1992    6.0807    0.0000 S   0  0  0  0  0  0  0  0  0  0  0  0
    6.7357    4.6541    0.0000 C   0  0  0  0  0  0  0  0  0  0  0  0
   11.8464    1.5224    0.0000 O   0  0  0  0  0  0  0  0  0  0  0  0
   15.0355   -4.1177    0.0000 O   0  0  0  0  0  0  0  0  0  0  0  0
   15.4537   -1.4775    0.0000 C   0  0  0  0  0  0  0  0  0  0  0  0
    5.0309   -0.1072    0.0000 O   0  0  0  0  0  0  0  0  0  0  0  0
    4.3420   -2.2276    0.0000 C   0  0  0  0  0  0  0  0  0  0  0  0
   10.5473    2.2724    0.0000 C   0  0  0  0  0  0  0  0  0  0  0  0
    9.5809    7.2942    0.0000 C   0  0  0  0  0  0  0  0  0  0  0  0
   10.5473   -0.7276    0.0000 N   0  0  0  0  0  0  0  0  0  0  0  0
   15.0355    1.1626    0.0000 O   0  0  0  0  0  0  0  0  0  0  0  0
   16.5684   -0.4738    0.0000 C   0  0  0  0  0  0  0  0  0  0  0  0
   16.5684   -2.4812    0.0000 C   0  0  0  0  0  0  0  0  0  0  0  0
   12.9886   -0.7358    0.0000 C   0  0  0  0  0  0  0  0  0  0  0  0
   11.8464   -4.4775    0.0000 O   0  0  0  0  0  0  0  0  0  0  0  0
   10.5473   -3.7275    0.0000 C   0  0  0  0  0  0  0  0  0  0  0  0
  1  2  1  0  0  0  0
  1  5  1  0  0  0  0
  1 25  1  0  0  0  0
  1 26  1  6  0  0  0
  2  3  1  0  0  0  0
  3  6  1  0  0  0  0
  4  8  1  0  0  0  0
  5  4  1  1  0  0  0
  5 25  1  0  0  0  0
  6  7  1  0  0  0  0
  7  9  1  0  0  0  0
  7 35  1  6  0  0  0
  8 15  1  1  0  0  0
  8 29  1  0  0  0  0
  9 10  1  0  0  0  0
  9 34  1  1  0  0  0
 10 13  1  0  0  0  0
 10 33  1  1  0  0  0
 11 12  1  0  0  0  0
 11 14  1  0  0  0  0
 12 22  2  0  0  0  0
 12 29  1  0  0  0  0
 13 23  2  0  0  0  0
 13 24  1  0  0  0  0
 14 24  1  0  0  0  0
 14 30  1  6  0  0  0
 15 16  2  0  0  0  0
 15 27  1  0  0  0  0
 16 17  1  0  0  0  0
 17 18  1  0  0  0  0
 17 21  2  0  0  0  0
 18 19  2  0  0  0  0
 19 20  1  0  0  0  0
 19 28  1  0  0  0  0
 20 21  1  0  0  0  0
 24 31  1  0  0  0  0
 24 32  1  0  0  0  0
M  END
