296961
 OpenBabel07281513532D

 12 11  0  0  0  0  0  0  0  0999 V2000
   -5.4822   -7.2452    0.0000 S   0  0  0  0  0  0  0  0  0  0  0  0
   -3.9822   -7.2452    0.0000 P   0  0  0  0  0  0  0  0  0  0  0  0
   -3.9822   -5.7452    0.0000 O   0  0  0  0  0  0  0  0  0  0  0  0
   -9.9823   -2.0491    0.0000 C   0  0  0  0  0  0  0  0  0  0  0  0
   -8.4823   -2.0490    0.0000 C   0  0  0  0  0  0  0  0  0  0  0  0
   -7.7322   -3.3481    0.0000 C   0  0  0  0  0  0  0  0  0  0  0  0
   -7.7322   -5.9462    0.0000 C   0  0  0  0  0  0  0  0  0  0  0  0
   -6.2322   -5.9462    0.0000 C   0  0  0  0  0  0  0  0  0  0  0  0
   -8.4822   -4.6471    0.0000 N   0  0  0  0  0  0  0  0  0  0  0  0
   -3.9822   -8.7452    0.0000 O   0  0  0  0  0  0  0  0  0  0  0  0
   -2.4822   -7.2452    0.0000 O   0  0  0  0  0  0  0  0  0  0  0  0
  -10.7323   -0.7500    0.0000 N   0  0  0  0  0  0  0  0  0  0  0  0
  1  2  1  0  0  0  0
  1  8  1  0  0  0  0
  2  3  2  0  0  0  0
  2 10  1  0  0  0  0
  2 11  1  0  0  0  0
  4  5  1  0  0  0  0
  4 12  1  0  0  0  0
  5  6  1  0  0  0  0
  6  9  1  0  0  0  0
  7  8  1  0  0  0  0
  7  9  1  0  0  0  0
M  END
