608210
 OpenBabel07281513542D

 70 77  0  0  1  0  0  0  0  0999 V2000
   -5.3881    1.2265    0.0000 C   0  0  0  0  0  0  0  0  0  0  0  0
   -4.6321    2.5221    0.0000 C   0  0  0  0  0  0  0  0  0  0  0  0
   -3.1664    2.2035    0.0000 C   0  0  0  0  0  0  0  0  0  0  0  0
   -3.0164    0.7110    0.0000 C   0  0  0  0  0  0  0  0  0  0  0  0
   -5.3762    3.8245    0.0000 C   0  0  0  0  0  0  0  0  0  0  0  0
   -6.8762    3.8314    0.0000 C   0  0  0  0  0  0  0  0  0  0  0  0
   -7.6321    2.5358    0.0000 C   0  0  0  0  0  0  0  0  0  0  0  0
   -6.8881    1.2333    0.0000 C   0  0  0  0  0  0  0  0  0  0  0  0
   -1.8550   -0.2383    0.0000 C   0  0  2  0  0  0  0  0  0  0  0  0
   -0.9057    0.9230    0.0000 C   0  0  0  0  0  0  0  0  0  0  0  0
   -0.7246    3.5148    0.0000 N   0  0  3  0  0  0  0  0  0  0  0  0
   -2.2170    3.3648    0.0000 C   0  0  0  0  0  0  0  0  0  0  0  0
    0.5868    1.0730    0.0000 C   0  0  2  0  0  0  0  0  0  0  0  0
    1.8043    1.9491    0.0000 C   0  0  0  0  0  0  0  0  0  0  0  0
    1.6544    3.4416    0.0000 C   0  0  0  0  0  0  0  0  0  0  0  0
    0.2869    4.0580    0.0000 C   0  0  0  0  0  0  0  0  0  0  0  0
   -4.3895    0.1072    0.0000 N   0  0  0  0  0  0  0  0  0  0  0  0
    0.4368    2.5655    0.0000 C   0  0  0  0  0  0  0  0  0  0  0  0
    1.1179   -0.3298    0.0000 H   0  0  0  0  0  0  0  0  0  0  0  0
    2.8719    4.3177    0.0000 C   0  0  0  0  0  0  0  0  0  0  0  0
    4.2395    3.7013    0.0000 C   0  0  0  0  0  0  0  0  0  0  0  0
    4.9630   -5.4086    0.0000 N   0  0  0  0  0  0  0  0  0  0  0  0
    3.6296   -4.7215    0.0000 C   0  0  0  0  0  0  0  0  0  0  0  0
    3.8711   -3.2410    0.0000 C   0  0  0  0  0  0  0  0  0  0  0  0
    5.3537   -3.0131    0.0000 C   0  0  1  0  0  0  0  0  0  0  0  0
    6.0285   -4.3528    0.0000 C   0  0  2  0  0  0  0  0  0  0  0  0
    2.7097   -2.2917    0.0000 C   0  0  0  0  0  0  0  0  0  0  0  0
    1.3069   -2.8228    0.0000 C   0  0  0  0  0  0  0  0  0  0  0  0
    1.0654   -4.3033    0.0000 C   0  0  0  0  0  0  0  0  0  0  0  0
    2.2268   -5.2526    0.0000 C   0  0  0  0  0  0  0  0  0  0  0  0
    5.2058   -5.6070    0.0000 C   0  0  2  0  0  0  0  0  0  0  0  0
    3.7082   -5.5217    0.0000 C   0  0  1  0  0  0  0  0  0  0  0  0
    3.0334   -4.1820    0.0000 C   0  0  1  0  0  0  0  0  0  0  0  0
    3.8561   -2.9278    0.0000 C   0  0  2  0  0  0  0  0  0  0  0  0
    1.5358   -4.0967    0.0000 C   0  0  0  0  0  0  0  0  0  0  0  0
    0.8610   -2.7570    0.0000 C   0  0  0  0  0  0  0  0  0  0  0  0
    1.6837   -1.5028    0.0000 C   0  0  0  0  0  0  0  0  0  0  0  0
    3.1812   -1.5882    0.0000 N   0  0  3  0  0  0  0  0  0  0  0  0
    5.0792   -5.5142    0.0000 H   0  0  0  0  0  0  0  0  0  0  0  0
    5.8237   -1.5887    0.0000 C   0  0  0  0  0  0  0  0  0  0  0  0
    4.5695   -0.7660    0.0000 C   0  0  0  0  0  0  0  0  0  0  0  0
    4.5310   -4.2674    0.0000 H   0  0  0  0  0  0  0  0  0  0  0  0
    5.1909   -6.8912    0.0000 C   0  0  0  0  0  0  0  0  0  0  0  0
    6.5839   -6.1994    0.0000 C   0  0  0  0  0  0  0  0  0  0  0  0
    6.7599   -7.6891    0.0000 O   0  0  0  0  0  0  0  0  0  0  0  0
    7.7860   -5.3022    0.0000 O   0  0  0  0  0  0  0  0  0  0  0  0
    7.6100   -3.8126    0.0000 C   0  0  0  0  0  0  0  0  0  0  0  0
    2.8855   -6.7759    0.0000 O   0  0  0  0  0  0  0  0  0  0  0  0
    3.5604   -8.1155    0.0000 C   0  0  0  0  0  0  0  0  0  0  0  0
    2.7377   -9.3698    0.0000 O   0  0  0  0  0  0  0  0  0  0  0  0
    5.0579   -8.2009    0.0000 C   0  0  0  0  0  0  0  0  0  0  0  0
    1.6759   -6.2515    0.0000 C   0  0  0  0  0  0  0  0  0  0  0  0
    0.1783   -6.1662    0.0000 C   0  0  0  0  0  0  0  0  0  0  0  0
    6.2567    6.5400    0.0000 C   0  0  1  0  0  0  0  0  0  0  0  0
    6.9315    5.2003    0.0000 C   0  0  2  0  0  0  0  0  0  0  0  0
    8.4291    5.1150    0.0000 C   0  0  0  0  0  0  0  0  0  0  0  0
    9.1039    3.7754    0.0000 O   0  0  0  0  0  0  0  0  0  0  0  0
    9.2518    6.3692    0.0000 O   0  0  0  0  0  0  0  0  0  0  0  0
    7.0794    7.7942    0.0000 O   0  0  0  0  0  0  0  0  0  0  0  0
    6.1088    3.9461    0.0000 O   0  0  0  0  0  0  0  0  0  0  0  0
    4.7591    6.6253    0.0000 C   0  0  0  0  0  0  0  0  0  0  0  0
    4.0842    7.9649    0.0000 O   0  0  0  0  0  0  0  0  0  0  0  0
    3.9364    5.3711    0.0000 O   0  0  0  0  0  0  0  0  0  0  0  0
   -2.8043   -1.3997    0.0000 C   0  0  0  0  0  0  0  0  0  0  0  0
   -2.2732   -2.8026    0.0000 O   0  0  0  0  0  0  0  0  0  0  0  0
   -4.2848   -1.1583    0.0000 O   0  0  0  0  0  0  0  0  0  0  0  0
   -5.2341   -2.3197    0.0000 C   0  0  0  0  0  0  0  0  0  0  0  0
   -0.3374   -4.8344    0.0000 O   0  0  0  0  0  0  0  0  0  0  0  0
   -1.4988   -3.8851    0.0000 C   0  0  0  0  0  0  0  0  0  0  0  0
    4.8617   -7.0670    0.0000 O   0  0  0  0  0  0  0  0  0  0  0  0
  1  2  2  0  0  0  0
  1  8  1  0  0  0  0
  1 17  1  0  0  0  0
  2  3  1  0  0  0  0
  2  5  1  0  0  0  0
  3  4  2  0  0  0  0
  3 12  1  0  0  0  0
  4  9  1  0  0  0  0
  4 17  1  0  0  0  0
  5  6  2  0  0  0  0
  6  7  1  0  0  0  0
  7  8  2  0  0  0  0
  9 10  1  0  0  0  0
  9 28  1  6  0  0  0
  9 64  1  0  0  0  0
 10 13  1  0  0  0  0
 11 12  1  0  0  0  0
 11 16  1  0  0  0  0
 11 18  1  0  0  0  0
 13 14  1  0  0  0  0
 13 18  1  0  0  0  0
 13 19  1  6  0  0  0
 14 15  2  0  0  0  0
 15 16  1  0  0  0  0
 15 20  1  0  0  0  0
 20 21  1  0  0  0  0
 22 23  1  0  0  0  0
 22 26  1  0  0  0  0
 22 43  1  0  0  0  0
 23 24  2  0  0  0  0
 23 30  1  0  0  0  0
 24 27  1  0  0  0  0
 25 24  1  1  0  0  0
 25 26  1  0  0  0  0
 25 34  1  0  0  0  0
 25 40  1  0  0  0  0
 26 31  1  0  0  0  0
 26 39  1  1  0  0  0
 27 28  2  0  0  0  0
 28 29  1  0  0  0  0
 29 30  2  0  0  0  0
 29 68  1  0  0  0  0
 31 32  1  0  0  0  0
 31 44  1  1  0  0  0
 31 70  1  0  0  0  0
 32 33  1  0  0  0  0
 32 48  1  6  0  0  0
 33 34  1  0  0  0  0
 33 35  1  0  0  0  0
 33 52  1  1  0  0  0
 34 38  1  0  0  0  0
 34 42  1  1  0  0  0
 35 36  2  0  0  0  0
 36 37  1  0  0  0  0
 37 38  1  0  0  0  0
 38 41  1  0  0  0  0
 40 41  1  0  0  0  0
 44 45  2  0  0  0  0
 44 46  1  0  0  0  0
 46 47  1  0  0  0  0
 48 49  1  0  0  0  0
 49 50  2  0  0  0  0
 49 51  1  0  0  0  0
 52 53  1  0  0  0  0
 54 55  1  0  0  0  0
 54 59  1  6  0  0  0
 54 61  1  0  0  0  0
 55 56  1  6  0  0  0
 55 60  1  0  0  0  0
 56 57  1  0  0  0  0
 56 58  2  0  0  0  0
 61 62  1  0  0  0  0
 61 63  2  0  0  0  0
 64 65  2  0  0  0  0
 64 66  1  0  0  0  0
 66 67  1  0  0  0  0
 68 69  1  0  0  0  0
M  END
