754230
 OpenBabel07281513542D

 36 38  0  0  1  0  0  0  0  0999 V2000
    2.0490    3.7500    0.0000 N   0  0  0  0  0  0  0  0  0  0  0  0
    2.0490    2.2500    0.0000 C   0  0  0  0  0  0  0  0  0  0  0  0
    3.3481    1.5000    0.0000 N   0  0  0  0  0  0  0  0  0  0  0  0
    4.6471    2.2500    0.0000 C   0  0  0  0  0  0  0  0  0  0  0  0
    4.6471    3.7500    0.0000 C   0  0  0  0  0  0  0  0  0  0  0  0
    3.3481    4.5000    0.0000 C   0  0  0  0  0  0  0  0  0  0  0  0
    5.9462    1.5000    0.0000 N   0  0  0  0  0  0  0  0  0  0  0  0
    7.2452    2.2500    0.0000 C   0  0  0  0  0  0  0  0  0  0  0  0
    7.2452    3.7500    0.0000 C   0  0  0  0  0  0  0  0  0  0  0  0
    5.9462    4.5000    0.0000 N   0  0  0  0  0  0  0  0  0  0  0  0
    9.8433    2.2500    0.0000 C   0  0  0  0  0  0  0  0  0  0  0  0
    9.8433    3.7500    0.0000 C   0  0  3  0  0  0  0  0  0  0  0  0
    8.5442    4.5000    0.0000 C   0  0  0  0  0  0  0  0  0  0  0  0
   12.4413    3.7500    0.0000 C   0  0  0  0  0  0  0  0  0  0  0  0
   11.1423    4.5000    0.0000 C   0  0  0  0  0  0  0  0  0  0  0  0
   13.7404    4.5000    0.0000 C   0  0  0  0  0  0  0  0  0  0  0  0
   13.7404    6.0000    0.0000 C   0  0  0  0  0  0  0  0  0  0  0  0
   12.4413    6.7500    0.0000 C   0  0  0  0  0  0  0  0  0  0  0  0
   11.1423    6.0000    0.0000 C   0  0  0  0  0  0  0  0  0  0  0  0
   15.0394    6.7500    0.0000 C   0  0  0  0  0  0  0  0  0  0  0  0
   18.9365    4.5001    0.0000 C   0  0  0  0  0  0  0  0  0  0  0  0
   18.9365    6.0001    0.0000 C   0  0  0  0  0  0  0  0  0  0  0  0
   17.6375    6.7500    0.0000 C   0  0  2  0  0  0  0  0  0  0  0  0
   15.0394    8.2500    0.0000 O   0  0  0  0  0  0  0  0  0  0  0  0
   16.3384    6.0000    0.0000 N   0  0  0  0  0  0  0  0  0  0  0  0
    3.3481    6.0000    0.0000 N   0  0  0  0  0  0  0  0  0  0  0  0
    0.7500    1.5000    0.0000 N   0  0  0  0  0  0  0  0  0  0  0  0
   17.6375    8.2500    0.0000 C   0  0  0  0  0  0  0  0  0  0  0  0
   18.9365    9.0000    0.0000 O   0  0  0  0  0  0  0  0  0  0  0  0
   16.3384    9.0000    0.0000 O   0  0  0  0  0  0  0  0  0  0  0  0
   20.2356    3.7500    0.0000 C   0  0  0  0  0  0  0  0  0  0  0  0
   21.5346    4.5001    0.0000 O   0  0  0  0  0  0  0  0  0  0  0  0
   20.2356    2.2500    0.0000 O   0  0  0  0  0  0  0  0  0  0  0  0
   16.3384    7.5000    0.0000 H   0  0  0  0  0  0  0  0  0  0  0  0
   11.1423    1.5000    0.0000 C   0  0  0  0  0  0  0  0  0  0  0  0
   12.4413    0.7500    0.0000 C   0  0  0  0  0  0  0  0  0  0  0  0
  1  2  2  0  0  0  0
  1  6  1  0  0  0  0
  2  3  1  0  0  0  0
  2 27  1  0  0  0  0
  3  4  2  0  0  0  0
  4  5  1  0  0  0  0
  4  7  1  0  0  0  0
  5  6  2  0  0  0  0
  5 10  1  0  0  0  0
  6 26  1  0  0  0  0
  7  8  2  0  0  0  0
  8  9  1  0  0  0  0
  9 10  2  0  0  0  0
  9 13  1  0  0  0  0
 11 35  1  0  0  0  0
 12 11  1  0  0  0  0
 12 13  1  0  0  0  0
 12 15  1  0  0  0  0
 14 15  2  0  0  0  0
 14 16  1  0  0  0  0
 15 19  1  0  0  0  0
 16 17  2  0  0  0  0
 17 18  1  0  0  0  0
 17 20  1  0  0  0  0
 18 19  2  0  0  0  0
 20 24  2  0  0  0  0
 20 25  1  0  0  0  0
 21 22  1  0  0  0  0
 21 31  1  0  0  0  0
 22 23  1  0  0  0  0
 23 25  1  0  0  0  0
 23 28  1  0  0  0  0
 23 34  1  1  0  0  0
 28 29  1  0  0  0  0
 28 30  2  0  0  0  0
 31 32  2  0  0  0  0
 31 33  1  0  0  0  0
 35 36  3  0  0  0  0
M  END
