698037
 OpenBabel07281513532D

 31 33  0  0  1  0  0  0  0  0999 V2000
    1.0412    2.3161    0.0000 C   0  0  0  0  0  0  0  0  0  0  0  0
    0.0375    3.4308    0.0000 N   0  0  0  0  0  0  0  0  0  0  0  0
    0.5010    4.8574    0.0000 C   0  0  0  0  0  0  0  0  0  0  0  0
    1.9683    5.1693    0.0000 C   0  0  0  0  0  0  0  0  0  0  0  0
    2.9720    4.0546    0.0000 C   0  0  0  0  0  0  0  0  0  0  0  0
    0.7547    7.2712    0.0000 C   0  0  0  0  0  0  0  0  0  0  0  0
    0.5777    0.8895    0.0000 N   0  0  0  0  0  0  0  0  0  0  0  0
    4.4392    4.3664    0.0000 O   0  0  0  0  0  0  0  0  0  0  0  0
   -0.2490    6.1565    0.0000 N   0  0  0  0  0  0  0  0  0  0  0  0
    2.1251    6.6611    0.0000 C   0  0  0  0  0  0  0  0  0  0  0  0
    3.4241    7.4111    0.0000 C   0  0  0  0  0  0  0  0  0  0  0  0
    4.7231    6.6611    0.0000 C   0  0  0  0  0  0  0  0  0  0  0  0
    6.0222    7.4111    0.0000 C   0  0  0  0  0  0  0  0  0  0  0  0
    7.3212    6.6611    0.0000 C   0  0  0  0  0  0  0  0  0  0  0  0
    8.6202    7.4111    0.0000 C   0  0  0  0  0  0  0  0  0  0  0  0
    8.6202    8.9111    0.0000 C   0  0  0  0  0  0  0  0  0  0  0  0
    7.3212    9.6611    0.0000 C   0  0  0  0  0  0  0  0  0  0  0  0
    6.0222    8.9111    0.0000 C   0  0  0  0  0  0  0  0  0  0  0  0
    9.9193    9.6611    0.0000 C   0  0  0  0  0  0  0  0  0  0  0  0
    9.9193   11.1611    0.0000 O   0  0  0  0  0  0  0  0  0  0  0  0
   12.5174    9.6611    0.0000 C   0  0  2  0  0  0  0  0  0  0  0  0
   13.8164    8.9111    0.0000 C   0  0  0  0  0  0  0  0  0  0  0  0
   15.1154    9.6611    0.0000 C   0  0  0  0  0  0  0  0  0  0  0  0
   11.2183    8.9111    0.0000 N   0  0  0  0  0  0  0  0  0  0  0  0
   12.5174   11.1611    0.0000 C   0  0  0  0  0  0  0  0  0  0  0  0
   11.2183   11.9111    0.0000 O   0  0  0  0  0  0  0  0  0  0  0  0
   13.8164   11.9111    0.0000 O   0  0  0  0  0  0  0  0  0  0  0  0
   16.4145    8.9111    0.0000 C   0  0  0  0  0  0  0  0  0  0  0  0
   17.7135    9.6611    0.0000 O   0  0  0  0  0  0  0  0  0  0  0  0
   16.4145    7.4111    0.0000 O   0  0  0  0  0  0  0  0  0  0  0  0
    2.5084    2.6280    0.0000 N   0  0  0  0  0  0  0  0  0  0  0  0
  1  2  2  0  0  0  0
  1  7  1  0  0  0  0
  1 31  1  0  0  0  0
  2  3  1  0  0  0  0
  3  4  2  0  0  0  0
  3  9  1  0  0  0  0
  4  5  1  0  0  0  0
  4 10  1  0  0  0  0
  5  8  2  0  0  0  0
  5 31  1  0  0  0  0
  6  9  1  0  0  0  0
  6 10  2  0  0  0  0
 10 11  1  0  0  0  0
 11 12  1  0  0  0  0
 12 13  1  0  0  0  0
 13 14  2  0  0  0  0
 13 18  1  0  0  0  0
 14 15  1  0  0  0  0
 15 16  2  0  0  0  0
 16 17  1  0  0  0  0
 16 19  1  0  0  0  0
 17 18  2  0  0  0  0
 19 20  2  0  0  0  0
 19 24  1  0  0  0  0
 21 22  1  6  0  0  0
 21 24  1  0  0  0  0
 21 25  1  0  0  0  0
 22 23  1  0  0  0  0
 23 28  1  0  0  0  0
 25 26  1  0  0  0  0
 25 27  2  0  0  0  0
 28 29  1  0  0  0  0
 28 30  2  0  0  0  0
M  END
