761431
 OpenBabel07281513532D

 33 36  0  0  0  0  0  0  0  0999 V2000
  -15.5854   -5.4933    0.0000 C   0  0  0  0  0  0  0  0  0  0  0  0
  -15.5854   -6.9933    0.0000 C   0  0  0  0  0  0  0  0  0  0  0  0
  -14.2863   -7.7433    0.0000 N   0  0  0  0  0  0  0  0  0  0  0  0
  -14.2863   -4.7433    0.0000 C   0  0  0  0  0  0  0  0  0  0  0  0
  -10.6790   -6.2433    0.0000 C   0  0  0  0  0  0  0  0  0  0  0  0
  -11.5607   -5.0298    0.0000 C   0  0  0  0  0  0  0  0  0  0  0  0
  -12.9873   -5.4933    0.0000 C   0  0  0  0  0  0  0  0  0  0  0  0
  -12.9873   -6.9933    0.0000 C   0  0  0  0  0  0  0  0  0  0  0  0
  -16.8844   -4.7433    0.0000 C   0  0  0  0  0  0  0  0  0  0  0  0
  -11.0972   -3.6032    0.0000 C   0  0  0  0  0  0  0  0  0  0  0  0
   -9.6300   -3.2913    0.0000 C   0  0  0  0  0  0  0  0  0  0  0  0
  -12.1009   -2.4885    0.0000 O   0  0  0  0  0  0  0  0  0  0  0  0
   -8.6263   -4.4060    0.0000 C   0  0  0  0  0  0  0  0  0  0  0  0
   -7.1591   -4.0942    0.0000 C   0  0  0  0  0  0  0  0  0  0  0  0
   -6.6955   -2.6676    0.0000 C   0  0  0  0  0  0  0  0  0  0  0  0
   -7.6992   -1.5529    0.0000 C   0  0  0  0  0  0  0  0  0  0  0  0
   -9.1665   -1.8647    0.0000 C   0  0  0  0  0  0  0  0  0  0  0  0
   -4.6881   -4.8970    0.0000 S   0  0  0  0  0  0  0  0  0  0  0  0
   -5.0000   -3.4298    0.0000 O   0  0  0  0  0  0  0  0  0  0  0  0
   -4.3763   -6.3642    0.0000 O   0  0  0  0  0  0  0  0  0  0  0  0
   -3.2209   -4.5851    0.0000 C   0  0  0  0  0  0  0  0  0  0  0  0
   -2.2172   -5.6998    0.0000 C   0  0  0  0  0  0  0  0  0  0  0  0
  -16.8844   -3.2433    0.0000 C   0  0  0  0  0  0  0  0  0  0  0  0
  -18.1835   -2.4933    0.0000 C   0  0  0  0  0  0  0  0  0  0  0  0
  -19.4825   -3.2433    0.0000 C   0  0  0  0  0  0  0  0  0  0  0  0
  -19.4825   -4.7433    0.0000 C   0  0  0  0  0  0  0  0  0  0  0  0
  -18.1835   -5.4933    0.0000 C   0  0  0  0  0  0  0  0  0  0  0  0
  -20.7815   -2.4933    0.0000 Cl  0  0  0  0  0  0  0  0  0  0  0  0
   -0.7500   -5.3880    0.0000 C   0  0  0  0  0  0  0  0  0  0  0  0
  -11.5607   -7.4568    0.0000 N   0  0  0  0  0  0  0  0  0  0  0  0
  -10.1702   -0.7500    0.0000 F   0  0  0  0  0  0  0  0  0  0  0  0
   -9.0898   -5.8326    0.0000 F   0  0  0  0  0  0  0  0  0  0  0  0
   -6.1554   -5.2089    0.0000 N   0  0  0  0  0  0  0  0  0  0  0  0
  1  2  2  0  0  0  0
  1  4  1  0  0  0  0
  1  9  1  0  0  0  0
  2  3  1  0  0  0  0
  3  8  2  0  0  0  0
  4  7  2  0  0  0  0
  5  6  2  0  0  0  0
  5 30  1  0  0  0  0
  6  7  1  0  0  0  0
  6 10  1  0  0  0  0
  7  8  1  0  0  0  0
  8 30  1  0  0  0  0
  9 23  2  0  0  0  0
  9 27  1  0  0  0  0
 10 11  1  0  0  0  0
 10 12  2  0  0  0  0
 11 17  1  0  0  0  0
 11 13  2  0  0  0  0
 13 14  1  0  0  0  0
 13 32  1  0  0  0  0
 14 15  2  0  0  0  0
 14 33  1  0  0  0  0
 15 16  1  0  0  0  0
 16 17  2  0  0  0  0
 17 31  1  0  0  0  0
 18 19  2  0  0  0  0
 18 20  2  0  0  0  0
 18 21  1  0  0  0  0
 18 33  1  0  0  0  0
 21 22  1  0  0  0  0
 22 29  1  0  0  0  0
 23 24  1  0  0  0  0
 24 25  2  0  0  0  0
 25 26  1  0  0  0  0
 25 28  1  0  0  0  0
 26 27  2  0  0  0  0
M  END
