266046
 OpenBabel07281513532D

 19 21  0  0  1  0  0  0  0  0999 V2000
   -5.7636   -0.7500    0.0000 H   0  0  0  0  0  0  0  0  0  0  0  0
   -5.7636   -5.9177    0.0000 H   0  0  0  0  0  0  0  0  0  0  0  0
   -5.1535   -2.1203    0.0000 N   0  3  0  0  0  0  0  0  0  0  0  0
   -5.1535   -4.5474    0.0000 N   0  3  0  0  0  0  0  0  0  0  0  0
   -3.8544   -5.2974    0.0000 H   0  0  0  0  0  0  0  0  0  0  0  0
   -3.8544   -1.3703    0.0000 H   0  0  0  0  0  0  0  0  0  0  0  0
   -4.2718   -3.3339    0.0000 Pt  0  2  0  0  0  0  0  0  0  0  0  0
   -3.3901   -4.5474    0.0000 O   0  5  0  0  0  0  0  0  0  0  0  0
   -3.3901   -2.1203    0.0000 O   0  5  0  0  0  0  0  0  0  0  0  0
   -1.9635   -4.0838    0.0000 C   0  0  0  0  0  0  0  0  0  0  0  0
   -1.9635   -2.5838    0.0000 C   0  0  0  0  0  0  0  0  0  0  0  0
   -0.7500   -4.9655    0.0000 O   0  0  0  0  0  0  0  0  0  0  0  0
   -0.7500   -1.7022    0.0000 O   0  0  0  0  0  0  0  0  0  0  0  0
   -9.1781   -2.5839    0.0000 C   0  0  0  0  0  0  0  0  0  0  0  0
   -9.1781   -4.0839    0.0000 C   0  0  0  0  0  0  0  0  0  0  0  0
   -7.8791   -4.8339    0.0000 C   0  0  0  0  0  0  0  0  0  0  0  0
   -6.5801   -4.0839    0.0000 C   0  0  2  0  0  0  0  0  0  0  0  0
   -6.5800   -2.5839    0.0000 C   0  0  1  0  0  0  0  0  0  0  0  0
   -7.8791   -1.8339    0.0000 C   0  0  0  0  0  0  0  0  0  0  0  0
  1  3  1  0  0  0  0
  2  4  1  0  0  0  0
  3  6  1  0  0  0  0
  3  7  1  0  0  0  0
  4  5  1  0  0  0  0
  4  7  1  0  0  0  0
  7  9  1  0  0  0  0
  7  8  1  0  0  0  0
  8 10  1  0  0  0  0
  9 11  1  0  0  0  0
 10 11  1  0  0  0  0
 10 12  2  0  0  0  0
 11 13  2  0  0  0  0
 14 15  1  0  0  0  0
 14 19  1  0  0  0  0
 15 16  1  0  0  0  0
 17 16  1  6  0  0  0
 17  4  1  0  0  0  0
 17 18  1  0  0  0  0
 18  3  1  1  0  0  0
 18 19  1  0  0  0  0
M  CHG  5   3   1   4   1   7   2   8  -1   9  -1
M  END
