369100
 OpenBabel07281513532D

 18 20  0  0  0  0  0  0  0  0999 V2000
    1.7131    1.3770    0.0000 C   0  0  0  0  0  0  0  0  0  0  0  0
    1.7131   -0.1230    0.0000 C   0  0  0  0  0  0  0  0  0  0  0  0
    3.0122   -0.8730    0.0000 C   0  0  0  0  0  0  0  0  0  0  0  0
    4.3112   -0.1230    0.0000 C   0  0  0  0  0  0  0  0  0  0  0  0
    4.3112    1.3770    0.0000 C   0  0  0  0  0  0  0  0  0  0  0  0
    3.0121    2.1270    0.0000 C   0  0  0  0  0  0  0  0  0  0  0  0
    5.6102    2.1270    0.0000 C   0  0  0  0  0  0  0  0  0  0  0  0
    5.6102    3.6270    0.0000 C   0  0  0  0  0  0  0  0  0  0  0  0
    4.3112    4.3770    0.0000 C   0  0  0  0  0  0  0  0  0  0  0  0
    3.0121    3.6270    0.0000 N   0  0  0  0  0  0  0  0  0  0  0  0
    7.0368    1.6635    0.0000 N   0  0  0  0  0  0  0  0  0  0  0  0
    7.9185    2.8770    0.0000 C   0  0  0  0  0  0  0  0  0  0  0  0
    7.0368    4.0905    0.0000 N   0  0  0  0  0  0  0  0  0  0  0  0
    7.5003    0.2369    0.0000 C   0  0  0  0  0  0  0  0  0  0  0  0
    8.9676   -0.0750    0.0000 C   0  0  0  0  0  0  0  0  0  0  0  0
    9.9713    1.0397    0.0000 C   0  0  0  0  0  0  0  0  0  0  0  0
    9.4311   -1.5016    0.0000 C   0  0  0  0  0  0  0  0  0  0  0  0
    4.3112    5.8770    0.0000 N   0  0  0  0  0  0  0  0  0  0  0  0
  1  2  2  0  0  0  0
  1  6  1  0  0  0  0
  2  3  1  0  0  0  0
  3  4  2  0  0  0  0
  4  5  1  0  0  0  0
  5  6  2  0  0  0  0
  5  7  1  0  0  0  0
  6 10  1  0  0  0  0
  7  8  2  0  0  0  0
  7 11  1  0  0  0  0
  8  9  1  0  0  0  0
  8 13  1  0  0  0  0
  9 10  2  0  0  0  0
  9 18  1  0  0  0  0
 11 12  1  0  0  0  0
 11 14  1  0  0  0  0
 12 13  2  0  0  0  0
 14 15  1  0  0  0  0
 15 16  1  0  0  0  0
 15 17  1  0  0  0  0
M  END
