683864
 OpenBabel07281513532D

 73 76  0  0  1  0  0  0  0  0999 V2000
   -4.6324   -2.1427    0.0000 C   0  0  2  0  0  0  0  0  0  0  0  0
   -4.8235   -3.6305    0.0000 C   0  0  0  0  0  0  0  0  0  0  0  0
   -3.6305   -4.5398    0.0000 C   0  0  0  0  0  0  0  0  0  0  0  0
   -2.0983   -4.3160    0.0000 C   0  0  2  0  0  0  0  0  0  0  0  0
   -1.8790   -2.6081    0.0000 O   0  0  0  0  0  0  0  0  0  0  0  0
   -3.2484   -1.5643    0.0000 C   0  0  1  0  0  0  0  0  0  0  0  0
   -1.1083   -5.4429    0.0000 C   0  0  0  0  0  0  0  0  0  0  0  0
    0.1009   -6.3305    0.0000 C   0  0  1  0  0  0  0  0  0  0  0  0
    1.4726   -6.9375    0.0000 C   0  0  0  0  0  0  0  0  0  0  0  0
    2.9650   -6.9932    0.0000 C   0  0  0  0  0  0  0  0  0  0  0  0
    4.4425   -7.2103    0.0000 C   0  0  0  0  0  0  0  0  0  0  0  0
    5.7931   -6.5578    0.0000 C   0  0  0  0  0  0  0  0  0  0  0  0
    7.2525   -6.2109    0.0000 C   0  0  0  0  0  0  0  0  0  0  0  0
    8.2043   -5.0516    0.0000 C   0  0  0  0  0  0  0  0  0  0  0  0
    9.3831   -4.1240    0.0000 C   0  0  2  0  0  0  0  0  0  0  0  0
   -3.3547   -0.0678    0.0000 C   0  0  0  0  0  0  0  0  0  0  0  0
   -3.1368    1.4163    0.0000 C   0  0  0  0  0  0  0  0  0  0  0  0
   -4.5886    1.7934    0.0000 O   0  0  0  0  0  0  0  0  0  0  0  0
   -4.8536   -0.0116    0.0000 O   0  0  0  0  0  0  0  0  0  0  0  0
   -2.6049    2.8189    0.0000 N   0  0  0  0  0  0  0  0  0  0  0  0
   -1.7839    4.0743    0.0000 C   0  0  1  0  0  0  0  0  0  0  0  0
   -2.4607    5.4129    0.0000 C   0  0  0  0  0  0  0  0  0  0  0  0
   -3.9584    5.4962    0.0000 C   0  0  0  0  0  0  0  0  0  0  0  0
   -4.7793    4.2408    0.0000 C   0  0  0  0  0  0  0  0  0  0  0  0
   -4.1026    2.9021    0.0000 C   0  0  0  0  0  0  0  0  0  0  0  0
   -0.7123    5.1239    0.0000 C   0  0  0  0  0  0  0  0  0  0  0  0
    0.5599    5.9185    0.0000 O   0  0  0  0  0  0  0  0  0  0  0  0
    1.9732    6.4212    0.0000 C   0  0  2  0  0  0  0  0  0  0  0  0
    1.6263    7.8805    0.0000 C   0  0  1  0  0  0  0  0  0  0  0  0
    5.2531    7.9411    0.0000 O   0  0  0  0  0  0  0  0  0  0  0  0
    4.9552    6.4710    0.0000 C   0  0  0  0  0  0  0  0  0  0  0  0
    3.4614    6.6082    0.0000 C   0  0  0  0  0  0  0  0  0  0  0  0
    8.7885    4.2509    0.0000 C   0  0  0  0  0  0  0  0  0  0  0  0
    7.5385    5.0680    0.0000 C   0  0  0  0  0  0  0  0  0  0  0  0
    6.3844    6.0158    0.0000 C   0  0  1  0  0  0  0  0  0  0  0  0
    2.7167    8.9106    0.0000 C   0  0  0  0  0  0  0  0  0  0  0  0
    2.3698   10.3699    0.0000 C   0  0  1  0  0  0  0  0  0  0  0  0
    0.9325   10.7992    0.0000 C   0  0  0  0  0  0  0  0  0  0  0  0
    0.5857   12.2585    0.0000 C   0  0  2  0  0  0  0  0  0  0  0  0
    1.6761   13.2886    0.0000 C   0  0  1  0  0  0  0  0  0  0  0  0
    3.1133   12.8593    0.0000 C   0  0  0  0  0  0  0  0  0  0  0  0
    3.4602   11.4000    0.0000 C   0  0  0  0  0  0  0  0  0  0  0  0
    1.3292   14.7479    0.0000 O   0  0  0  0  0  0  0  0  0  0  0  0
   10.4406   -1.3354    0.0000 C   0  0  1  0  0  0  0  0  0  0  0  0
   10.4967    0.1636    0.0000 C   0  0  0  0  0  0  0  0  0  0  0  0
   10.2294    1.6396    0.0000 C   0  0  1  0  0  0  0  0  0  0  0  0
    9.6509    3.0236    0.0000 C   0  0  2  0  0  0  0  0  0  0  0  0
   11.9930    0.2698    0.0000 O   0  0  0  0  0  0  0  0  0  0  0  0
    2.4196   15.7780    0.0000 C   0  0  0  0  0  0  0  0  0  0  0  0
    3.8568   15.3488    0.0000 O   0  0  0  0  0  0  0  0  0  0  0  0
    2.0727   17.2374    0.0000 C   0  0  0  0  0  0  0  0  0  0  0  0
    0.6354   17.6666    0.0000 C   0  0  0  0  0  0  0  0  0  0  0  0
    3.1631   18.2674    0.0000 C   0  0  0  0  0  0  0  0  0  0  0  0
   10.0635   -2.7872    0.0000 C   0  0  0  0  0  0  0  0  0  0  0  0
   -1.6399    6.3027    0.0000 O   0  0  0  0  0  0  0  0  0  0  0  0
   -4.5256   -0.7777    0.0000 O   0  0  0  0  0  0  0  0  0  0  0  0
   -0.4550   16.6366    0.0000 O   0  0  0  0  0  0  0  0  0  0  0  0
   10.9643    3.7482    0.0000 O   0  0  0  0  0  0  0  0  0  0  0  0
   -0.8516   12.6878    0.0000 O   0  0  0  0  0  0  0  0  0  0  0  0
   -1.1985   14.1471    0.0000 C   0  0  0  0  0  0  0  0  0  0  0  0
   -0.6509   -7.6286    0.0000 O   0  0  0  0  0  0  0  0  0  0  0  0
    0.0974   -8.9286    0.0000 C   0  0  0  0  0  0  0  0  0  0  0  0
   11.6678    2.0649    0.0000 O   0  0  0  0  0  0  0  0  0  0  0  0
   12.7554    1.0319    0.0000 C   0  0  0  0  0  0  0  0  0  0  0  0
    1.7258   18.6967    0.0000 C   0  0  0  0  0  0  0  0  0  0  0  0
    1.0175   -8.3668    0.0000 C   0  0  0  0  0  0  0  0  0  0  0  0
   -5.8254   -1.2334    0.0000 C   0  0  0  0  0  0  0  0  0  0  0  0
   11.9246   -1.5533    0.0000 C   0  0  0  0  0  0  0  0  0  0  0  0
    9.9154    5.2409    0.0000 C   0  0  0  0  0  0  0  0  0  0  0  0
    6.9914    7.3875    0.0000 C   0  0  0  0  0  0  0  0  0  0  0  0
    0.1890    8.3098    0.0000 C   0  0  0  0  0  0  0  0  0  0  0  0
   10.6385   -4.9449    0.0000 C   0  0  0  0  0  0  0  0  0  0  0  0
    4.6003   17.8382    0.0000 O   0  0  0  0  0  0  0  0  0  0  0  0
  1  2  1  0  0  0  0
  1  6  1  0  0  0  0
  1 67  1  1  0  0  0
  2  3  1  0  0  0  0
  4  3  1  6  0  0  0
  4  5  1  0  0  0  0
  4  7  1  0  0  0  0
  5  6  1  0  0  0  0
  6 16  1  0  0  0  0
  6 56  1  1  0  0  0
  7  8  1  0  0  0  0
  8  9  1  0  0  0  0
  8 61  1  1  0  0  0
  9 10  2  0  0  0  0
  9 66  1  0  0  0  0
 10 11  1  0  0  0  0
 11 12  2  0  0  0  0
 12 13  1  0  0  0  0
 13 14  2  0  0  0  0
 14 15  1  0  0  0  0
 15 54  1  0  0  0  0
 15 72  1  6  0  0  0
 16 17  1  0  0  0  0
 16 19  2  0  0  0  0
 17 18  2  0  0  0  0
 17 20  1  0  0  0  0
 20 25  1  0  0  0  0
 21 20  1  1  0  0  0
 21 22  1  0  0  0  0
 21 26  1  0  0  0  0
 22 23  1  0  0  0  0
 23 24  1  0  0  0  0
 24 25  1  0  0  0  0
 26 27  1  0  0  0  0
 26 55  2  0  0  0  0
 28 27  1  6  0  0  0
 28 29  1  0  0  0  0
 28 32  1  0  0  0  0
 29 36  1  6  0  0  0
 29 71  1  0  0  0  0
 30 31  2  0  0  0  0
 31 32  1  0  0  0  0
 31 35  1  0  0  0  0
 33 34  2  0  0  0  0
 33 47  1  0  0  0  0
 33 69  1  0  0  0  0
 34 35  1  0  0  0  0
 35 70  1  6  0  0  0
 37 36  1  1  0  0  0
 37 38  1  0  0  0  0
 37 42  1  0  0  0  0
 38 39  1  0  0  0  0
 39 40  1  0  0  0  0
 39 59  1  1  0  0  0
 40 41  1  0  0  0  0
 40 43  1  6  0  0  0
 41 42  1  0  0  0  0
 43 49  1  0  0  0  0
 44 45  1  0  0  0  0
 44 54  1  0  0  0  0
 44 68  1  6  0  0  0
 45 46  1  0  0  0  0
 45 48  2  0  0  0  0
 46 47  1  0  0  0  0
 46 63  1  1  0  0  0
 47 58  1  1  0  0  0
 49 50  2  0  0  0  0
 49 51  1  0  0  0  0
 51 52  1  0  0  0  0
 51 53  1  0  0  0  0
 51 65  1  0  0  0  0
 52 57  1  0  0  0  0
 53 73  1  0  0  0  0
 59 60  1  0  0  0  0
 61 62  1  0  0  0  0
 63 64  1  0  0  0  0
M  END
