755
 OpenBabel07281513532D

 12 13  0  0  0  0  0  0  0  0999 V2000
   -0.2292   -4.6857    0.0000 N   0  0  0  0  0  0  0  0  0  0  0  0
    0.3110   -2.1444    0.0000 S   0  0  0  0  0  0  0  0  0  0  0  0
    1.7015   -6.4242    0.0000 N   0  0  0  0  0  0  0  0  0  0  0  0
    2.1650   -7.8507    0.0000 H   0  0  0  0  0  0  0  0  0  0  0  0
    3.4552   -3.0012    0.0000 N   0  0  0  0  0  0  0  0  0  0  0  0
    3.4552   -1.5012    0.0000 H   0  0  0  0  0  0  0  0  0  0  0  0
    4.2052   -5.3094    0.0000 N   0  0  0  0  0  0  0  0  0  0  0  0
    0.7745   -3.5710    0.0000 C   0  0  0  0  0  0  0  0  0  0  0  0
    2.2417   -3.8829    0.0000 C   0  0  0  0  0  0  0  0  0  0  0  0
    2.7052   -5.3094    0.0000 C   0  0  0  0  0  0  0  0  0  0  0  0
    4.6688   -3.8829    0.0000 C   0  0  0  0  0  0  0  0  0  0  0  0
    0.2343   -6.1123    0.0000 C   0  0  0  0  0  0  0  0  0  0  0  0
  1 12  2  0  0  0  0
  1  8  1  0  0  0  0
  2  8  2  0  0  0  0
  3 10  1  0  0  0  0
  3 12  1  0  0  0  0
  3  4  1  0  0  0  0
  5  9  1  0  0  0  0
  5 11  1  0  0  0  0
  5  6  1  0  0  0  0
  7 11  2  0  0  0  0
  7 10  1  0  0  0  0
  8  9  1  0  0  0  0
  9 10  2  0  0  0  0
M  END
