718781
 OpenBabel07281513532D

 30 31  0  0  0  0  0  0  0  0999 V2000
    4.1717    7.7745    0.0000 C   0  0  0  0  0  0  0  0  0  0  0  0
    4.1717    6.2745    0.0000 C   0  0  0  0  0  0  0  0  0  0  0  0
    5.4707    5.5245    0.0000 C   0  0  0  0  0  0  0  0  0  0  0  0
    6.7697    6.2745    0.0000 C   0  0  0  0  0  0  0  0  0  0  0  0
    6.7697    7.7745    0.0000 C   0  0  0  0  0  0  0  0  0  0  0  0
    5.4707    8.5245    0.0000 C   0  0  0  0  0  0  0  0  0  0  0  0
    8.0688    5.5245    0.0000 N   0  0  0  0  0  0  0  0  0  0  0  0
    9.3678    6.2745    0.0000 C   0  0  0  0  0  0  0  0  0  0  0  0
    9.3678    7.7745    0.0000 N   0  0  0  0  0  0  0  0  0  0  0  0
    8.0688    8.5245    0.0000 C   0  0  0  0  0  0  0  0  0  0  0  0
    9.3678   10.7745    0.0000 C   0  0  0  0  0  0  0  0  0  0  0  0
   10.6668   10.0245    0.0000 C   0  0  0  0  0  0  0  0  0  0  0  0
   11.9659   10.7745    0.0000 C   0  0  0  0  0  0  0  0  0  0  0  0
   11.9659   12.2745    0.0000 C   0  0  0  0  0  0  0  0  0  0  0  0
   10.6668   13.0245    0.0000 C   0  0  0  0  0  0  0  0  0  0  0  0
    9.3678   12.2745    0.0000 C   0  0  0  0  0  0  0  0  0  0  0  0
   13.2649   10.0245    0.0000 C   0  0  0  0  0  0  0  0  0  0  0  0
   14.5640    9.2745    0.0000 C   0  0  0  0  0  0  0  0  0  0  0  0
    2.8726    8.5245    0.0000 O   0  0  0  0  0  0  0  0  0  0  0  0
    1.5736    7.7745    0.0000 C   0  0  0  0  0  0  0  0  0  0  0  0
    0.2745    8.5245    0.0000 C   0  0  0  0  0  0  0  0  0  0  0  0
    2.8726    5.5245    0.0000 O   0  0  0  0  0  0  0  0  0  0  0  0
    1.5736    6.2745    0.0000 C   0  0  0  0  0  0  0  0  0  0  0  0
    0.2745    5.5245    0.0000 C   0  0  0  0  0  0  0  0  0  0  0  0
    8.0688   10.0245    0.0000 N   0  0  0  0  0  0  0  0  0  0  0  0
   -1.0245    7.7745    0.0000 O   0  0  0  0  0  0  0  0  0  0  0  0
   -2.3235    8.5245    0.0000 C   0  0  0  0  0  0  0  0  0  0  0  0
   -1.0245    6.2745    0.0000 O   0  0  0  0  0  0  0  0  0  0  0  0
   -2.3235    5.5245    0.0000 C   0  0  0  0  0  0  0  0  0  0  0  0
    2.7721   13.1986    0.0000 Cl  0  0  0  0  0  0  0  0  0  0  0  0
  1  2  1  0  0  0  0
  1  6  2  0  0  0  0
  1 19  1  0  0  0  0
  2  3  2  0  0  0  0
  2 22  1  0  0  0  0
  3  4  1  0  0  0  0
  4  5  2  0  0  0  0
  4  7  1  0  0  0  0
  5  6  1  0  0  0  0
  5 10  1  0  0  0  0
  7  8  2  0  0  0  0
  8  9  1  0  0  0  0
  9 10  2  0  0  0  0
 10 25  1  0  0  0  0
 11 12  2  0  0  0  0
 11 16  1  0  0  0  0
 11 25  1  0  0  0  0
 12 13  1  0  0  0  0
 13 14  2  0  0  0  0
 13 17  1  0  0  0  0
 14 15  1  0  0  0  0
 15 16  2  0  0  0  0
 17 18  3  0  0  0  0
 19 20  1  0  0  0  0
 20 21  1  0  0  0  0
 21 26  1  0  0  0  0
 22 23  1  0  0  0  0
 23 24  1  0  0  0  0
 24 28  1  0  0  0  0
 26 27  1  0  0  0  0
 28 29  1  0  0  0  0
M  END
