681239
 OpenBabel07281513532D

 28 29  0  0  1  0  0  0  0  0999 V2000
    4.6471    5.2500    0.0000 C   0  0  0  0  0  0  0  0  0  0  0  0
    4.6471    6.7500    0.0000 O   0  0  0  0  0  0  0  0  0  0  0  0
    3.3481    4.5000    0.0000 C   0  0  0  0  0  0  0  0  0  0  0  0
    2.0490    5.2500    0.0000 N   0  0  0  0  0  0  0  0  0  0  0  0
    0.7500    4.5000    0.0000 C   0  0  0  0  0  0  0  0  0  0  0  0
    0.7500    3.0000    0.0000 C   0  0  0  0  0  0  0  0  0  0  0  0
    2.0490    2.2500    0.0000 N   0  0  0  0  0  0  0  0  0  0  0  0
    3.3481    3.0000    0.0000 C   0  0  0  0  0  0  0  0  0  0  0  0
    7.2452    5.2500    0.0000 C   0  0  2  0  0  0  0  0  0  0  0  0
    5.9462    4.5000    0.0000 N   0  0  0  0  0  0  0  0  0  0  0  0
    8.5442    4.5000    0.0000 C   0  0  0  0  0  0  0  0  0  0  0  0
    7.2452    6.7500    0.0000 C   0  0  0  0  0  0  0  0  0  0  0  0
    8.5442    7.5000    0.0000 C   0  0  0  0  0  0  0  0  0  0  0  0
    9.8433    6.7500    0.0000 C   0  0  0  0  0  0  0  0  0  0  0  0
   11.1423    7.5000    0.0000 C   0  0  0  0  0  0  0  0  0  0  0  0
   11.1423    9.0000    0.0000 C   0  0  0  0  0  0  0  0  0  0  0  0
    9.8433    9.7500    0.0000 C   0  0  0  0  0  0  0  0  0  0  0  0
    8.5442    9.0000    0.0000 C   0  0  0  0  0  0  0  0  0  0  0  0
    8.5442    3.0000    0.0000 O   0  0  0  0  0  0  0  0  0  0  0  0
   11.1423    4.5000    0.0000 C   0  0  2  0  0  0  0  0  0  0  0  0
    9.8433    5.2500    0.0000 N   0  0  0  0  0  0  0  0  0  0  0  0
   12.4413    5.2500    0.0000 B   0  0  0  0  0  0  0  0  0  0  0  0
   12.4413    6.7500    0.0000 O   0  0  0  0  0  0  0  0  0  0  0  0
   13.7404    4.5000    0.0000 O   0  0  0  0  0  0  0  0  0  0  0  0
   11.1423    3.0000    0.0000 C   0  0  0  0  0  0  0  0  0  0  0  0
   12.4414    2.2500    0.0000 C   0  0  0  0  0  0  0  0  0  0  0  0
   13.7404    3.0000    0.0000 C   0  0  0  0  0  0  0  0  0  0  0  0
   12.4414    0.7500    0.0000 C   0  0  0  0  0  0  0  0  0  0  0  0
  1  2  2  0  0  0  0
  1  3  1  0  0  0  0
  1 10  1  0  0  0  0
  3  4  2  0  0  0  0
  3  8  1  0  0  0  0
  4  5  1  0  0  0  0
  5  6  2  0  0  0  0
  6  7  1  0  0  0  0
  7  8  2  0  0  0  0
  9 10  1  1  0  0  0
  9 11  1  0  0  0  0
  9 12  1  0  0  0  0
 11 19  2  0  0  0  0
 11 21  1  0  0  0  0
 12 13  1  0  0  0  0
 13 14  2  0  0  0  0
 13 18  1  0  0  0  0
 14 15  1  0  0  0  0
 15 16  2  0  0  0  0
 16 17  1  0  0  0  0
 17 18  2  0  0  0  0
 20 21  1  6  0  0  0
 20 22  1  0  0  0  0
 20 25  1  0  0  0  0
 22 23  1  0  0  0  0
 22 24  1  0  0  0  0
 25 26  1  0  0  0  0
 26 27  1  0  0  0  0
 26 28  1  0  0  0  0
M  END
