127716
 OpenBabel07281513542D

 16 17  0  0  1  0  0  0  0  0999 V2000
    0.7500   -5.2500    0.0000 O   0  0  0  0  0  0  0  0  0  0  0  0
    1.7164  -10.2718    0.0000 C   0  0  0  0  0  0  0  0  0  0  0  0
    2.0490   -3.0000    0.0000 N   0  0  0  0  0  0  0  0  0  0  0  0
    2.1345   -7.6317    0.0000 O   0  0  0  0  0  0  0  0  0  0  0  0
    3.3481   -5.2500    0.0000 N   0  0  0  0  0  0  0  0  0  0  0  0
    4.6471   -3.0000    0.0000 N   0  0  0  0  0  0  0  0  0  0  0  0
    3.3481   -2.2500    0.0000 C   0  0  0  0  0  0  0  0  0  0  0  0
    4.6471   -4.5000    0.0000 C   0  0  0  0  0  0  0  0  0  0  0  0
    2.0490   -4.5000    0.0000 C   0  0  0  0  0  0  0  0  0  0  0  0
    3.3481   -6.7500    0.0000 C   0  0  3  0  0  0  0  0  0  0  0  0
    4.5616   -7.6317    0.0000 C   0  0  0  0  0  0  0  0  0  0  0  0
    4.0981   -9.0583    0.0000 C   0  0  3  0  0  0  0  0  0  0  0  0
    2.5981   -9.0583    0.0000 C   0  0  3  0  0  0  0  0  0  0  0  0
    2.3265  -11.6421    0.0000 O   0  0  0  0  0  0  0  0  0  0  0  0
    4.9798  -10.2718    0.0000 O   0  0  0  0  0  0  0  0  0  0  0  0
    3.3481   -0.7500    0.0000 N   0  0  0  0  0  0  0  0  0  0  0  0
  1  9  2  0  0  0  0
  2 13  1  0  0  0  0
  2 14  1  0  0  0  0
  3  7  2  0  0  0  0
  3  9  1  0  0  0  0
  4 10  1  0  0  0  0
  4 13  1  0  0  0  0
  5  8  1  0  0  0  0
  5  9  1  0  0  0  0
  5 10  1  0  0  0  0
  6  8  2  0  0  0  0
  6  7  1  0  0  0  0
  7 16  1  0  0  0  0
 10 11  1  0  0  0  0
 11 12  1  0  0  0  0
 12 13  1  0  0  0  0
 12 15  1  0  0  0  0
M  END
