218321
 OpenBabel07281513532D

 20 22  0  0  1  0  0  0  0  0999 V2000
   -2.0082   -4.4717    0.0000 C   0  0  0  0  0  0  0  0  0  0  0  0
   -0.8892   -2.0442    0.0000 O   0  0  0  0  0  0  0  0  0  0  0  0
    0.5180   -1.5249    0.0000 C   0  0  3  0  0  0  0  0  0  0  0  0
    1.4467   -2.7028    0.0000 C   0  0  0  0  0  0  0  0  0  0  0  0
    0.6135   -3.9501    0.0000 C   0  0  3  0  0  0  0  0  0  0  0  0
   -0.8303   -3.5430    0.0000 C   0  0  3  0  0  0  0  0  0  0  0  0
   -1.7928   -5.9562    0.0000 O   0  0  0  0  0  0  0  0  0  0  0  0
    1.1327   -5.3573    0.0000 O   0  0  0  0  0  0  0  0  0  0  0  0
    0.9251   -0.0812    0.0000 N   0  0  0  0  0  0  0  0  0  0  0  0
    2.3324    0.4381    0.0000 C   0  0  0  0  0  0  0  0  0  0  0  0
    2.2734    1.9369    0.0000 N   0  0  0  0  0  0  0  0  0  0  0  0
   -1.4983    0.9706    0.0000 N   0  0  0  0  0  0  0  0  0  0  0  0
   -2.5289    2.0605    0.0000 C   0  0  0  0  0  0  0  0  0  0  0  0
   -1.0273    4.3080    0.0000 C   0  0  0  0  0  0  0  0  0  0  0  0
    0.3741    3.7731    0.0000 C   0  0  2  0  0  0  0  0  0  0  0  0
    0.8297    2.3440    0.0000 C   0  0  0  0  0  0  0  0  0  0  0  0
   -0.0036    1.0967    0.0000 C   0  0  0  0  0  0  0  0  0  0  0  0
    0.5837    5.2584    0.0000 H   0  0  0  0  0  0  0  0  0  0  0  0
   -2.3193    3.5458    0.0000 N   0  0  0  0  0  0  0  0  0  0  0  0
    1.8688    3.8993    0.0000 O   0  0  0  0  0  0  0  0  0  0  0  0
  1  6  1  0  0  0  0
  1  7  1  0  0  0  0
  2  3  1  0  0  0  0
  2  6  1  0  0  0  0
  3  4  1  0  0  0  0
  3  9  1  0  0  0  0
  4  5  1  0  0  0  0
  5  6  1  0  0  0  0
  5  8  1  0  0  0  0
  9 10  1  0  0  0  0
  9 17  1  0  0  0  0
 10 11  2  0  0  0  0
 11 16  1  0  0  0  0
 12 13  2  0  0  0  0
 12 17  1  0  0  0  0
 13 19  1  0  0  0  0
 14 15  1  0  0  0  0
 14 19  1  0  0  0  0
 15 16  1  0  0  0  0
 15 18  1  6  0  0  0
 15 20  1  0  0  0  0
 16 17  2  0  0  0  0
M  END
