616348
 OpenBabel07281513542D

 44 49  0  0  1  0  0  0  0  0999 V2000
  -16.0434   -0.1084    0.0000 Cl  0  0  0  0  0  0  0  0  0  0  0  0
  -16.1185    7.0085    0.0000 C   0  0  0  0  0  0  0  0  0  0  0  0
  -16.1185    5.5085    0.0000 C   0  0  0  0  0  0  0  0  0  0  0  0
  -14.8194    4.7585    0.0000 C   0  0  0  0  0  0  0  0  0  0  0  0
  -13.5204    5.5085    0.0000 C   0  0  0  0  0  0  0  0  0  0  0  0
  -13.5204    7.0085    0.0000 C   0  0  0  0  0  0  0  0  0  0  0  0
  -14.8194    7.7585    0.0000 N   0  0  0  0  0  0  0  0  0  0  0  0
  -12.2214    4.7585    0.0000 C   0  0  0  0  0  0  0  0  0  0  0  0
  -10.9223    5.5085    0.0000 C   0  0  0  0  0  0  0  0  0  0  0  0
  -10.9223    7.0085    0.0000 C   0  0  0  0  0  0  0  0  0  0  0  0
  -12.2214    7.7585    0.0000 C   0  0  0  0  0  0  0  0  0  0  0  0
  -17.5451    7.4720    0.0000 C   0  0  0  0  0  0  0  0  0  0  0  0
  -18.4267    6.2585    0.0000 N   0  0  0  0  0  0  0  0  0  0  0  0
  -17.5451    5.0450    0.0000 C   0  0  0  0  0  0  0  0  0  0  0  0
  -18.1552    8.8423    0.0000 C   0  0  0  0  0  0  0  0  0  0  0  0
  -19.6470    8.9991    0.0000 C   0  0  0  0  0  0  0  0  0  0  0  0
  -20.5286    7.7856    0.0000 C   0  0  0  0  0  0  0  0  0  0  0  0
  -19.9185    6.4153    0.0000 C   0  0  0  0  0  0  0  0  0  0  0  0
  -20.2571   10.3694    0.0000 C   0  0  2  0  0  0  0  0  0  0  0  0
  -21.7488   10.5262    0.0000 C   0  0  0  0  0  0  0  0  0  0  0  0
  -22.6305    9.3127    0.0000 O   0  0  0  0  0  0  0  0  0  0  0  0
  -22.0204    7.9424    0.0000 C   0  0  0  0  0  0  0  0  0  0  0  0
  -18.8016   10.7323    0.0000 C   0  0  0  0  0  0  0  0  0  0  0  0
  -22.3589   11.8966    0.0000 O   0  0  0  0  0  0  0  0  0  0  0  0
  -17.7596    9.6533    0.0000 C   0  0  0  0  0  0  0  0  0  0  0  0
  -20.3617   11.8658    0.0000 O   0  0  0  0  0  0  0  0  0  0  0  0
  -20.8002    5.2018    0.0000 O   0  0  0  0  0  0  0  0  0  0  0  0
  -14.8194    3.2585    0.0000 C   0  0  0  0  0  0  0  0  0  0  0  0
  -16.1185    2.5085    0.0000 C   0  0  0  0  0  0  0  0  0  0  0  0
   -9.6233    4.7585    0.0000 O   0  0  0  0  0  0  0  0  0  0  0  0
   -9.6233    3.2585    0.0000 C   0  0  0  0  0  0  0  0  0  0  0  0
  -10.9223    2.5085    0.0000 O   0  0  0  0  0  0  0  0  0  0  0  0
   -8.3242    2.5085    0.0000 N   0  0  0  0  0  0  0  0  0  0  0  0
   -8.3242    1.0085    0.0000 C   0  0  0  0  0  0  0  0  0  0  0  0
   -7.0252    0.2585    0.0000 C   0  0  0  0  0  0  0  0  0  0  0  0
   -5.7262    1.0085    0.0000 C   0  0  3  0  0  0  0  0  0  0  0  0
   -5.7262    2.5085    0.0000 C   0  0  0  0  0  0  0  0  0  0  0  0
   -7.0252    3.2585    0.0000 C   0  0  0  0  0  0  0  0  0  0  0  0
   -4.4271    0.2585    0.0000 N   0  0  0  0  0  0  0  0  0  0  0  0
   -4.4271   -1.2415    0.0000 C   0  0  0  0  0  0  0  0  0  0  0  0
   -3.1281   -1.9915    0.0000 C   0  0  0  0  0  0  0  0  0  0  0  0
   -1.8290   -1.2415    0.0000 C   0  0  0  0  0  0  0  0  0  0  0  0
   -1.8290    0.2585    0.0000 C   0  0  0  0  0  0  0  0  0  0  0  0
   -3.1281    1.0085    0.0000 C   0  0  0  0  0  0  0  0  0  0  0  0
  2  3  2  0  0  0  0
  2  7  1  0  0  0  0
  2 12  1  0  0  0  0
  3  4  1  0  0  0  0
  3 14  1  0  0  0  0
  4  5  2  0  0  0  0
  4 28  1  0  0  0  0
  5  6  1  0  0  0  0
  5  8  1  0  0  0  0
  6  7  2  0  0  0  0
  6 11  1  0  0  0  0
  8  9  2  0  0  0  0
  9 10  1  0  0  0  0
  9 30  1  0  0  0  0
 10 11  2  0  0  0  0
 12 13  1  0  0  0  0
 12 15  2  0  0  0  0
 13 14  1  0  0  0  0
 13 18  1  0  0  0  0
 15 16  1  0  0  0  0
 16 17  2  0  0  0  0
 16 19  1  0  0  0  0
 17 18  1  0  0  0  0
 17 22  1  0  0  0  0
 18 27  2  0  0  0  0
 19 20  1  0  0  0  0
 19 23  1  6  0  0  0
 19 26  1  0  0  0  0
 20 21  1  0  0  0  0
 20 24  2  0  0  0  0
 21 22  1  0  0  0  0
 23 25  1  0  0  0  0
 28 29  1  0  0  0  0
 30 31  1  0  0  0  0
 31 32  2  0  0  0  0
 31 33  1  0  0  0  0
 33 34  1  0  0  0  0
 33 38  1  0  0  0  0
 34 35  1  0  0  0  0
 35 36  1  0  0  0  0
 36 37  1  0  0  0  0
 36 39  1  0  0  0  0
 37 38  1  0  0  0  0
 39 40  1  0  0  0  0
 39 44  1  0  0  0  0
 40 41  1  0  0  0  0
 41 42  1  0  0  0  0
 42 43  1  0  0  0  0
 43 44  1  0  0  0  0
M  END
