758246
 OpenBabel07281513542D

 37 41  0  0  0  0  0  0  0  0999 V2000
   -1.7585    0.4166    0.0000 N   0  0  0  0  0  0  0  0  0  0  0  0
   -1.7585   -0.3832    0.0000 C   0  0  0  0  0  0  0  0  0  0  0  0
   -1.0654   -0.7832    0.0000 N   0  0  0  0  0  0  0  0  0  0  0  0
   -0.3725   -0.3832    0.0000 C   0  0  0  0  0  0  0  0  0  0  0  0
   -0.3725    0.4166    0.0000 C   0  0  0  0  0  0  0  0  0  0  0  0
   -1.0654    0.8166    0.0000 C   0  0  0  0  0  0  0  0  0  0  0  0
    0.3204   -0.7832    0.0000 C   0  0  0  0  0  0  0  0  0  0  0  0
    1.0135   -0.3832    0.0000 C   0  0  0  0  0  0  0  0  0  0  0  0
    1.0135    0.4166    0.0000 N   0  0  0  0  0  0  0  0  0  0  0  0
    0.3204    0.8166    0.0000 C   0  0  0  0  0  0  0  0  0  0  0  0
   -2.4505   -0.7832    0.0000 O   0  0  0  0  0  0  0  0  0  0  0  0
   -1.0654    1.6166    0.0000 O   0  0  0  0  0  0  0  0  0  0  0  0
    0.3204   -1.5832    0.0000 C   0  0  0  0  0  0  0  0  0  0  0  0
    1.7065   -0.7832    0.0000 O   0  0  0  0  0  0  0  0  0  0  0  0
    1.7065    0.8166    0.0000 C   0  0  0  0  0  0  0  0  0  0  0  0
   -1.0654   -1.5832    0.0000 C   0  0  0  0  0  0  0  0  0  0  0  0
   -1.7585   -1.9832    0.0000 C   0  0  0  0  0  0  0  0  0  0  0  0
   -1.7585   -2.7832    0.0000 C   0  0  0  0  0  0  0  0  0  0  0  0
   -1.0654   -3.1832    0.0000 C   0  0  0  0  0  0  0  0  0  0  0  0
   -0.3725   -2.7832    0.0000 C   0  0  0  0  0  0  0  0  0  0  0  0
   -0.3725   -1.9832    0.0000 C   0  0  0  0  0  0  0  0  0  0  0  0
    1.0135    2.0166    0.0000 C   0  0  0  0  0  0  0  0  0  0  0  0
    1.7065    1.6166    0.0000 C   0  0  0  0  0  0  0  0  0  0  0  0
    2.3994    2.0166    0.0000 C   0  0  0  0  0  0  0  0  0  0  0  0
    2.3994    2.8166    0.0000 C   0  0  0  0  0  0  0  0  0  0  0  0
    1.7065    3.2166    0.0000 C   0  0  0  0  0  0  0  0  0  0  0  0
    1.0135    2.8166    0.0000 C   0  0  0  0  0  0  0  0  0  0  0  0
    0.3204    3.2166    0.0000 F   0  0  0  0  0  0  0  0  0  0  0  0
    3.0915    3.2166    0.0000 I   0  0  0  0  0  0  0  0  0  0  0  0
    1.1595   -2.6903    0.0000 C   0  0  0  0  0  0  0  0  0  0  0  0
    1.1533   -1.8903    0.0000 O   0  0  0  0  0  0  0  0  0  0  0  0
    1.8553   -3.0849    0.0000 C   0  0  0  0  0  0  0  0  0  0  0  0
   -2.4514    0.8166    0.0000 C   0  0  0  0  0  0  0  0  0  0  0  0
   -2.8534    1.5136    0.0000 C   0  0  0  0  0  0  0  0  0  0  0  0
   -3.2555    0.8166    0.0000 C   0  0  0  0  0  0  0  0  0  0  0  0
    0.3204   -3.1832    0.0000 N   0  0  0  0  0  0  0  0  0  0  0  0
    0.3204    1.6166    0.0000 N   0  0  0  0  0  0  0  0  0  0  0  0
  1  2  1  0  0  0  0
  1  6  1  0  0  0  0
  1 33  1  0  0  0  0
  2  3  1  0  0  0  0
  2 11  2  0  0  0  0
  3  4  1  0  0  0  0
  3 16  1  0  0  0  0
  4  5  1  0  0  0  0
  4  7  2  0  0  0  0
  5  6  1  0  0  0  0
  5 10  2  0  0  0  0
  6 12  2  0  0  0  0
  7  8  1  0  0  0  0
  7 13  1  0  0  0  0
  8  9  1  0  0  0  0
  8 14  2  0  0  0  0
  9 10  1  0  0  0  0
  9 15  1  0  0  0  0
 10 37  1  0  0  0  0
 16 17  2  0  0  0  0
 16 21  1  0  0  0  0
 17 18  1  0  0  0  0
 18 19  2  0  0  0  0
 19 20  1  0  0  0  0
 20 21  2  0  0  0  0
 20 36  1  0  0  0  0
 22 23  2  0  0  0  0
 22 27  1  0  0  0  0
 22 37  1  0  0  0  0
 23 24  1  0  0  0  0
 24 25  2  0  0  0  0
 25 26  1  0  0  0  0
 25 29  1  0  0  0  0
 26 27  2  0  0  0  0
 27 28  1  0  0  0  0
 30 31  2  0  0  0  0
 30 32  1  0  0  0  0
 30 36  1  0  0  0  0
 33 34  1  0  0  0  0
 33 35  1  0  0  0  0
 34 35  1  0  0  0  0
M  END
