750
 OpenBabel07281513532D

 14 13  0  0  0  0  0  0  0  0999 V2000
   -4.5386   -0.4624    0.0000 S   0  0  0  0  0  0  0  0  0  0  0  0
   -5.8230   -1.2372    0.0000 O   0  0  0  0  0  0  0  0  0  0  0  0
   -3.7637   -1.7468    0.0000 O   0  0  0  0  0  0  0  0  0  0  0  0
   -3.2542    0.3125    0.0000 O   0  0  0  0  0  0  0  0  0  0  0  0
   -1.9410   -0.4124    0.0000 C   0  0  0  0  0  0  0  0  0  0  0  0
   -0.6566    0.3624    0.0000 C   0  0  0  0  0  0  0  0  0  0  0  0
    0.6566   -0.3624    0.0000 C   0  0  0  0  0  0  0  0  0  0  0  0
    1.9410    0.4124    0.0000 C   0  0  0  0  0  0  0  0  0  0  0  0
    3.2542   -0.3125    0.0000 O   0  0  0  0  0  0  0  0  0  0  0  0
    4.5386    0.4624    0.0000 S   0  0  0  0  0  0  0  0  0  0  0  0
    3.7637    1.7468    0.0000 O   0  0  0  0  0  0  0  0  0  0  0  0
    5.3134   -0.8220    0.0000 O   0  0  0  0  0  0  0  0  0  0  0  0
    5.8230    1.2372    0.0000 C   0  0  0  0  0  0  0  0  0  0  0  0
   -5.3134    0.8220    0.0000 C   0  0  0  0  0  0  0  0  0  0  0  0
  1  2  2  0  0  0  0
  1  3  2  0  0  0  0
  1  4  1  0  0  0  0
  1 14  1  0  0  0  0
  4  5  1  0  0  0  0
  5  6  1  0  0  0  0
  6  7  1  0  0  0  0
  7  8  1  0  0  0  0
  8  9  1  0  0  0  0
  9 10  1  0  0  0  0
 10 11  2  0  0  0  0
 10 12  2  0  0  0  0
 10 13  1  0  0  0  0
M  END
