34462
 OpenBabel07281513532D

 15 15  0  0  0  0  0  0  0  0999 V2000
   -9.7500   -3.3481    0.0000 O   0  0  0  0  0  0  0  0  0  0  0  0
   -5.2500   -0.7500    0.0000 O   0  0  0  0  0  0  0  0  0  0  0  0
   -6.0000   -2.0491    0.0000 C   0  0  0  0  0  0  0  0  0  0  0  0
   -5.2500   -3.3481    0.0000 C   0  0  0  0  0  0  0  0  0  0  0  0
   -6.0000   -4.6471    0.0000 C   0  0  0  0  0  0  0  0  0  0  0  0
   -8.2500   -3.3481    0.0000 C   0  0  0  0  0  0  0  0  0  0  0  0
   -3.0000   -2.0490    0.0000 C   0  0  0  0  0  0  0  0  0  0  0  0
   -1.5000   -2.0490    0.0000 C   0  0  0  0  0  0  0  0  0  0  0  0
   -0.7500   -0.7500    0.0000 Cl  0  0  0  0  0  0  0  0  0  0  0  0
   -3.7500   -3.3481    0.0000 N   0  0  0  0  0  0  0  0  0  0  0  0
   -3.0000   -4.6471    0.0000 C   0  0  0  0  0  0  0  0  0  0  0  0
   -1.5000   -4.6471    0.0000 C   0  0  0  0  0  0  0  0  0  0  0  0
   -0.7500   -5.9462    0.0000 Cl  0  0  0  0  0  0  0  0  0  0  0  0
   -7.5000   -2.0491    0.0000 N   0  0  0  0  0  0  0  0  0  0  0  0
   -7.5000   -4.6471    0.0000 N   0  0  0  0  0  0  0  0  0  0  0  0
  1  6  2  0  0  0  0
  2  3  2  0  0  0  0
  3  4  1  0  0  0  0
  3 14  1  0  0  0  0
  4  5  2  0  0  0  0
  4 10  1  0  0  0  0
  5 15  1  0  0  0  0
  6 14  1  0  0  0  0
  6 15  1  0  0  0  0
  7  8  1  0  0  0  0
  7 10  1  0  0  0  0
  8  9  1  0  0  0  0
 10 11  1  0  0  0  0
 11 12  1  0  0  0  0
 12 13  1  0  0  0  0
M  END
