606869
 OpenBabel07281513542D

 20 22  0  0  1  0  0  0  0  0999 V2000
   -3.0389   -1.9026    0.0000 C   0  0  3  0  0  0  0  0  0  0  0  0
   -1.7648   -2.6941    0.0000 C   0  0  3  0  0  0  0  0  0  0  0  0
   -0.6182   -1.7269    0.0000 C   0  0  3  0  0  0  0  0  0  0  0  0
   -1.1838   -0.3376    0.0000 C   0  0  3  0  0  0  0  0  0  0  0  0
   -2.6798   -0.4462    0.0000 O   0  0  0  0  0  0  0  0  0  0  0  0
   -4.4282   -2.4681    0.0000 C   0  0  0  0  0  0  0  0  0  0  0  0
   -2.0746   -1.3679    0.0000 F   0  0  0  0  0  0  0  0  0  0  0  0
   -1.6563   -4.1902    0.0000 O   0  0  0  0  0  0  0  0  0  0  0  0
   -4.6331   -3.9540    0.0000 O   0  0  0  0  0  0  0  0  0  0  0  0
   -0.3922    0.9365    0.0000 N   0  0  0  0  0  0  0  0  0  0  0  0
    1.1039    1.0450    0.0000 C   0  0  0  0  0  0  0  0  0  0  0  0
    1.4630    2.5014    0.0000 C   0  0  0  0  0  0  0  0  0  0  0  0
    0.1888    3.2930    0.0000 N   0  0  0  0  0  0  0  0  0  0  0  0
   -0.9577    2.3258    0.0000 C   0  0  0  0  0  0  0  0  0  0  0  0
    2.1856    0.0059    0.0000 N   0  0  0  0  0  0  0  0  0  0  0  0
    3.6264    0.4231    0.0000 C   0  0  0  0  0  0  0  0  0  0  0  0
    3.9855    1.8794    0.0000 N   0  0  0  0  0  0  0  0  0  0  0  0
    2.9038    2.9186    0.0000 C   0  0  0  0  0  0  0  0  0  0  0  0
    4.7081   -0.6161    0.0000 Cl  0  0  0  0  0  0  0  0  0  0  0  0
    3.2629    4.3750    0.0000 N   0  0  0  0  0  0  0  0  0  0  0  0
  1  2  1  0  0  0  0
  1  5  1  0  0  0  0
  1  6  1  0  0  0  0
  2  3  1  0  0  0  0
  2  8  1  0  0  0  0
  3  4  1  0  0  0  0
  3  7  1  0  0  0  0
  4  5  1  0  0  0  0
  4 10  1  0  0  0  0
  6  9  1  0  0  0  0
 10 11  1  0  0  0  0
 10 14  1  0  0  0  0
 11 12  2  0  0  0  0
 11 15  1  0  0  0  0
 12 13  1  0  0  0  0
 12 18  1  0  0  0  0
 13 14  2  0  0  0  0
 15 16  2  0  0  0  0
 16 17  1  0  0  0  0
 16 19  1  0  0  0  0
 17 18  2  0  0  0  0
 18 20  1  0  0  0  0
M  END
