747974
 OpenBabel07281513532D

 34 38  0  0  0  0  0  0  0  0999 V2000
   -5.9267   -8.0937    0.0000 C   0  0  0  0  0  0  0  0  0  0  0  0
   -5.6148   -9.5609    0.0000 C   0  0  0  0  0  0  0  0  0  0  0  0
   -4.1883  -10.0245    0.0000 C   0  0  0  0  0  0  0  0  0  0  0  0
   -3.0735   -9.0208    0.0000 C   0  0  0  0  0  0  0  0  0  0  0  0
   -3.3854   -7.5535    0.0000 C   0  0  0  0  0  0  0  0  0  0  0  0
   -4.8120   -7.0900    0.0000 C   0  0  0  0  0  0  0  0  0  0  0  0
   -1.5818   -9.1776    0.0000 C   0  0  0  0  0  0  0  0  0  0  0  0
   -0.9717   -7.8072    0.0000 C   0  0  0  0  0  0  0  0  0  0  0  0
   -2.0864   -6.8035    0.0000 S   0  0  0  0  0  0  0  0  0  0  0  0
   -7.3533   -7.6302    0.0000 O   0  0  0  0  0  0  0  0  0  0  0  0
   -0.8318  -10.4766    0.0000 C   0  0  0  0  0  0  0  0  0  0  0  0
    0.6682  -10.4766    0.0000 O   0  0  0  0  0  0  0  0  0  0  0  0
   -1.5818  -11.7756    0.0000 C   0  0  0  0  0  0  0  0  0  0  0  0
   -3.0818  -11.7756    0.0000 C   0  0  0  0  0  0  0  0  0  0  0  0
   -3.8318  -13.0747    0.0000 C   0  0  0  0  0  0  0  0  0  0  0  0
   -3.0818  -14.3737    0.0000 C   0  0  0  0  0  0  0  0  0  0  0  0
   -1.5818  -14.3737    0.0000 C   0  0  0  0  0  0  0  0  0  0  0  0
   -0.8318  -13.0747    0.0000 C   0  0  0  0  0  0  0  0  0  0  0  0
   -3.8318  -15.6727    0.0000 O   0  0  0  0  0  0  0  0  0  0  0  0
   -5.3318  -15.6727    0.0000 C   0  0  0  0  0  0  0  0  0  0  0  0
   -6.0818  -14.3737    0.0000 C   0  0  0  0  0  0  0  0  0  0  0  0
   -7.5818  -14.3737    0.0000 N   0  0  0  0  0  0  0  0  0  0  0  0
   -8.3318  -13.0747    0.0000 C   0  0  0  0  0  0  0  0  0  0  0  0
   -9.8318  -13.0747    0.0000 C   0  0  0  0  0  0  0  0  0  0  0  0
  -10.5818  -14.3737    0.0000 C   0  0  0  0  0  0  0  0  0  0  0  0
   -9.8318  -15.6728    0.0000 C   0  0  0  0  0  0  0  0  0  0  0  0
   -8.3318  -15.6728    0.0000 C   0  0  0  0  0  0  0  0  0  0  0  0
    0.4956   -7.4954    0.0000 C   0  0  0  0  0  0  0  0  0  0  0  0
    0.9591   -6.0688    0.0000 C   0  0  0  0  0  0  0  0  0  0  0  0
    2.4263   -5.7569    0.0000 C   0  0  0  0  0  0  0  0  0  0  0  0
    3.4300   -6.8716    0.0000 C   0  0  0  0  0  0  0  0  0  0  0  0
    2.9665   -8.2982    0.0000 C   0  0  0  0  0  0  0  0  0  0  0  0
    1.4993   -8.6101    0.0000 C   0  0  0  0  0  0  0  0  0  0  0  0
    4.8972   -6.5598    0.0000 O   0  0  0  0  0  0  0  0  0  0  0  0
  1  2  2  0  0  0  0
  1  6  1  0  0  0  0
  1 10  1  0  0  0  0
  2  3  1  0  0  0  0
  3  4  2  0  0  0  0
  4  5  1  0  0  0  0
  4  7  1  0  0  0  0
  5  6  2  0  0  0  0
  5  9  1  0  0  0  0
  7  8  2  0  0  0  0
  7 11  1  0  0  0  0
  8  9  1  0  0  0  0
  8 28  1  0  0  0  0
 11 12  2  0  0  0  0
 11 13  1  0  0  0  0
 13 14  2  0  0  0  0
 13 18  1  0  0  0  0
 14 15  1  0  0  0  0
 15 16  2  0  0  0  0
 16 17  1  0  0  0  0
 16 19  1  0  0  0  0
 17 18  2  0  0  0  0
 19 20  1  0  0  0  0
 20 21  1  0  0  0  0
 21 22  1  0  0  0  0
 22 23  1  0  0  0  0
 22 27  1  0  0  0  0
 23 24  1  0  0  0  0
 24 25  1  0  0  0  0
 25 26  1  0  0  0  0
 26 27  1  0  0  0  0
 28 29  2  0  0  0  0
 28 33  1  0  0  0  0
 29 30  1  0  0  0  0
 30 31  2  0  0  0  0
 31 32  1  0  0  0  0
 31 34  1  0  0  0  0
 32 33  2  0  0  0  0
M  END
