757441
 OpenBabel07281513542D

 28 31  0  0  0  0  0  0  0  0999 V2000
  -12.7579   -8.2318    0.0000 C   0  0  0  0  0  0  0  0  0  0  0  0
  -12.7579   -9.7318    0.0000 C   0  0  0  0  0  0  0  0  0  0  0  0
  -11.4588  -10.4818    0.0000 C   0  0  0  0  0  0  0  0  0  0  0  0
  -10.1598   -9.7318    0.0000 C   0  0  0  0  0  0  0  0  0  0  0  0
  -10.1598   -8.2318    0.0000 C   0  0  0  0  0  0  0  0  0  0  0  0
  -11.4588   -7.4818    0.0000 C   0  0  0  0  0  0  0  0  0  0  0  0
  -11.4588  -11.9818    0.0000 C   0  0  0  0  0  0  0  0  0  0  0  0
  -12.7579  -12.7318    0.0000 O   0  0  0  0  0  0  0  0  0  0  0  0
  -10.1598  -12.7318    0.0000 N   0  0  0  0  0  0  0  0  0  0  0  0
   -8.8608  -11.9818    0.0000 C   0  0  0  0  0  0  0  0  0  0  0  0
   -8.8608  -10.4818    0.0000 S   0  0  0  0  0  0  0  0  0  0  0  0
   -7.5617   -9.7318    0.0000 C   0  0  0  0  0  0  0  0  0  0  0  0
   -6.2627  -10.4818    0.0000 C   0  0  0  0  0  0  0  0  0  0  0  0
   -4.9637   -9.7318    0.0000 C   0  0  0  0  0  0  0  0  0  0  0  0
   -4.9637   -8.2318    0.0000 C   0  0  0  0  0  0  0  0  0  0  0  0
   -6.2627   -7.4818    0.0000 C   0  0  0  0  0  0  0  0  0  0  0  0
   -7.5617   -8.2318    0.0000 C   0  0  0  0  0  0  0  0  0  0  0  0
   -2.6554   -8.9818    0.0000 N   0  0  0  0  0  0  0  0  0  0  0  0
   -3.5371   -7.7683    0.0000 C   0  0  0  0  0  0  0  0  0  0  0  0
   -3.5371  -10.1953    0.0000 N   0  0  0  0  0  0  0  0  0  0  0  0
   -3.0735   -6.3417    0.0000 C   0  0  0  0  0  0  0  0  0  0  0  0
   -1.6063   -6.0298    0.0000 C   0  0  0  0  0  0  0  0  0  0  0  0
   -1.1428   -4.6032    0.0000 C   0  0  0  0  0  0  0  0  0  0  0  0
    0.3244   -4.2914    0.0000 C   0  0  0  0  0  0  0  0  0  0  0  0
    0.7880   -2.8648    0.0000 C   0  0  0  0  0  0  0  0  0  0  0  0
   -0.2157   -1.7501    0.0000 C   0  0  0  0  0  0  0  0  0  0  0  0
   -1.6829   -2.0619    0.0000 C   0  0  0  0  0  0  0  0  0  0  0  0
   -2.1465   -3.4885    0.0000 N   0  0  0  0  0  0  0  0  0  0  0  0
  1  2  2  0  0  0  0
  1  6  1  0  0  0  0
  2  3  1  0  0  0  0
  3  4  2  0  0  0  0
  3  7  1  0  0  0  0
  4  5  1  0  0  0  0
  4 11  1  0  0  0  0
  5  6  2  0  0  0  0
  7  8  2  0  0  0  0
  7  9  1  0  0  0  0
  9 10  1  0  0  0  0
 11 12  1  0  0  0  0
 12 13  2  0  0  0  0
 12 17  1  0  0  0  0
 13 14  1  0  0  0  0
 14 15  2  0  0  0  0
 14 20  1  0  0  0  0
 15 16  1  0  0  0  0
 15 19  1  0  0  0  0
 16 17  2  0  0  0  0
 18 19  2  0  0  0  0
 18 20  1  0  0  0  0
 19 21  1  0  0  0  0
 21 22  2  0  0  0  0
 22 23  1  0  0  0  0
 23 24  2  0  0  0  0
 23 28  1  0  0  0  0
 24 25  1  0  0  0  0
 25 26  2  0  0  0  0
 26 27  1  0  0  0  0
 27 28  2  0  0  0  0
M  END
