721517
 OpenBabel07281513532D

 16 16  0  0  0  0  0  0  0  0999 V2000
   -7.2845    4.5028    0.0000 N   0  0  0  0  0  0  0  0  0  0  0  0
   -8.5835    3.7528    0.0000 C   0  0  0  0  0  0  0  0  0  0  0  0
   -8.2717    2.2855    0.0000 C   0  0  0  0  0  0  0  0  0  0  0  0
   -6.7799    2.1287    0.0000 N   0  0  0  0  0  0  0  0  0  0  0  0
   -6.1698    3.4991    0.0000 C   0  0  0  0  0  0  0  0  0  0  0  0
   -6.0299    0.8297    0.0000 C   0  0  0  0  0  0  0  0  0  0  0  0
   -2.5049    0.8297    0.0000 P   0  0  0  0  0  0  0  0  0  0  0  0
   -2.5049    2.3297    0.0000 O   0  0  0  0  0  0  0  0  0  0  0  0
   -4.5299   -1.1953    0.0000 P   0  0  0  0  0  0  0  0  0  0  0  0
   -4.5299    0.8297    0.0000 C   0  0  0  0  0  0  0  0  0  0  0  0
   -3.2308   -1.9453    0.0000 O   0  0  0  0  0  0  0  0  0  0  0  0
   -1.0049    0.8297    0.0000 O   0  0  0  0  0  0  0  0  0  0  0  0
   -2.5049   -0.6703    0.0000 O   0  0  0  0  0  0  0  0  0  0  0  0
   -5.5905   -2.2560    0.0000 O   0  0  0  0  0  0  0  0  0  0  0  0
   -5.9788   -1.5835    0.0000 O   0  0  0  0  0  0  0  0  0  0  0  0
   -4.5299    2.3297    0.0000 O   0  0  0  0  0  0  0  0  0  0  0  0
  1  2  1  0  0  0  0
  1  5  2  0  0  0  0
  2  3  2  0  0  0  0
  3  4  1  0  0  0  0
  4  5  1  0  0  0  0
  4  6  1  0  0  0  0
  6 10  1  0  0  0  0
  7  8  2  0  0  0  0
  7 10  1  0  0  0  0
  7 12  1  0  0  0  0
  7 13  1  0  0  0  0
  9 11  2  0  0  0  0
  9 10  1  0  0  0  0
  9 14  1  0  0  0  0
  9 15  1  0  0  0  0
 10 16  1  0  0  0  0
M  END
