9706
 OpenBabel07281513542D

 15 18  0  0  0  0  0  0  0  0999 V2000
    3.2502   -1.5313    0.0000 N   0  0  0  0  0  0  0  0  0  0  0  0
    4.5492   -3.7813    0.0000 N   0  0  0  0  0  0  0  0  0  0  0  0
    5.8482   -1.5313    0.0000 N   0  0  0  0  0  0  0  0  0  0  0  0
    5.8482   -6.0313    0.0000 N   0  0  0  0  0  0  0  0  0  0  0  0
    7.1473   -3.7813    0.0000 N   0  0  0  0  0  0  0  0  0  0  0  0
    8.4463   -1.5313    0.0000 N   0  0  0  0  0  0  0  0  0  0  0  0
    9.1963   -0.2323    0.0000 C   0  0  0  0  0  0  0  0  0  0  0  0
    9.9463   -1.5313    0.0000 C   0  0  0  0  0  0  0  0  0  0  0  0
    2.5001   -0.2323    0.0000 C   0  0  0  0  0  0  0  0  0  0  0  0
    1.7502   -1.5313    0.0000 C   0  0  0  0  0  0  0  0  0  0  0  0
    7.1473   -2.2813    0.0000 C   0  0  0  0  0  0  0  0  0  0  0  0
    4.5492   -2.2813    0.0000 C   0  0  0  0  0  0  0  0  0  0  0  0
    5.8482   -4.5313    0.0000 C   0  0  0  0  0  0  0  0  0  0  0  0
    6.5982   -7.3304    0.0000 C   0  0  0  0  0  0  0  0  0  0  0  0
    5.0982   -7.3304    0.0000 C   0  0  0  0  0  0  0  0  0  0  0  0
  1  9  1  0  0  0  0
  1 10  1  0  0  0  0
  1 12  1  0  0  0  0
  2 12  2  0  0  0  0
  2 13  1  0  0  0  0
  3 11  2  0  0  0  0
  3 12  1  0  0  0  0
  4 13  1  0  0  0  0
  4 14  1  0  0  0  0
  4 15  1  0  0  0  0
  5 13  2  0  0  0  0
  5 11  1  0  0  0  0
  6  7  1  0  0  0  0
  6  8  1  0  0  0  0
  6 11  1  0  0  0  0
  7  8  1  0  0  0  0
  9 10  1  0  0  0  0
 14 15  1  0  0  0  0
M  END
