758487
 OpenBabel07281513532D

 39 43  0  0  0  0  0  0  0  0999 V2000
   -2.7901    0.1389    0.0000 C   0  0  0  0  0  0  0  0  0  0  0  0
   -2.7901   -0.6611    0.0000 C   0  0  0  0  0  0  0  0  0  0  0  0
   -2.0971   -1.0611    0.0000 C   0  0  0  0  0  0  0  0  0  0  0  0
   -1.4042   -0.6611    0.0000 C   0  0  0  0  0  0  0  0  0  0  0  0
   -1.4042    0.1389    0.0000 C   0  0  0  0  0  0  0  0  0  0  0  0
   -2.0971    0.5389    0.0000 C   0  0  0  0  0  0  0  0  0  0  0  0
   -0.7111   -1.0611    0.0000 C   0  0  0  0  0  0  0  0  0  0  0  0
   -0.7111   -1.8611    0.0000 O   0  0  0  0  0  0  0  0  0  0  0  0
    0.6749   -1.0611    0.0000 C   0  0  0  0  0  0  0  0  0  0  0  0
    0.6749   -1.8611    0.0000 C   0  0  0  0  0  0  0  0  0  0  0  0
    1.3677   -2.2611    0.0000 C   0  0  0  0  0  0  0  0  0  0  0  0
    2.0598   -1.8611    0.0000 C   0  0  0  0  0  0  0  0  0  0  0  0
    2.0598   -1.0611    0.0000 C   0  0  0  0  0  0  0  0  0  0  0  0
    1.3677   -0.6611    0.0000 C   0  0  0  0  0  0  0  0  0  0  0  0
    2.7527   -2.2611    0.0000 C   0  0  0  0  0  0  0  0  0  0  0  0
    3.4457   -1.8611    0.0000 N   0  0  0  0  0  0  0  0  0  0  0  0
    4.1387   -2.2611    0.0000 C   0  0  0  0  0  0  0  0  0  0  0  0
    4.8318   -1.8611    0.0000 C   0  0  0  0  0  0  0  0  0  0  0  0
    4.8318   -1.0611    0.0000 N   0  0  0  0  0  0  0  0  0  0  0  0
    4.1387   -0.6611    0.0000 C   0  0  0  0  0  0  0  0  0  0  0  0
    3.4457   -1.0611    0.0000 C   0  0  0  0  0  0  0  0  0  0  0  0
    5.5247   -0.6611    0.0000 C   0  0  0  0  0  0  0  0  0  0  0  0
   -2.0971    1.3388    0.0000 C   0  0  0  0  0  0  0  0  0  0  0  0
   -0.0181   -0.6611    0.0000 N   0  0  0  0  0  0  0  0  0  0  0  0
    1.3677   -3.0611    0.0000 C   0  0  0  0  0  0  0  0  0  0  0  0
    0.5679   -3.0611    0.0000 F   0  0  0  0  0  0  0  0  0  0  0  0
    1.3677   -3.8610    0.0000 F   0  0  0  0  0  0  0  0  0  0  0  0
    2.1678   -3.0611    0.0000 F   0  0  0  0  0  0  0  0  0  0  0  0
   -2.0971    2.1388    0.0000 C   0  0  0  0  0  0  0  0  0  0  0  0
   -2.0971    2.9388    0.0000 C   0  0  0  0  0  0  0  0  0  0  0  0
   -1.4502    3.4088    0.0000 C   0  0  0  0  0  0  0  0  0  0  0  0
   -1.6972    4.1698    0.0000 N   0  0  0  0  0  0  0  0  0  0  0  0
   -2.4971    4.1698    0.0000 C   0  0  0  0  0  0  0  0  0  0  0  0
   -2.7441    3.4088    0.0000 N   0  0  0  0  0  0  0  0  0  0  0  0
   -3.0322    4.7648    0.0000 C   0  0  0  0  0  0  0  0  0  0  0  0
   -3.8151    4.5978    0.0000 C   0  0  0  0  0  0  0  0  0  0  0  0
   -4.0622    3.8368    0.0000 C   0  0  0  0  0  0  0  0  0  0  0  0
   -3.5272    3.2428    0.0000 N   0  0  0  0  0  0  0  0  0  0  0  0
   -3.6472    0.6329    0.0000 C   0  0  0  0  0  0  0  0  0  0  0  0
  1  2  2  0  0  0  0
  1  6  1  0  0  0  0
  1 39  1  0  0  0  0
  2  3  1  0  0  0  0
  3  4  2  0  0  0  0
  4  5  1  0  0  0  0
  4  7  1  0  0  0  0
  5  6  2  0  0  0  0
  6 23  1  0  0  0  0
  7  8  2  0  0  0  0
  7 24  1  0  0  0  0
  9 10  2  0  0  0  0
  9 14  1  0  0  0  0
  9 24  1  0  0  0  0
 10 11  1  0  0  0  0
 11 12  2  0  0  0  0
 11 25  1  0  0  0  0
 12 13  1  0  0  0  0
 12 15  1  0  0  0  0
 13 14  2  0  0  0  0
 15 16  1  0  0  0  0
 16 17  1  0  0  0  0
 16 21  1  0  0  0  0
 17 18  1  0  0  0  0
 18 19  1  0  0  0  0
 19 20  1  0  0  0  0
 19 22  1  0  0  0  0
 20 21  1  0  0  0  0
 23 29  3  0  0  0  0
 25 26  1  0  0  0  0
 25 27  1  0  0  0  0
 25 28  1  0  0  0  0
 29 30  1  0  0  0  0
 30 31  2  0  0  0  0
 30 34  1  0  0  0  0
 31 32  1  0  0  0  0
 32 33  2  0  0  0  0
 33 34  1  0  0  0  0
 33 35  1  0  0  0  0
 34 38  1  0  0  0  0
 35 36  2  0  0  0  0
 36 37  1  0  0  0  0
 37 38  2  0  0  0  0
M  END
