125973
 OpenBabel07281513542D

 63 69  0  0  1  0  0  0  0  0999 V2000
   12.6092    8.3330    0.0000 C   0  0  1  0  0  0  0  0  0  0  0  0
   14.1092    4.7117    0.0000 C   0  0  1  0  0  0  0  0  0  0  0  0
   15.1698    5.7723    0.0000 C   0  0  1  0  0  0  0  0  0  0  0  0
   15.1698    7.2723    0.0000 C   0  0  2  0  0  0  0  0  0  0  0  0
   14.1092    8.3330    0.0000 C   0  0  0  0  0  0  0  0  0  0  0  0
   14.6832    9.7188    0.0000 O   0  0  0  0  0  0  0  0  0  0  0  0
   16.4689    5.0223    0.0000 C   0  0  1  0  0  0  0  0  0  0  0  0
   17.7679    5.7723    0.0000 C   0  0  1  0  0  0  0  0  0  0  0  0
   17.7679    7.2723    0.0000 C   0  0  0  0  0  0  0  0  0  0  0  0
   16.4689    8.0223    0.0000 C   0  0  2  0  0  0  0  0  0  0  0  0
   12.6092    6.2117    0.0000 C   0  0  0  0  0  0  0  0  0  0  0  0
   11.5485    7.2723    0.0000 C   0  0  0  0  0  0  0  0  0  0  0  0
   10.2938    6.3939    0.0000 C   0  0  0  0  0  0  0  0  0  0  0  0
   10.0591    4.9124    0.0000 C   0  0  2  0  0  0  0  0  0  0  0  0
   11.2727    4.0307    0.0000 C   0  0  0  0  0  0  0  0  0  0  0  0
   12.6092    4.7117    0.0000 C   0  0  1  0  0  0  0  0  0  0  0  0
   18.5179    4.4733    0.0000 O   0  0  0  0  0  0  0  0  0  0  0  0
   17.2189    3.7233    0.0000 C   0  0  0  0  0  0  0  0  0  0  0  0
   15.3656    4.2852    0.0000 H   0  0  0  0  0  0  0  0  0  0  0  0
   14.8841    2.8408    0.0000 O   0  0  0  0  0  0  0  0  0  0  0  0
    8.6733    4.3383    0.0000 O   0  0  0  0  0  0  0  0  0  0  0  0
    7.4833    5.2515    0.0000 C   0  0  0  0  0  0  0  0  0  0  0  0
    6.0975    4.6774    0.0000 C   0  0  1  0  0  0  0  0  0  0  0  0
    7.6791    6.7386    0.0000 O   0  0  0  0  0  0  0  0  0  0  0  0
    4.9074    5.5906    0.0000 C   0  0  2  0  0  0  0  0  0  0  0  0
    3.9132    7.9909    0.0000 C   0  0  0  0  0  0  0  0  0  0  0  0
    2.5273    7.4168    0.0000 O   0  0  0  0  0  0  0  0  0  0  0  0
   12.0351    9.7188    0.0000 O   0  0  0  0  0  0  0  0  0  0  0  0
   10.5480    9.9146    0.0000 C   0  0  0  0  0  0  0  0  0  0  0  0
    9.6348    8.7246    0.0000 O   0  0  0  0  0  0  0  0  0  0  0  0
    9.9739   11.3004    0.0000 C   0  0  0  0  0  0  0  0  0  0  0  0
   16.4689    9.5223    0.0000 O   0  0  0  0  0  0  0  0  0  0  0  0
   15.4082    3.9617    0.0000 O   0  0  0  0  0  0  0  0  0  0  0  0
   15.9323    2.0057    0.0000 C   0  0  0  0  0  0  0  0  0  0  0  0
   17.3812    1.6174    0.0000 O   0  0  0  0  0  0  0  0  0  0  0  0
   14.8717    0.9450    0.0000 C   0  0  0  0  0  0  0  0  0  0  0  0
   13.7782    1.8274    0.0000 C   0  0  0  0  0  0  0  0  0  0  0  0
   12.3476    2.2785    0.0000 O   0  0  0  0  0  0  0  0  0  0  0  0
   12.9594    3.2531    0.0000 O   0  0  0  0  0  0  0  0  0  0  0  0
   14.1029    0.3630    0.0000 C   0  0  0  0  0  0  0  0  0  0  0  0
   12.9969   -0.6504    0.0000 C   0  0  0  0  0  0  0  0  0  0  0  0
   13.3216   -2.1148    0.0000 C   0  0  0  0  0  0  0  0  0  0  0  0
   14.7522   -2.5659    0.0000 C   0  0  0  0  0  0  0  0  0  0  0  0
   15.8581   -1.5525    0.0000 C   0  0  0  0  0  0  0  0  0  0  0  0
   15.5335   -0.0881    0.0000 C   0  0  0  0  0  0  0  0  0  0  0  0
    4.1089    9.4780    0.0000 C   0  0  0  0  0  0  0  0  0  0  0  0
    2.9189   10.3912    0.0000 C   0  0  0  0  0  0  0  0  0  0  0  0
    3.1147   11.8783    0.0000 C   0  0  0  0  0  0  0  0  0  0  0  0
    4.5005   12.4524    0.0000 C   0  0  0  0  0  0  0  0  0  0  0  0
    5.6905   11.5392    0.0000 C   0  0  0  0  0  0  0  0  0  0  0  0
    5.4948   10.0521    0.0000 C   0  0  0  0  0  0  0  0  0  0  0  0
    3.5216    5.0165    0.0000 C   0  0  0  0  0  0  0  0  0  0  0  0
    3.3258    3.5293    0.0000 C   0  0  0  0  0  0  0  0  0  0  0  0
    1.9400    2.9553    0.0000 C   0  0  0  0  0  0  0  0  0  0  0  0
    0.7500    3.8684    0.0000 C   0  0  0  0  0  0  0  0  0  0  0  0
    0.9457    5.3556    0.0000 C   0  0  0  0  0  0  0  0  0  0  0  0
    2.3316    5.9296    0.0000 C   0  0  0  0  0  0  0  0  0  0  0  0
    5.1032    7.0777    0.0000 N   0  0  0  0  0  0  0  0  0  0  0  0
    5.9017    3.1902    0.0000 O   0  0  0  0  0  0  0  0  0  0  0  0
   15.3656    8.7595    0.0000 C   0  0  0  0  0  0  0  0  0  0  0  0
   14.0581    5.8234    0.0000 C   0  0  0  0  0  0  0  0  0  0  0  0
   13.3592    7.5107    0.0000 C   0  0  0  0  0  0  0  0  0  0  0  0
    9.0217    7.1888    0.0000 C   0  0  0  0  0  0  0  0  0  0  0  0
  1  5  1  0  0  0  0
  1 12  1  0  0  0  0
  1 28  1  1  0  0  0
  2  3  1  0  0  0  0
  2 16  1  0  0  0  0
  2 20  1  6  0  0  0
  3  4  1  0  0  0  0
  3  7  1  0  0  0  0
  3 19  1  6  0  0  0
  4  5  1  0  0  0  0
  4 10  1  0  0  0  0
  4 60  1  1  0  0  0
  5  6  2  0  0  0  0
  7  8  1  0  0  0  0
  7 18  1  0  0  0  0
  7 33  1  6  0  0  0
  8  9  1  1  0  0  0
  8 17  1  0  0  0  0
  9 10  1  0  0  0  0
 10 32  1  1  0  0  0
 11 12  1  0  0  0  0
 11 16  1  0  0  0  0
 11 61  1  0  0  0  0
 11 62  1  0  0  0  0
 12 13  2  0  0  0  0
 13 14  1  0  0  0  0
 13 63  1  0  0  0  0
 14 15  1  0  0  0  0
 14 21  1  6  0  0  0
 15 16  1  0  0  0  0
 16 39  1  1  0  0  0
 17 18  1  0  0  0  0
 20 37  1  0  0  0  0
 21 22  1  0  0  0  0
 22 24  2  0  0  0  0
 23 22  1  6  0  0  0
 23 25  1  0  0  0  0
 23 59  1  0  0  0  0
 25 52  1  6  0  0  0
 25 58  1  0  0  0  0
 26 27  2  0  0  0  0
 26 46  1  0  0  0  0
 26 58  1  0  0  0  0
 28 29  1  0  0  0  0
 29 30  2  0  0  0  0
 29 31  1  0  0  0  0
 33 34  1  0  0  0  0
 34 35  2  0  0  0  0
 34 36  1  0  0  0  0
 37 38  2  0  0  0  0
 37 40  1  0  0  0  0
 40 41  2  0  0  0  0
 40 45  1  0  0  0  0
 41 42  1  0  0  0  0
 42 43  2  0  0  0  0
 43 44  1  0  0  0  0
 44 45  2  0  0  0  0
 46 47  2  0  0  0  0
 46 51  1  0  0  0  0
 47 48  1  0  0  0  0
 48 49  2  0  0  0  0
 49 50  1  0  0  0  0
 50 51  2  0  0  0  0
 52 53  2  0  0  0  0
 52 57  1  0  0  0  0
 53 54  1  0  0  0  0
 54 55  2  0  0  0  0
 55 56  1  0  0  0  0
 56 57  2  0  0  0  0
M  END
