743414
 OpenBabel07281513532D

 37 41  0  0  0  0  0  0  0  0999 V2000
  -15.8630  -10.0246    0.0000 C   0  0  0  0  0  0  0  0  0  0  0  0
  -15.8630  -11.5245    0.0000 C   0  0  0  0  0  0  0  0  0  0  0  0
  -14.5639  -12.2745    0.0000 C   0  0  0  0  0  0  0  0  0  0  0  0
  -13.2649  -11.5245    0.0000 N   0  0  0  0  0  0  0  0  0  0  0  0
  -13.2649  -10.0245    0.0000 C   0  0  0  0  0  0  0  0  0  0  0  0
  -14.5639   -9.2745    0.0000 N   0  0  0  0  0  0  0  0  0  0  0  0
  -14.5639  -13.7745    0.0000 C   0  0  0  0  0  0  0  0  0  0  0  0
  -15.8630  -14.5246    0.0000 C   0  0  0  0  0  0  0  0  0  0  0  0
  -15.8630  -16.0246    0.0000 C   0  0  0  0  0  0  0  0  0  0  0  0
  -14.5639  -16.7746    0.0000 C   0  0  0  0  0  0  0  0  0  0  0  0
  -13.2649  -16.0246    0.0000 N   0  0  0  0  0  0  0  0  0  0  0  0
  -13.2649  -14.5246    0.0000 C   0  0  0  0  0  0  0  0  0  0  0  0
  -10.6668  -10.0245    0.0000 C   0  0  0  0  0  0  0  0  0  0  0  0
  -10.6668  -11.5245    0.0000 C   0  0  0  0  0  0  0  0  0  0  0  0
   -9.3678  -12.2745    0.0000 C   0  0  0  0  0  0  0  0  0  0  0  0
   -8.0687  -11.5245    0.0000 C   0  0  0  0  0  0  0  0  0  0  0  0
   -8.0687  -10.0245    0.0000 C   0  0  0  0  0  0  0  0  0  0  0  0
   -9.3678   -9.2745    0.0000 C   0  0  0  0  0  0  0  0  0  0  0  0
   -5.4707  -10.0245    0.0000 C   0  0  0  0  0  0  0  0  0  0  0  0
   -5.4707  -11.5245    0.0000 O   0  0  0  0  0  0  0  0  0  0  0  0
   -4.1716   -9.2745    0.0000 C   0  0  0  0  0  0  0  0  0  0  0  0
   -2.8726  -10.0245    0.0000 C   0  0  0  0  0  0  0  0  0  0  0  0
   -1.5735   -9.2745    0.0000 C   0  0  0  0  0  0  0  0  0  0  0  0
   -1.5735   -7.7745    0.0000 C   0  0  0  0  0  0  0  0  0  0  0  0
   -2.8726   -7.0245    0.0000 C   0  0  0  0  0  0  0  0  0  0  0  0
   -4.1716   -7.7745    0.0000 C   0  0  0  0  0  0  0  0  0  0  0  0
   -0.2745   -7.0245    0.0000 C   0  0  0  0  0  0  0  0  0  0  0  0
    1.0245   -7.7745    0.0000 N   0  0  0  0  0  0  0  0  0  0  0  0
    1.0245   -9.2745    0.0000 C   0  0  0  0  0  0  0  0  0  0  0  0
    2.3236  -10.0245    0.0000 C   0  0  0  0  0  0  0  0  0  0  0  0
    3.6226   -9.2745    0.0000 N   0  0  0  0  0  0  0  0  0  0  0  0
    3.6226   -7.7745    0.0000 C   0  0  0  0  0  0  0  0  0  0  0  0
    2.3236   -7.0245    0.0000 C   0  0  0  0  0  0  0  0  0  0  0  0
   -6.7697   -9.2745    0.0000 N   0  0  0  0  0  0  0  0  0  0  0  0
  -11.9658   -9.2745    0.0000 N   0  0  0  0  0  0  0  0  0  0  0  0
  -11.9658  -12.2745    0.0000 C   0  0  0  0  0  0  0  0  0  0  0  0
    4.9217  -10.0245    0.0000 C   0  0  0  0  0  0  0  0  0  0  0  0
  1  2  2  0  0  0  0
  1  6  1  0  0  0  0
  2  3  1  0  0  0  0
  3  4  2  0  0  0  0
  3  7  1  0  0  0  0
  4  5  1  0  0  0  0
  5  6  2  0  0  0  0
  5 35  1  0  0  0  0
  7  8  2  0  0  0  0
  7 12  1  0  0  0  0
  8  9  1  0  0  0  0
  9 10  2  0  0  0  0
 10 11  1  0  0  0  0
 11 12  2  0  0  0  0
 13 14  2  0  0  0  0
 13 18  1  0  0  0  0
 13 35  1  0  0  0  0
 14 15  1  0  0  0  0
 14 36  1  0  0  0  0
 15 16  2  0  0  0  0
 16 17  1  0  0  0  0
 17 18  2  0  0  0  0
 17 34  1  0  0  0  0
 19 20  2  0  0  0  0
 19 21  1  0  0  0  0
 19 34  1  0  0  0  0
 21 22  2  0  0  0  0
 21 26  1  0  0  0  0
 22 23  1  0  0  0  0
 23 24  2  0  0  0  0
 24 25  1  0  0  0  0
 24 27  1  0  0  0  0
 25 26  2  0  0  0  0
 27 28  1  0  0  0  0
 28 29  1  0  0  0  0
 28 33  1  0  0  0  0
 29 30  1  0  0  0  0
 30 31  1  0  0  0  0
 31 32  1  0  0  0  0
 31 37  1  0  0  0  0
 32 33  1  0  0  0  0
M  END
