758253
 OpenBabel07281513542D

 40 44  0  0  1  0  0  0  0  0999 V2000
   -0.8170   -1.5485    0.0000 C   0  0  0  0  0  0  0  0  0  0  0  0
   -0.8170   -2.4285    0.0000 C   0  0  0  0  0  0  0  0  0  0  0  0
   -0.0540   -2.8685    0.0000 C   0  0  0  0  0  0  0  0  0  0  0  0
    0.7028   -2.4285    0.0000 C   0  0  0  0  0  0  0  0  0  0  0  0
    0.7069   -1.5485    0.0000 C   0  0  0  0  0  0  0  0  0  0  0  0
   -0.0540   -1.1085    0.0000 C   0  0  0  0  0  0  0  0  0  0  0  0
   -1.6540   -1.2765    0.0000 O   0  0  0  0  0  0  0  0  0  0  0  0
   -2.1710   -1.9885    0.0000 C   0  0  0  0  0  0  0  0  0  0  0  0
   -1.6531   -2.7004    0.0000 O   0  0  0  0  0  0  0  0  0  0  0  0
    1.3878   -2.9804    0.0000 C   0  0  0  0  0  0  0  0  0  0  0  0
    2.2469   -2.7885    0.0000 C   0  0  0  0  0  0  0  0  0  0  0  0
    2.6269   -2.0004    0.0000 N   0  0  3  0  0  0  0  0  0  0  0  0
    2.2549   -1.2035    0.0000 C   0  0  1  0  0  0  0  0  0  0  0  0
    1.3978   -1.0035    0.0000 C   0  0  1  0  0  0  0  0  0  0  0  0
    3.5008   -1.8935    0.0000 C   0  0  0  0  0  0  0  0  0  0  0  0
    3.6679   -1.0295    0.0000 C   0  0  0  0  0  0  0  0  0  0  0  0
    2.8989   -0.6035    0.0000 C   0  0  0  0  0  0  0  0  0  0  0  0
    2.5808   -0.3445    0.0000 C   0  0  0  0  0  0  0  0  0  0  0  0
    1.9928    0.1515    0.0000 C   0  0  0  0  0  0  0  0  0  0  0  0
    1.3129   -0.1985    0.0000 C   0  0  1  0  0  0  0  0  0  0  0  0
    1.4949   -1.9345    0.0000 H   0  0  0  0  0  0  0  0  0  0  0  0
    0.4649    0.2905    0.0000 O   0  0  0  0  0  0  0  0  0  0  0  0
   -0.3410    0.2296    0.0000 C   0  0  0  0  0  0  0  0  0  0  0  0
   -0.8971    0.7244    0.0000 C   0  0  2  0  0  0  0  0  0  0  0  0
   -0.5460   -0.6015    0.0000 O   0  0  0  0  0  0  0  0  0  0  0  0
   -1.6960    0.3555    0.0000 C   0  0  0  0  0  0  0  0  0  0  0  0
   -1.3760    1.5104    0.0000 C   0  0  0  0  0  0  0  0  0  0  0  0
   -1.3470    2.4714    0.0000 C   0  0  0  0  0  0  0  0  0  0  0  0
   -2.0950    3.8144    0.0000 C   0  0  0  0  0  0  0  0  0  0  0  0
   -2.0950    4.6945    0.0000 C   0  0  0  0  0  0  0  0  0  0  0  0
   -2.0950    2.9344    0.0000 C   0  0  0  0  0  0  0  0  0  0  0  0
   -2.9980    4.3434    0.0000 C   0  0  0  0  0  0  0  0  0  0  0  0
    2.0919    1.0254    0.0000 O   0  0  0  0  0  0  0  0  0  0  0  0
    2.8986    1.3769    0.0000 C   0  0  0  0  0  0  0  0  0  0  0  0
   -1.3331    4.2544    0.0000 O   0  0  0  0  0  0  0  0  0  0  0  0
   -0.3560    1.3604    0.0000 O   0  0  0  0  0  0  0  0  0  0  0  0
   -2.4580    0.7954    0.0000 C   0  0  0  0  0  0  0  0  0  0  0  0
   -3.2202    0.3556    0.0000 O   0  0  0  0  0  0  0  0  0  0  0  0
   -2.4580    1.6754    0.0000 O   0  0  0  0  0  0  0  0  0  0  0  0
   -1.6959    2.1154    0.0000 C   0  0  0  0  0  0  0  0  0  0  0  0
  1  2  2  0  0  0  0
  1  6  1  0  0  0  0
  1  7  1  0  0  0  0
  2  3  1  0  0  0  0
  2  9  1  0  0  0  0
  3  4  2  0  0  0  0
  4  5  1  0  0  0  0
  4 10  1  0  0  0  0
  5  6  2  0  0  0  0
  5 14  1  0  0  0  0
  7  8  1  0  0  0  0
  8  9  1  0  0  0  0
 10 11  1  0  0  0  0
 11 12  1  0  0  0  0
 12 13  1  0  0  0  0
 12 15  1  0  0  0  0
 13 14  1  0  0  0  0
 13 17  1  1  0  0  0
 13 18  1  0  0  0  0
 14 20  1  0  0  0  0
 14 21  1  1  0  0  0
 15 16  1  0  0  0  0
 16 17  1  0  0  0  0
 18 19  2  0  0  0  0
 19 20  1  0  0  0  0
 19 33  1  0  0  0  0
 20 22  1  6  0  0  0
 22 23  1  0  0  0  0
 23 25  2  0  0  0  0
 24 23  1  6  0  0  0
 24 26  1  0  0  0  0
 24 27  1  0  0  0  0
 24 36  1  0  0  0  0
 26 37  1  0  0  0  0
 27 28  1  0  0  0  0
 28 31  1  0  0  0  0
 29 30  1  0  0  0  0
 29 31  1  0  0  0  0
 29 32  1  0  0  0  0
 29 35  1  0  0  0  0
 33 34  1  0  0  0  0
 37 38  2  0  0  0  0
 37 39  1  0  0  0  0
 39 40  1  0  0  0  0
M  END
