775351
 OpenBabel07281513532D

 20 22  0  0  1  0  0  0  0  0999 V2000
   -2.5541    0.3892    0.0000 C   0  0  0  0  0  0  0  0  0  0  0  0
   -2.5541   -0.4107    0.0000 C   0  0  0  0  0  0  0  0  0  0  0  0
   -1.8611   -0.8107    0.0000 C   0  0  0  0  0  0  0  0  0  0  0  0
   -1.1681   -0.4107    0.0000 C   0  0  0  0  0  0  0  0  0  0  0  0
   -1.1681    0.3892    0.0000 C   0  0  0  0  0  0  0  0  0  0  0  0
   -1.8611    0.7892    0.0000 C   0  0  0  0  0  0  0  0  0  0  0  0
   -0.4081   -0.6577    0.0000 C   0  0  0  0  0  0  0  0  0  0  0  0
    0.0629   -0.0107    0.0000 N   0  0  0  0  0  0  0  0  0  0  0  0
   -0.4081    0.6362    0.0000 C   0  0  0  0  0  0  0  0  0  0  0  0
    0.8627   -0.0107    0.0000 C   0  0  3  0  0  0  0  0  0  0  0  0
    1.2627   -0.7037    0.0000 C   0  0  0  0  0  0  0  0  0  0  0  0
    2.4627   -0.0107    0.0000 C   0  0  0  0  0  0  0  0  0  0  0  0
    2.0627    0.6822    0.0000 C   0  0  0  0  0  0  0  0  0  0  0  0
    1.2627    0.6822    0.0000 C   0  0  0  0  0  0  0  0  0  0  0  0
    3.2627   -0.0107    0.0000 O   0  0  0  0  0  0  0  0  0  0  0  0
    2.0627   -0.7037    0.0000 N   0  0  0  0  0  0  0  0  0  0  0  0
    0.8627   -1.3967    0.0000 O   0  0  0  0  0  0  0  0  0  0  0  0
   -0.1601    1.3972    0.0000 O   0  0  0  0  0  0  0  0  0  0  0  0
   -0.1601   -1.4187    0.0000 O   0  0  0  0  0  0  0  0  0  0  0  0
   -1.8611    1.5892    0.0000 N   0  0  0  0  0  0  0  0  0  0  0  0
  1  2  2  0  0  0  0
  1  6  1  0  0  0  0
  2  3  1  0  0  0  0
  3  4  2  0  0  0  0
  4  5  1  0  0  0  0
  4  7  1  0  0  0  0
  5  6  2  0  0  0  0
  5  9  1  0  0  0  0
  6 20  1  0  0  0  0
  7  8  1  0  0  0  0
  7 19  2  0  0  0  0
  8  9  1  0  0  0  0
  8 10  1  0  0  0  0
  9 18  2  0  0  0  0
 10 11  1  0  0  0  0
 10 14  1  0  0  0  0
 11 16  1  0  0  0  0
 11 17  2  0  0  0  0
 12 13  1  0  0  0  0
 12 15  2  0  0  0  0
 12 16  1  0  0  0  0
 13 14  1  0  0  0  0
M  END
