747972
 OpenBabel07281513532D

 19 21  0  0  1  0  0  0  0  0999 V2000
  -11.6563   -2.6401    0.0000 C   0  0  0  0  0  0  0  0  0  0  0  0
  -11.6563   -4.1401    0.0000 C   0  0  0  0  0  0  0  0  0  0  0  0
  -10.3573   -4.8901    0.0000 C   0  0  0  0  0  0  0  0  0  0  0  0
   -9.0583   -4.1401    0.0000 C   0  0  0  0  0  0  0  0  0  0  0  0
   -9.0583   -2.6401    0.0000 C   0  0  0  0  0  0  0  0  0  0  0  0
  -10.3573   -1.8901    0.0000 C   0  0  0  0  0  0  0  0  0  0  0  0
   -7.6317   -4.6036    0.0000 C   0  0  0  0  0  0  0  0  0  0  0  0
   -6.7500   -3.3901    0.0000 N   0  0  0  0  0  0  0  0  0  0  0  0
   -7.6317   -2.1766    0.0000 C   0  0  0  0  0  0  0  0  0  0  0  0
   -7.1681   -0.7500    0.0000 O   0  0  0  0  0  0  0  0  0  0  0  0
   -4.5000   -4.6892    0.0000 C   0  0  0  0  0  0  0  0  0  0  0  0
   -3.0000   -4.6892    0.0000 C   0  0  0  0  0  0  0  0  0  0  0  0
   -2.2500   -3.3901    0.0000 C   0  0  0  0  0  0  0  0  0  0  0  0
   -4.5000   -2.0911    0.0000 C   0  0  0  0  0  0  0  0  0  0  0  0
   -5.2500   -3.3901    0.0000 C   0  0  3  0  0  0  0  0  0  0  0  0
   -0.7500   -3.3901    0.0000 O   0  0  0  0  0  0  0  0  0  0  0  0
  -10.3573   -6.3901    0.0000 N   0  0  0  0  0  0  0  0  0  0  0  0
   -5.2500   -0.7920    0.0000 O   0  0  0  0  0  0  0  0  0  0  0  0
   -3.0000   -2.0911    0.0000 N   0  0  0  0  0  0  0  0  0  0  0  0
  1  2  2  0  0  0  0
  1  6  1  0  0  0  0
  2  3  1  0  0  0  0
  3  4  2  0  0  0  0
  3 17  1  0  0  0  0
  4  5  1  0  0  0  0
  4  7  1  0  0  0  0
  5  6  2  0  0  0  0
  5  9  1  0  0  0  0
  7  8  1  0  0  0  0
  8  9  1  0  0  0  0
  8 15  1  0  0  0  0
  9 10  2  0  0  0  0
 11 12  1  0  0  0  0
 11 15  1  0  0  0  0
 12 13  1  0  0  0  0
 13 16  2  0  0  0  0
 13 19  1  0  0  0  0
 14 15  1  0  0  0  0
 14 18  2  0  0  0  0
 14 19  1  0  0  0  0
M  END
