102816
 OpenBabel07281513542D

 17 18  0  0  1  0  0  0  0  0999 V2000
   -2.4782   -2.0076    0.0000 N   0  0  0  0  0  0  0  0  0  0  0  0
   -6.8250   -3.6091    0.0000 O   0  0  0  0  0  0  0  0  0  0  0  0
   -4.1770   -3.9734    0.0000 N   0  0  0  0  0  0  0  0  0  0  0  0
   -1.6252   -4.4617    0.0000 N   0  0  0  0  0  0  0  0  0  0  0  0
   -3.3239   -6.4274    0.0000 O   0  0  0  0  0  0  0  0  0  0  0  0
   -1.3433   -2.9884    0.0000 C   0  0  0  0  0  0  0  0  0  0  0  0
   -3.0420   -4.9542    0.0000 C   0  0  0  0  0  0  0  0  0  0  0  0
   -3.8951   -2.5001    0.0000 C   0  0  0  0  0  0  0  0  0  0  0  0
   -5.5938   -4.4659    0.0000 C   0  0  3  0  0  0  0  0  0  0  0  0
   -6.0282   -5.9016    0.0000 C   0  0  3  0  0  0  0  0  0  0  0  0
   -7.5279   -5.9322    0.0000 C   0  0  3  0  0  0  0  0  0  0  0  0
   -8.0204   -4.5154    0.0000 C   0  0  3  0  0  0  0  0  0  0  0  0
   -8.3846   -7.1634    0.0000 O   0  0  0  0  0  0  0  0  0  0  0  0
   -5.1219   -7.0969    0.0000 O   0  0  0  0  0  0  0  0  0  0  0  0
    0.0736   -2.4959    0.0000 N   0  0  0  0  0  0  0  0  0  0  0  0
   -9.4561   -4.0810    0.0000 C   0  0  0  0  0  0  0  0  0  0  0  0
  -10.5501   -5.1072    0.0000 O   0  0  0  0  0  0  0  0  0  0  0  0
  1  8  2  0  0  0  0
  1  6  1  0  0  0  0
  2  9  1  0  0  0  0
  2 12  1  0  0  0  0
  3  7  1  0  0  0  0
  3  8  1  0  0  0  0
  3  9  1  0  0  0  0
  4  6  2  0  0  0  0
  4  7  1  0  0  0  0
  5  7  2  0  0  0  0
  6 15  1  0  0  0  0
  9 10  1  0  0  0  0
 10 11  1  0  0  0  0
 10 14  1  0  0  0  0
 11 12  1  0  0  0  0
 11 13  1  0  0  0  0
 12 16  1  0  0  0  0
 16 17  1  0  0  0  0
M  END
