119875
 OpenBabel07281513532D

  5  4  0  0  0  0  0  0  0  0999 V2000
    1.0308   -1.0897    0.0000 Cl  0  5  0  0  0  0  0  0  0  0  0  0
    0.0000    0.0000    0.0000 Pt  0  2  0  0  0  0  0  0  0  0  0  0
    1.0897    1.0308    0.0000 Cl  0  5  0  0  0  0  0  0  0  0  0  0
   -1.0308    1.0897    0.0000 N   0  0  0  0  0  0  0  0  0  0  0  0
   -1.0897   -1.0308    0.0000 N   0  0  0  0  0  0  0  0  0  0  0  0
  1  2  1  0  0  0  0
  2  3  1  0  0  0  0
  2  4  1  0  0  0  0
  2  5  1  0  0  0  0
M  CHG  3   1  -1   2   2   3  -1
M  END
