26271
 OpenBabel07281513532D

 14 14  0  0  0  0  0  0  0  0999 V2000
    0.7941    5.1766    0.0000 O   0  0  0  0  0  0  0  0  0  0  0  0
   -0.7057    5.1500    0.0000 C   0  0  0  0  0  0  0  0  0  0  0  0
   -1.4325    3.8378    0.0000 C   0  0  0  0  0  0  0  0  0  0  0  0
   -0.6595    2.5523    0.0000 C   0  0  0  0  0  0  0  0  0  0  0  0
    2.4121    6.3479    0.0000 C   0  0  0  0  0  0  0  0  0  0  0  0
    3.5438    7.3324    0.0000 C   0  0  0  0  0  0  0  0  0  0  0  0
    3.2572    8.8047    0.0000 Cl  0  0  0  0  0  0  0  0  0  0  0  0
    2.6988    4.8756    0.0000 N   0  0  0  0  0  0  0  0  0  0  0  0
    4.1172    4.3877    0.0000 C   0  0  0  0  0  0  0  0  0  0  0  0
    5.2490    5.3721    0.0000 C   0  0  0  0  0  0  0  0  0  0  0  0
    6.6674    4.8842    0.0000 Cl  0  0  0  0  0  0  0  0  0  0  0  0
    1.5670    3.8911    0.0000 P   0  0  3  0  0  0  0  0  0  0  0  0
    2.7330    2.9475    0.0000 O   0  0  0  0  0  0  0  0  0  0  0  0
    0.8402    2.5790    0.0000 N   0  0  0  0  0  0  0  0  0  0  0  0
  1  2  1  0  0  0  0
  1 12  1  0  0  0  0
  2  3  1  0  0  0  0
  3  4  1  0  0  0  0
  4 14  1  0  0  0  0
  5  6  1  0  0  0  0
  5  8  1  0  0  0  0
  6  7  1  0  0  0  0
  8  9  1  0  0  0  0
  8 12  1  0  0  0  0
  9 10  1  0  0  0  0
 10 11  1  0  0  0  0
 12 13  2  0  0  0  0
 12 14  1  0  0  0  0
M  END
