628503
 OpenBabel07281513542D

 59 64  0  0  1  0  0  0  0  0999 V2000
    3.7165    0.6917    0.0000 C   0  0  0  0  0  0  0  0  0  0  0  0
    2.9665   -0.6074    0.0000 C   0  0  0  0  0  0  0  0  0  0  0  0
    3.7165   -1.9064    0.0000 C   0  0  0  0  0  0  0  0  0  0  0  0
    5.2165   -1.9064    0.0000 C   0  0  0  0  0  0  0  0  0  0  0  0
    5.9665   -0.6074    0.0000 C   0  0  0  0  0  0  0  0  0  0  0  0
    5.2165    0.6917    0.0000 C   0  0  0  0  0  0  0  0  0  0  0  0
    7.4665   -0.6074    0.0000 C   0  0  1  0  0  0  0  0  0  0  0  0
    8.2165   -1.9064    0.0000 C   0  0  2  0  0  0  0  0  0  0  0  0
    7.4665    1.9907    0.0000 C   0  0  0  0  0  0  0  0  0  0  0  0
    5.9665    1.9907    0.0000 O   0  0  0  0  0  0  0  0  0  0  0  0
    8.2165    3.2898    0.0000 O   0  0  0  0  0  0  0  0  0  0  0  0
    5.2165    3.2897    0.0000 C   0  0  0  0  0  0  0  0  0  0  0  0
    9.7165   -1.9064    0.0000 C   0  0  0  0  0  0  0  0  0  0  0  0
   11.9665   -3.2055    0.0000 C   0  0  1  0  0  0  0  0  0  0  0  0
   10.4665   -0.6074    0.0000 O   0  0  0  0  0  0  0  0  0  0  0  0
   15.1538   -1.0066    0.0000 C   0  0  2  0  0  0  0  0  0  0  0  0
   13.8547   -1.7566    0.0000 C   0  0  0  0  0  0  0  0  0  0  0  0
   13.4665   -3.2055    0.0000 C   0  0  0  0  0  0  0  0  0  0  0  0
   14.2165   -4.5045    0.0000 C   0  0  2  0  0  0  0  0  0  0  0  0
   15.6654   -4.8927    0.0000 C   0  0  2  0  0  0  0  0  0  0  0  0
   16.9644   -4.1427    0.0000 C   0  0  1  0  0  0  0  0  0  0  0  0
   17.3527   -2.6939    0.0000 C   0  0  2  0  0  0  0  0  0  0  0  0
   16.6027   -1.3948    0.0000 C   0  0  0  0  0  0  0  0  0  0  0  0
   18.0251   -5.2034    0.0000 C   0  0  1  0  0  0  0  0  0  0  0  0
   19.4740   -4.8152    0.0000 C   0  0  1  0  0  0  0  0  0  0  0  0
   19.8622   -3.3663    0.0000 C   0  0  0  0  0  0  0  0  0  0  0  0
   18.8016   -2.3056    0.0000 C   0  0  2  0  0  0  0  0  0  0  0  0
   18.4133   -6.6523    0.0000 C   0  0  0  0  0  0  0  0  0  0  0  0
   19.8622   -6.2641    0.0000 O   0  0  0  0  0  0  0  0  0  0  0  0
   17.5158   -0.2048    0.0000 O   0  0  0  0  0  0  0  0  0  0  0  0
   16.7686   -5.6299    0.0000 H   0  0  0  0  0  0  0  0  0  0  0  0
   12.7165   -4.5045    0.0000 C   0  0  0  0  0  0  0  0  0  0  0  0
   12.7165   -1.9064    0.0000 C   0  0  0  0  0  0  0  0  0  0  0  0
    5.9665    4.5888    0.0000 C   0  0  0  0  0  0  0  0  0  0  0  0
    4.4665    4.5888    0.0000 C   0  0  0  0  0  0  0  0  0  0  0  0
    3.7165    3.2897    0.0000 C   0  0  0  0  0  0  0  0  0  0  0  0
    8.2165    0.6917    0.0000 N   0  0  0  0  0  0  0  0  0  0  0  0
   11.8831   -0.6592    0.0000 C   0  0  0  0  0  0  0  0  0  0  0  0
   11.9793   -3.4013    0.0000 C   0  0  0  0  0  0  0  0  0  0  0  0
   14.9537   -3.0097    0.0000 C   0  0  0  0  0  0  0  0  0  0  0  0
   17.9267   -1.3080    0.0000 C   0  0  0  0  0  0  0  0  0  0  0  0
   19.1898   -0.8567    0.0000 O   0  0  0  0  0  0  0  0  0  0  0  0
   15.8612   -6.3799    0.0000 O   0  0  0  0  0  0  0  0  0  0  0  0
   14.6711   -7.2931    0.0000 C   0  0  0  0  0  0  0  0  0  0  0  0
   13.2853   -6.7190    0.0000 O   0  0  0  0  0  0  0  0  0  0  0  0
   14.8669   -8.7802    0.0000 C   0  0  0  0  0  0  0  0  0  0  0  0
   13.6769   -9.6934    0.0000 C   0  0  0  0  0  0  0  0  0  0  0  0
   13.8727  -11.1805    0.0000 C   0  0  0  0  0  0  0  0  0  0  0  0
   15.2585  -11.7546    0.0000 C   0  0  0  0  0  0  0  0  0  0  0  0
   16.4485  -10.8414    0.0000 C   0  0  0  0  0  0  0  0  0  0  0  0
   16.2528   -9.3543    0.0000 C   0  0  0  0  0  0  0  0  0  0  0  0
   10.4665   -3.2055    0.0000 O   0  0  0  0  0  0  0  0  0  0  0  0
    7.4665   -3.2055    0.0000 O   0  0  0  0  0  0  0  0  0  0  0  0
   14.0207   -5.9917    0.0000 O   0  0  0  0  0  0  0  0  0  0  0  0
   17.2751   -6.5025    0.0000 O   0  0  0  0  0  0  0  0  0  0  0  0
   18.0251   -7.8015    0.0000 C   0  0  0  0  0  0  0  0  0  0  0  0
   19.5251   -7.8015    0.0000 O   0  0  0  0  0  0  0  0  0  0  0  0
   17.2751   -9.1005    0.0000 C   0  0  0  0  0  0  0  0  0  0  0  0
   14.9580    0.4806    0.0000 O   0  0  0  0  0  0  0  0  0  0  0  0
  1  2  2  0  0  0  0
  1  6  1  0  0  0  0
  2  3  1  0  0  0  0
  3  4  2  0  0  0  0
  4  5  1  0  0  0  0
  5  6  2  0  0  0  0
  7  5  1  6  0  0  0
  7  8  1  0  0  0  0
  7 37  1  0  0  0  0
  8 13  1  6  0  0  0
  8 53  1  0  0  0  0
  9 10  1  0  0  0  0
  9 11  2  0  0  0  0
  9 37  1  0  0  0  0
 10 12  1  0  0  0  0
 12 34  1  0  0  0  0
 12 35  1  0  0  0  0
 12 36  1  0  0  0  0
 13 15  2  0  0  0  0
 13 52  1  0  0  0  0
 14 32  1  0  0  0  0
 14 33  1  0  0  0  0
 14 52  1  6  0  0  0
 16 17  1  0  0  0  0
 16 23  1  0  0  0  0
 16 59  1  1  0  0  0
 17 18  1  0  0  0  0
 17 33  2  0  0  0  0
 18 19  1  0  0  0  0
 18 39  1  0  0  0  0
 18 40  1  0  0  0  0
 19 20  1  0  0  0  0
 19 32  1  0  0  0  0
 19 54  1  1  0  0  0
 20 21  1  0  0  0  0
 20 43  1  6  0  0  0
 21 22  1  0  0  0  0
 21 24  1  0  0  0  0
 21 31  1  6  0  0  0
 22 23  1  0  0  0  0
 22 27  1  0  0  0  0
 22 41  1  1  0  0  0
 23 30  2  0  0  0  0
 24 25  1  0  0  0  0
 24 28  1  0  0  0  0
 24 55  1  6  0  0  0
 25 26  1  1  0  0  0
 25 29  1  0  0  0  0
 26 27  1  0  0  0  0
 27 42  1  1  0  0  0
 28 29  1  0  0  0  0
 33 38  1  0  0  0  0
 43 44  1  0  0  0  0
 44 45  2  0  0  0  0
 44 46  1  0  0  0  0
 46 47  2  0  0  0  0
 46 51  1  0  0  0  0
 47 48  1  0  0  0  0
 48 49  2  0  0  0  0
 49 50  1  0  0  0  0
 50 51  2  0  0  0  0
 55 56  1  0  0  0  0
 56 57  2  0  0  0  0
 56 58  1  0  0  0  0
M  END
