226080
 OpenBabel07281513532D

 65 68  0  0  1  0  0  0  0  0999 V2000
    7.7177    6.7479    0.0000 C   0  0  1  0  0  0  0  0  0  0  0  0
    7.7177    5.2479    0.0000 C   0  0  1  0  0  0  0  0  0  0  0  0
    9.0167    4.4979    0.0000 C   0  0  0  0  0  0  0  0  0  0  0  0
   10.3158    5.2480    0.0000 C   0  0  1  0  0  0  0  0  0  0  0  0
   10.3158    6.7480    0.0000 C   0  0  0  0  0  0  0  0  0  0  0  0
    9.0167    7.4979    0.0000 C   0  0  0  0  0  0  0  0  0  0  0  0
    6.4187    7.4979    0.0000 O   0  0  0  0  0  0  0  0  0  0  0  0
    6.4187    4.4979    0.0000 O   0  0  0  0  0  0  0  0  0  0  0  0
    5.1196    5.2479    0.0000 C   0  0  0  0  0  0  0  0  0  0  0  0
   11.6148    4.4980    0.0000 C   0  0  0  0  0  0  0  0  0  0  0  0
   11.6148    2.9980    0.0000 C   0  0  2  0  0  0  0  0  0  0  0  0
   12.9139    2.2480    0.0000 C   0  0  2  0  0  0  0  0  0  0  0  0
   10.3158    2.2480    0.0000 C   0  0  0  0  0  0  0  0  0  0  0  0
   13.7999    3.4583    0.0000 C   0  0  0  0  0  0  0  0  0  0  0  0
   12.3086    0.8752    0.0000 O   0  0  0  0  0  0  0  0  0  0  0  0
   14.9255    4.4498    0.0000 C   0  0  0  0  0  0  0  0  0  0  0  0
   16.2378    5.1762    0.0000 C   0  0  1  0  0  0  0  0  0  0  0  0
   14.0614    5.6760    0.0000 O   0  0  0  0  0  0  0  0  0  0  0  0
   17.7194    5.3642    0.0000 C   0  0  0  0  0  0  0  0  0  0  0  0
   19.1718    5.7118    0.0000 C   0  0  0  0  0  0  0  0  0  0  0  0
   15.6576    6.5595    0.0000 C   0  0  0  0  0  0  0  0  0  0  0  0
   20.6562    5.4959    0.0000 C   0  0  2  0  0  0  0  0  0  0  0  0
   22.0594    4.9659    0.0000 C   0  0  2  0  0  0  0  0  0  0  0  0
   19.2259    7.2108    0.0000 C   0  0  0  0  0  0  0  0  0  0  0  0
   21.0313    6.9482    0.0000 O   0  0  0  0  0  0  0  0  0  0  0  0
   23.3159    4.1467    0.0000 C   0  0  0  0  0  0  0  0  0  0  0  0
   24.2662    5.3073    0.0000 O   0  0  0  0  0  0  0  0  0  0  0  0
   24.3670    3.0765    0.0000 C   0  0  1  0  0  0  0  0  0  0  0  0
   25.1634    1.8054    0.0000 C   0  0  0  0  0  0  0  0  0  0  0  0
   12.0127   -0.5953    0.0000 C   0  0  0  0  0  0  0  0  0  0  0  0
   10.5188   -0.4602    0.0000 O   0  0  0  0  0  0  0  0  0  0  0  0
   12.0398   -2.0951    0.0000 C   0  0  2  0  0  0  0  0  0  0  0  0
   10.6020   -1.6678    0.0000 C   0  0  0  0  0  0  0  0  0  0  0  0
    9.5130   -2.6994    0.0000 C   0  0  0  0  0  0  0  0  0  0  0  0
    9.8619   -4.1582    0.0000 C   0  0  0  0  0  0  0  0  0  0  0  0
   11.2997   -4.5855    0.0000 C   0  0  0  0  0  0  0  0  0  0  0  0
   12.3887   -3.5540    0.0000 N   0  0  0  0  0  0  0  0  0  0  0  0
   13.0431   -4.9037    0.0000 C   0  0  0  0  0  0  0  0  0  0  0  0
   11.7720   -5.7002    0.0000 O   0  0  0  0  0  0  0  0  0  0  0  0
   13.9723   -6.0812    0.0000 C   0  0  0  0  0  0  0  0  0  0  0  0
   12.9021   -7.1323    0.0000 O   0  0  0  0  0  0  0  0  0  0  0  0
   15.1329   -7.0315    0.0000 C   0  0  1  0  0  0  0  0  0  0  0  0
   14.6029   -8.4348    0.0000 C   0  0  1  0  0  0  0  0  0  0  0  0
   15.5532   -9.5953    0.0000 C   0  0  0  0  0  0  0  0  0  0  0  0
   17.0335   -9.3527    0.0000 C   0  0  0  0  0  0  0  0  0  0  0  0
   17.9230   -8.0852    0.0000 C   0  0  2  0  0  0  0  0  0  0  0  0
   16.8321   -6.7529    0.0000 O   0  0  0  0  0  0  0  0  0  0  0  0
   19.4220   -8.1393    0.0000 C   0  0  0  0  0  0  0  0  0  0  0  0
   20.8976   -7.8699    0.0000 C   0  0  1  0  0  0  0  0  0  0  0  0
   22.2808   -7.2896    0.0000 C   0  0  0  0  0  0  0  0  0  0  0  0
   23.3461   -6.2430    0.0000 C   0  0  0  0  0  0  0  0  0  0  0  0
   24.5186   -5.3181    0.0000 C   0  0  0  0  0  0  0  0  0  0  0  0
   24.9718   -3.8882    0.0000 C   0  0  0  0  0  0  0  0  0  0  0  0
   25.7218   -2.5891    0.0000 C   0  0  0  0  0  0  0  0  0  0  0  0
   25.5327   -1.1011    0.0000 C   0  0  0  0  0  0  0  0  0  0  0  0
   25.6679    0.3928    0.0000 C   0  0  1  0  0  0  0  0  0  0  0  0
   15.5211   -5.5826    0.0000 O   0  0  0  0  0  0  0  0  0  0  0  0
   23.0072   -8.6020    0.0000 C   0  0  0  0  0  0  0  0  0  0  0  0
   27.1268    0.7416    0.0000 C   0  0  0  0  0  0  0  0  0  0  0  0
   25.5445    4.0057    0.0000 C   0  0  0  0  0  0  0  0  0  0  0  0
   21.3249   -9.3077    0.0000 O   0  0  0  0  0  0  0  0  0  0  0  0
   22.7838   -9.6566    0.0000 C   0  0  0  0  0  0  0  0  0  0  0  0
   22.7380    6.3037    0.0000 O   0  0  0  0  0  0  0  0  0  0  0  0
   24.2358    6.3849    0.0000 C   0  0  0  0  0  0  0  0  0  0  0  0
   13.1227   -8.6775    0.0000 C   0  0  0  0  0  0  0  0  0  0  0  0
  1  2  1  0  0  0  0
  1  6  1  0  0  0  0
  1  7  1  6  0  0  0
  2  3  1  0  0  0  0
  2  8  1  1  0  0  0
  3  4  1  0  0  0  0
  4  5  1  0  0  0  0
  4 10  1  1  0  0  0
  5  6  1  0  0  0  0
  8  9  1  0  0  0  0
 11 10  1  6  0  0  0
 11 12  1  0  0  0  0
 11 13  1  0  0  0  0
 12 14  1  6  0  0  0
 12 15  1  0  0  0  0
 14 16  1  0  0  0  0
 15 30  1  0  0  0  0
 16 17  1  0  0  0  0
 16 18  2  0  0  0  0
 17 19  1  0  0  0  0
 17 21  1  6  0  0  0
 19 20  2  0  0  0  0
 20 22  1  0  0  0  0
 20 24  1  0  0  0  0
 22 23  1  0  0  0  0
 22 25  1  1  0  0  0
 23 26  1  0  0  0  0
 23 63  1  1  0  0  0
 26 27  2  0  0  0  0
 26 28  1  0  0  0  0
 28 29  1  0  0  0  0
 28 60  1  6  0  0  0
 29 56  1  0  0  0  0
 30 31  2  0  0  0  0
 32 30  1  1  0  0  0
 32 33  1  0  0  0  0
 32 37  1  0  0  0  0
 33 34  1  0  0  0  0
 34 35  1  0  0  0  0
 35 36  1  0  0  0  0
 36 37  1  0  0  0  0
 37 38  1  0  0  0  0
 38 39  2  0  0  0  0
 38 40  1  0  0  0  0
 40 41  2  0  0  0  0
 40 42  1  0  0  0  0
 42 43  1  0  0  0  0
 42 47  1  0  0  0  0
 42 57  1  1  0  0  0
 43 44  1  0  0  0  0
 43 65  1  1  0  0  0
 44 45  1  0  0  0  0
 46 45  1  6  0  0  0
 46 47  1  0  0  0  0
 46 48  1  0  0  0  0
 48 49  1  0  0  0  0
 49 50  1  0  0  0  0
 49 61  1  1  0  0  0
 50 51  2  0  0  0  0
 50 58  1  0  0  0  0
 51 52  1  0  0  0  0
 52 53  2  0  0  0  0
 53 54  1  0  0  0  0
 54 55  2  0  0  0  0
 55 56  1  0  0  0  0
 56 59  1  6  0  0  0
 61 62  1  0  0  0  0
 63 64  1  0  0  0  0
M  END
