764134
 OpenBabel07281513532D

 40 42  0  0  0  0  0  0  0  0999 V2000
   -2.2649   -1.1155    0.0000 S   0  0  0  0  0  0  0  0  0  0  0  0
   -1.5719   -1.5155    0.0000 O   0  0  0  0  0  0  0  0  0  0  0  0
   -2.9569   -1.5155    0.0000 O   0  0  0  0  0  0  0  0  0  0  0  0
   -2.9569   -0.7155    0.0000 C   0  0  0  0  0  0  0  0  0  0  0  0
   -2.9569    0.0845    0.0000 C   0  0  0  0  0  0  0  0  0  0  0  0
   -3.6499    0.4844    0.0000 C   0  0  0  0  0  0  0  0  0  0  0  0
   -4.3429    0.0845    0.0000 C   0  0  0  0  0  0  0  0  0  0  0  0
   -4.3429   -0.7155    0.0000 C   0  0  0  0  0  0  0  0  0  0  0  0
   -3.6499   -1.1155    0.0000 C   0  0  0  0  0  0  0  0  0  0  0  0
   -3.6499   -1.9156    0.0000 F   0  0  0  0  0  0  0  0  0  0  0  0
   -2.2649    0.4844    0.0000 F   0  0  0  0  0  0  0  0  0  0  0  0
    3.2610   -0.5295    0.0000 C   0  0  0  0  0  0  0  0  0  0  0  0
    4.0340   -0.7376    0.0000 C   0  0  0  0  0  0  0  0  0  0  0  0
    3.8271    0.0355    0.0000 C   0  0  0  0  0  0  0  0  0  0  0  0
    3.4680   -1.3026    0.0000 C   0  0  0  0  0  0  0  0  0  0  0  0
    2.9910    1.7043    0.0000 C   0  0  0  0  0  0  0  0  0  0  0  0
    2.5910    2.3972    0.0000 S   0  0  0  0  0  0  0  0  0  0  0  0
    1.8982    1.9972    0.0000 O   0  0  0  0  0  0  0  0  0  0  0  0
    2.1910    3.0900    0.0000 O   0  0  0  0  0  0  0  0  0  0  0  0
    3.2839    2.7972    0.0000 O   0  0  0  0  0  0  0  0  0  0  0  0
   -0.8789   -1.1155    0.0000 C   0  0  0  0  0  0  0  0  0  0  0  0
   -0.8789   -1.9156    0.0000 C   0  0  0  0  0  0  0  0  0  0  0  0
   -0.1859   -2.3155    0.0000 C   0  0  0  0  0  0  0  0  0  0  0  0
    0.5071   -1.9156    0.0000 C   0  0  0  0  0  0  0  0  0  0  0  0
    0.5071   -1.1155    0.0000 C   0  0  0  0  0  0  0  0  0  0  0  0
   -0.1859   -0.7155    0.0000 C   0  0  0  0  0  0  0  0  0  0  0  0
    1.1990   -0.7155    0.0000 C   0  0  0  0  0  0  0  0  0  0  0  0
    1.9300   -1.0406    0.0000 N   0  0  0  0  0  0  0  0  0  0  0  0
    2.4660   -0.4466    0.0000 C   0  0  0  0  0  0  0  0  0  0  0  0
    2.0660    0.2464    0.0000 S   0  0  0  0  0  0  0  0  0  0  0  0
    1.2830    0.0805    0.0000 C   0  0  0  0  0  0  0  0  0  0  0  0
    0.6890    0.6154    0.0000 C   0  0  0  0  0  0  0  0  0  0  0  0
    0.8550    1.3973    0.0000 N   0  0  0  0  0  0  0  0  0  0  0  0
    0.2600    1.9333    0.0000 C   0  0  0  0  0  0  0  0  0  0  0  0
   -0.4999    1.6863    0.0000 N   0  0  0  0  0  0  0  0  0  0  0  0
   -0.6669    0.9033    0.0000 C   0  0  0  0  0  0  0  0  0  0  0  0
   -0.0719    0.3683    0.0000 C   0  0  0  0  0  0  0  0  0  0  0  0
    0.4271    2.7153    0.0000 N   0  0  0  0  0  0  0  0  0  0  0  0
   -0.1859    0.0845    0.0000 F   0  0  0  0  0  0  0  0  0  0  0  0
   -1.5719   -0.7155    0.0000 N   0  0  0  0  0  0  0  0  0  0  0  0
  1  2  2  0  0  0  0
  1  3  2  0  0  0  0
  1  4  1  0  0  0  0
  1 40  1  0  0  0  0
  4  5  2  0  0  0  0
  4  9  1  0  0  0  0
  5  6  1  0  0  0  0
  5 11  1  0  0  0  0
  6  7  2  0  0  0  0
  7  8  1  0  0  0  0
  8  9  2  0  0  0  0
  9 10  1  0  0  0  0
 12 13  1  0  0  0  0
 12 14  1  0  0  0  0
 12 15  1  0  0  0  0
 12 29  1  0  0  0  0
 16 17  1  0  0  0  0
 17 18  2  0  0  0  0
 17 19  2  0  0  0  0
 17 20  1  0  0  0  0
 21 22  2  0  0  0  0
 21 26  1  0  0  0  0
 21 40  1  0  0  0  0
 22 23  1  0  0  0  0
 23 24  2  0  0  0  0
 24 25  1  0  0  0  0
 25 26  2  0  0  0  0
 25 27  1  0  0  0  0
 26 39  1  0  0  0  0
 27 28  1  0  0  0  0
 27 31  2  0  0  0  0
 28 29  2  0  0  0  0
 29 30  1  0  0  0  0
 30 31  1  0  0  0  0
 31 32  1  0  0  0  0
 32 33  2  0  0  0  0
 32 37  1  0  0  0  0
 33 34  1  0  0  0  0
 34 35  2  0  0  0  0
 34 38  1  0  0  0  0
 35 36  1  0  0  0  0
 36 37  2  0  0  0  0
M  END
