180973
 OpenBabel07281513542D

 41 42  0  0  0  0  0  0  0  0999 V2000
  -14.4279   -3.0000    0.0000 O   0  0  0  0  0  0  0  0  0  0  0  0
   -9.2318   -6.0000    0.0000 C   0  0  0  0  0  0  0  0  0  0  0  0
   -7.9327   -5.2500    0.0000 C   0  0  0  0  0  0  0  0  0  0  0  0
   -6.6337   -6.0000    0.0000 C   0  0  0  0  0  0  0  0  0  0  0  0
  -12.5249  -12.9791    0.0000 C   0  0  0  0  0  0  0  0  0  0  0  0
  -11.0249  -12.9791    0.0000 C   0  0  0  0  0  0  0  0  0  0  0  0
  -14.0249  -12.9791    0.0000 C   0  0  0  0  0  0  0  0  0  0  0  0
  -11.8298   -3.0000    0.0000 C   0  0  0  0  0  0  0  0  0  0  0  0
  -13.1289   -3.7500    0.0000 C   0  0  0  0  0  0  0  0  0  0  0  0
  -10.5308   -3.7500    0.0000 C   0  0  0  0  0  0  0  0  0  0  0  0
  -10.5308   -5.2500    0.0000 C   0  0  0  0  0  0  0  0  0  0  0  0
  -13.1289   -5.2500    0.0000 C   0  0  0  0  0  0  0  0  0  0  0  0
  -11.8298   -6.0000    0.0000 C   0  0  0  0  0  0  0  0  0  0  0  0
  -12.5249  -11.4791    0.0000 O   0  0  0  0  0  0  0  0  0  0  0  0
  -12.5249  -14.4791    0.0000 C   0  0  0  0  0  0  0  0  0  0  0  0
  -11.2259  -15.2291    0.0000 O   0  0  0  0  0  0  0  0  0  0  0  0
  -13.8240  -15.2291    0.0000 O   0  0  0  0  0  0  0  0  0  0  0  0
  -14.5380  -11.5695    0.0000 C   0  0  0  0  0  0  0  0  0  0  0  0
  -13.5738  -10.4205    0.0000 O   0  0  0  0  0  0  0  0  0  0  0  0
  -16.0152  -11.3091    0.0000 O   0  0  0  0  0  0  0  0  0  0  0  0
  -10.5119  -11.5696    0.0000 C   0  0  0  0  0  0  0  0  0  0  0  0
   -9.0347  -11.3091    0.0000 O   0  0  0  0  0  0  0  0  0  0  0  0
  -11.4760  -10.4205    0.0000 O   0  0  0  0  0  0  0  0  0  0  0  0
   -7.9327   -3.7500    0.0000 C   0  0  0  0  0  0  0  0  0  0  0  0
   -6.6337   -3.0000    0.0000 C   0  0  0  0  0  0  0  0  0  0  0  0
   -6.6337   -1.5000    0.0000 C   0  0  0  0  0  0  0  0  0  0  0  0
   -7.9327   -0.7500    0.0000 C   0  0  0  0  0  0  0  0  0  0  0  0
   -9.2318   -1.5000    0.0000 C   0  0  0  0  0  0  0  0  0  0  0  0
   -9.2318   -3.0000    0.0000 C   0  0  0  0  0  0  0  0  0  0  0  0
   -9.2318   -7.5000    0.0000 C   0  0  0  0  0  0  0  0  0  0  0  0
  -10.5308   -8.2500    0.0000 C   0  0  0  0  0  0  0  0  0  0  0  0
  -10.5308   -9.7500    0.0000 C   0  0  0  0  0  0  0  0  0  0  0  0
   -9.2318  -10.5000    0.0000 C   0  0  0  0  0  0  0  0  0  0  0  0
   -7.9327   -9.7500    0.0000 C   0  0  0  0  0  0  0  0  0  0  0  0
   -7.9327   -8.2500    0.0000 C   0  0  0  0  0  0  0  0  0  0  0  0
   -5.3346   -5.2500    0.0000 C   0  0  0  0  0  0  0  0  0  0  0  0
  -15.7270   -3.7500    0.0000 C   0  0  0  0  0  0  0  0  0  0  0  0
  -17.0260   -3.0000    0.0000 C   0  0  0  0  0  0  0  0  0  0  0  0
  -18.3250   -3.7500    0.0000 N   0  0  0  0  0  0  0  0  0  0  0  0
  -19.6241   -3.0000    0.0000 C   0  0  0  0  0  0  0  0  0  0  0  0
  -18.3250   -5.2500    0.0000 C   0  0  0  0  0  0  0  0  0  0  0  0
  1  9  1  0  0  0  0
  1 37  1  0  0  0  0
  2  3  2  0  0  0  0
  2 11  1  0  0  0  0
  2 30  1  0  0  0  0
  3  4  1  0  0  0  0
  3 24  1  0  0  0  0
  4 36  1  0  0  0  0
  5 14  1  0  0  0  0
  5 15  1  0  0  0  0
  5  6  1  0  0  0  0
  5  7  1  0  0  0  0
  6 21  1  0  0  0  0
  7 18  1  0  0  0  0
  8 10  2  0  0  0  0
  8  9  1  0  0  0  0
  9 12  2  0  0  0  0
 10 11  1  0  0  0  0
 11 13  2  0  0  0  0
 12 13  1  0  0  0  0
 15 16  2  0  0  0  0
 15 17  1  0  0  0  0
 18 19  2  0  0  0  0
 18 20  1  0  0  0  0
 21 22  2  0  0  0  0
 21 23  1  0  0  0  0
 24 25  2  0  0  0  0
 24 29  1  0  0  0  0
 25 26  1  0  0  0  0
 26 27  2  0  0  0  0
 27 28  1  0  0  0  0
 28 29  2  0  0  0  0
 30 31  2  0  0  0  0
 30 35  1  0  0  0  0
 31 32  1  0  0  0  0
 32 33  2  0  0  0  0
 33 34  1  0  0  0  0
 34 35  2  0  0  0  0
 37 38  1  0  0  0  0
 38 39  1  0  0  0  0
 39 40  1  0  0  0  0
 39 41  1  0  0  0  0
M  END
