67574
 OpenBabel07281513532D

 67 74  0  0  1  0  0  0  0  0999 V2000
    9.9956  -10.7302    0.0000 N   0  0  0  0  0  0  0  0  0  0  0  0
    3.4051   -3.1671    0.0000 N   0  0  3  0  0  0  0  0  0  0  0  0
   11.2654  -11.7584    0.0000 H   0  0  0  0  0  0  0  0  0  0  0  0
   12.7212   -6.5166    0.0000 N   0  0  3  0  0  0  0  0  0  0  0  0
   12.7212   -9.5166    0.0000 H   0  0  0  0  0  0  0  0  0  0  0  0
    2.0391   -3.7867    0.0000 C   0  0  0  0  0  0  0  0  0  0  0  0
    1.9554   -5.2844    0.0000 C   0  0  1  0  0  0  0  0  0  0  0  0
    3.2438   -6.0524    0.0000 C   0  0  0  0  0  0  0  0  0  0  0  0
    4.6918   -5.5869    0.0000 C   0  0  2  0  0  0  0  0  0  0  0  0
    6.0400   -6.2444    0.0000 C   0  0  0  0  0  0  0  0  0  0  0  0
    7.2835   -5.4056    0.0000 C   0  0  1  0  0  0  0  0  0  0  0  0
    7.1789   -3.9093    0.0000 C   0  0  0  0  0  0  0  0  0  0  0  0
    3.9182   -1.7575    0.0000 C   0  0  0  0  0  0  0  0  0  0  0  0
    5.4172   -1.8098    0.0000 C   0  0  0  0  0  0  0  0  0  0  0  0
    5.8307   -3.2517    0.0000 C   0  0  0  0  0  0  0  0  0  0  0  0
    6.0395   -1.7663    0.0000 C   0  0  0  0  0  0  0  0  0  0  0  0
    5.0753   -0.6173    0.0000 C   0  0  0  0  0  0  0  0  0  0  0  0
    5.5883    0.7923    0.0000 C   0  0  0  0  0  0  0  0  0  0  0  0
    7.5167   -1.5059    0.0000 C   0  0  0  0  0  0  0  0  0  0  0  0
    7.0655    1.0528    0.0000 C   0  0  0  0  0  0  0  0  0  0  0  0
    8.0297   -0.0963    0.0000 C   0  0  0  0  0  0  0  0  0  0  0  0
   14.0202   -5.7666    0.0000 C   0  0  0  0  0  0  0  0  0  0  0  0
   15.3193   -6.5166    0.0000 C   0  0  0  0  0  0  0  0  0  0  0  0
   15.3193   -8.0166    0.0000 C   0  0  0  0  0  0  0  0  0  0  0  0
   14.0202   -8.7666    0.0000 C   0  0  2  0  0  0  0  0  0  0  0  0
   12.7212   -8.0166    0.0000 C   0  0  1  0  0  0  0  0  0  0  0  0
   11.1115   -6.4069    0.0000 C   0  0  0  0  0  0  0  0  0  0  0  0
   10.3615   -7.7059    0.0000 C   0  0  0  0  0  0  0  0  0  0  0  0
   11.4222   -8.7666    0.0000 C   0  0  2  0  0  0  0  0  0  0  0  0
   14.0202  -10.2666    0.0000 C   0  0  2  0  0  0  0  0  0  0  0  0
   11.4222  -10.2666    0.0000 C   0  0  2  0  0  0  0  0  0  0  0  0
    9.9956   -8.3031    0.0000 C   0  0  0  0  0  0  0  0  0  0  0  0
    9.3854   -6.9328    0.0000 C   0  0  0  0  0  0  0  0  0  0  0  0
    7.8936   -6.7760    0.0000 C   0  0  0  0  0  0  0  0  0  0  0  0
    9.1139   -9.5166    0.0000 C   0  0  0  0  0  0  0  0  0  0  0  0
    7.0120   -7.9895    0.0000 C   0  0  0  0  0  0  0  0  0  0  0  0
   12.7212  -11.0166    0.0000 C   0  0  2  0  0  0  0  0  0  0  0  0
    7.6221   -9.3598    0.0000 C   0  0  0  0  0  0  0  0  0  0  0  0
    4.5871   -4.0905    0.0000 C   0  0  0  0  0  0  0  0  0  0  0  0
    5.5202   -7.8327    0.0000 O   0  0  0  0  0  0  0  0  0  0  0  0
    4.6385   -9.0462    0.0000 C   0  0  0  0  0  0  0  0  0  0  0  0
   11.7570  -12.1657    0.0000 O   0  0  0  0  0  0  0  0  0  0  0  0
    1.4032   -6.6790    0.0000 C   0  0  0  0  0  0  0  0  0  0  0  0
   -0.0807   -6.8982    0.0000 C   0  0  0  0  0  0  0  0  0  0  0  0
    0.4904   -4.9623    0.0000 O   0  0  0  0  0  0  0  0  0  0  0  0
   15.3193   -9.5166    0.0000 C   0  0  0  0  0  0  0  0  0  0  0  0
   16.6183   -8.7666    0.0000 C   0  0  0  0  0  0  0  0  0  0  0  0
   15.3193  -11.0166    0.0000 O   0  0  0  0  0  0  0  0  0  0  0  0
   16.7965  -10.7561    0.0000 C   0  0  0  0  0  0  0  0  0  0  0  0
   17.7607  -11.9052    0.0000 O   0  0  0  0  0  0  0  0  0  0  0  0
   17.3095   -9.3466    0.0000 C   0  0  0  0  0  0  0  0  0  0  0  0
   17.1119   -1.9007    0.0000 S   0  0  0  0  0  0  0  0  0  0  0  0
   18.4110   -2.6507    0.0000 O   0  0  0  0  0  0  0  0  0  0  0  0
   17.8619   -0.6017    0.0000 O   0  0  0  0  0  0  0  0  0  0  0  0
   15.8129   -1.1507    0.0000 O   0  0  0  0  0  0  0  0  0  0  0  0
   16.3619   -3.1998    0.0000 O   0  0  0  0  0  0  0  0  0  0  0  0
   13.6854  -12.1657    0.0000 C   0  0  0  0  0  0  0  0  0  0  0  0
   15.1626  -11.9052    0.0000 O   0  0  0  0  0  0  0  0  0  0  0  0
   13.1724  -13.5752    0.0000 O   0  0  0  0  0  0  0  0  0  0  0  0
   11.6951  -13.8357    0.0000 C   0  0  0  0  0  0  0  0  0  0  0  0
    8.7390   -5.0428    0.0000 C   0  0  0  0  0  0  0  0  0  0  0  0
    9.7810   -6.1218    0.0000 O   0  0  0  0  0  0  0  0  0  0  0  0
    9.1524   -3.6009    0.0000 O   0  0  0  0  0  0  0  0  0  0  0  0
   10.6079   -3.2380    0.0000 C   0  0  0  0  0  0  0  0  0  0  0  0
    8.2209   -2.8303    0.0000 N   0  0  0  0  0  0  0  0  0  0  0  0
    9.5320  -12.1567    0.0000 C   0  0  0  0  0  0  0  0  0  0  0  0
    8.0648  -12.4686    0.0000 O   0  0  0  0  0  0  0  0  0  0  0  0
  1 31  1  0  0  0  0
  1 35  1  0  0  0  0
  1 66  1  0  0  0  0
  2  6  1  0  0  0  0
  2 13  1  0  0  0  0
  4 22  1  0  0  0  0
  4 27  1  0  0  0  0
  4 26  1  0  0  0  0
  6  7  1  0  0  0  0
  7  8  1  0  0  0  0
  7 43  1  1  0  0  0
  7 45  1  0  0  0  0
  9  8  1  1  0  0  0
  9 39  1  0  0  0  0
  9 10  1  0  0  0  0
 10 11  1  0  0  0  0
 11 34  1  1  0  0  0
 11 12  1  0  0  0  0
 11 61  1  0  0  0  0
 12 15  2  0  0  0  0
 12 65  1  0  0  0  0
 13 14  1  0  0  0  0
 14 15  1  0  0  0  0
 15 16  1  0  0  0  0
 16 19  2  0  0  0  0
 16 17  1  0  0  0  0
 17 18  2  0  0  0  0
 18 20  1  0  0  0  0
 19 21  1  0  0  0  0
 19 65  1  0  0  0  0
 20 21  2  0  0  0  0
 22 23  1  0  0  0  0
 23 24  2  0  0  0  0
 24 25  1  0  0  0  0
 25 26  1  0  0  0  0
 25 30  1  0  0  0  0
 25 46  1  6  0  0  0
 26  5  1  6  0  0  0
 26 29  1  0  0  0  0
 27 28  1  0  0  0  0
 29 28  1  1  0  0  0
 29 31  1  0  0  0  0
 29 32  1  0  0  0  0
 30 37  1  0  0  0  0
 30 48  1  1  0  0  0
 31  3  1  1  0  0  0
 31 37  1  0  0  0  0
 32 35  2  0  0  0  0
 32 33  1  0  0  0  0
 33 34  2  0  0  0  0
 34 36  1  0  0  0  0
 35 38  1  0  0  0  0
 36 38  2  0  0  0  0
 36 40  1  0  0  0  0
 37 42  1  1  0  0  0
 37 57  1  0  0  0  0
 39  2  1  0  0  0  0
 40 41  1  0  0  0  0
 43 44  1  0  0  0  0
 46 47  1  0  0  0  0
 48 49  1  0  0  0  0
 49 50  2  0  0  0  0
 49 51  1  0  0  0  0
 52 53  2  0  0  0  0
 52 54  1  0  0  0  0
 52 55  2  0  0  0  0
 52 56  1  0  0  0  0
 57 58  2  0  0  0  0
 57 59  1  0  0  0  0
 59 60  1  0  0  0  0
 61 62  2  0  0  0  0
 61 63  1  0  0  0  0
 63 64  1  0  0  0  0
 66 67  2  0  0  0  0
M  END
