123127
 OpenBabel07281513532D

 40 43  0  0  1  0  0  0  0  0999 V2000
  -11.1423   -7.5796    0.0000 O   0  0  0  0  0  0  0  0  0  0  0  0
  -11.1423   -1.5796    0.0000 O   0  0  0  0  0  0  0  0  0  0  0  0
   -4.6471   -9.8296    0.0000 O   0  0  0  0  0  0  0  0  0  0  0  0
   -5.9462   -7.5796    0.0000 O   0  0  0  0  0  0  0  0  0  0  0  0
   -4.1341   -2.4200    0.0000 C   0  0  0  0  0  0  0  0  0  0  0  0
   -2.6569   -2.1595    0.0000 C   0  0  0  0  0  0  0  0  0  0  0  0
   -8.5442   -3.0796    0.0000 C   0  0  0  0  0  0  0  0  0  0  0  0
   -7.2452   -3.8296    0.0000 C   0  0  0  0  0  0  0  0  0  0  0  0
   -4.6471   -3.8296    0.0000 C   0  0  2  0  0  0  0  0  0  0  0  0
   -5.9462   -3.0796    0.0000 C   0  0  0  0  0  0  0  0  0  0  0  0
   -9.8433   -3.8296    0.0000 C   0  0  0  0  0  0  0  0  0  0  0  0
  -11.1423   -3.0796    0.0000 C   0  0  0  0  0  0  0  0  0  0  0  0
  -12.4414   -3.8296    0.0000 C   0  0  0  0  0  0  0  0  0  0  0  0
  -13.7404   -3.0796    0.0000 C   0  0  0  0  0  0  0  0  0  0  0  0
  -15.0394   -3.8296    0.0000 C   0  0  0  0  0  0  0  0  0  0  0  0
   -4.6471   -5.3296    0.0000 C   0  0  0  0  0  0  0  0  0  0  0  0
   -7.2452   -5.3296    0.0000 C   0  0  0  0  0  0  0  0  0  0  0  0
   -9.8433   -5.3296    0.0000 C   0  0  0  0  0  0  0  0  0  0  0  0
  -12.4414   -5.3296    0.0000 C   0  0  0  0  0  0  0  0  0  0  0  0
  -15.0394   -5.3296    0.0000 C   0  0  0  0  0  0  0  0  0  0  0  0
   -5.9462   -6.0796    0.0000 C   0  0  1  0  0  0  0  0  0  0  0  0
   -8.5442   -6.0796    0.0000 C   0  0  0  0  0  0  0  0  0  0  0  0
  -11.1423   -6.0796    0.0000 C   0  0  0  0  0  0  0  0  0  0  0  0
  -13.7404   -6.0796    0.0000 C   0  0  0  0  0  0  0  0  0  0  0  0
   -4.6471   -8.3296    0.0000 C   0  0  3  0  0  0  0  0  0  0  0  0
   -3.3481   -7.5796    0.0000 C   0  0  0  0  0  0  0  0  0  0  0  0
   -2.0490   -8.3296    0.0000 C   0  0  3  0  0  0  0  0  0  0  0  0
   -3.3481  -10.5796    0.0000 C   0  0  3  0  0  0  0  0  0  0  0  0
   -2.0490   -9.8296    0.0000 C   0  0  3  0  0  0  0  0  0  0  0  0
  -13.7404   -7.5796    0.0000 O   0  0  0  0  0  0  0  0  0  0  0  0
  -15.0394   -8.3296    0.0000 C   0  0  0  0  0  0  0  0  0  0  0  0
   -0.7500  -10.5795    0.0000 O   0  0  0  0  0  0  0  0  0  0  0  0
   -8.5442   -7.5796    0.0000 O   0  0  0  0  0  0  0  0  0  0  0  0
   -8.5442   -1.5796    0.0000 O   0  0  0  0  0  0  0  0  0  0  0  0
   -3.3481   -9.0796    0.0000 C   0  0  0  0  0  0  0  0  0  0  0  0
   -0.7500   -7.5795    0.0000 N   0  0  0  0  0  0  0  0  0  0  0  0
   -3.1699   -4.0900    0.0000 O   0  0  0  0  0  0  0  0  0  0  0  0
   -2.1439   -0.7500    0.0000 O   0  0  0  0  0  0  0  0  0  0  0  0
   -5.0983   -1.2710    0.0000 O   0  0  0  0  0  0  0  0  0  0  0  0
   -7.8947  -12.0796    0.0000 Cl  0  0  0  0  0  0  0  0  0  0  0  0
  1 23  2  0  0  0  0
  2 12  2  0  0  0  0
  3 25  1  0  0  0  0
  3 28  1  0  0  0  0
  4 25  1  0  0  0  0
  5 39  2  0  0  0  0
  5  6  1  0  0  0  0
  6 38  1  0  0  0  0
  7  8  2  0  0  0  0
  7 11  1  0  0  0  0
  7 34  1  0  0  0  0
  8 10  1  0  0  0  0
  8 17  1  0  0  0  0
  9  5  1  1  0  0  0
  9 10  1  0  0  0  0
  9 16  1  0  0  0  0
  9 37  1  0  0  0  0
 11 18  2  0  0  0  0
 11 12  1  0  0  0  0
 12 13  1  0  0  0  0
 13 19  2  0  0  0  0
 13 14  1  0  0  0  0
 14 15  2  0  0  0  0
 15 20  1  0  0  0  0
 16 21  1  0  0  0  0
 17 22  2  0  0  0  0
 17 21  1  0  0  0  0
 18 22  1  0  0  0  0
 18 23  1  0  0  0  0
 19 23  1  0  0  0  0
 19 24  1  0  0  0  0
 20 24  2  0  0  0  0
 21  4  1  6  0  0  0
 22 33  1  0  0  0  0
 24 30  1  0  0  0  0
 25 26  1  0  0  0  0
 26 27  1  0  0  0  0
 27 29  1  0  0  0  0
 27 36  1  0  0  0  0
 28 29  1  0  0  0  0
 28 35  1  0  0  0  0
 29 32  1  0  0  0  0
 30 31  1  0  0  0  0
M  END
