761068
 OpenBabel07281513532D

 37 41  0  0  0  0  0  0  0  0999 V2000
   -4.1381    1.9942    0.0000 C   0  0  0  0  0  0  0  0  0  0  0  0
   -4.1381    1.1942    0.0000 C   0  0  0  0  0  0  0  0  0  0  0  0
   -3.4450    0.7942    0.0000 C   0  0  0  0  0  0  0  0  0  0  0  0
   -2.7520    1.1942    0.0000 C   0  0  0  0  0  0  0  0  0  0  0  0
   -2.7520    1.9942    0.0000 C   0  0  0  0  0  0  0  0  0  0  0  0
   -3.4450    2.3942    0.0000 C   0  0  0  0  0  0  0  0  0  0  0  0
   -2.0600    0.7942    0.0000 C   0  0  0  0  0  0  0  0  0  0  0  0
   -1.3670    1.1942    0.0000 C   0  0  0  0  0  0  0  0  0  0  0  0
   -1.3670    1.9942    0.0000 C   0  0  0  0  0  0  0  0  0  0  0  0
   -2.0600    2.3942    0.0000 N   0  0  0  0  0  0  0  0  0  0  0  0
   -2.0600   -0.0058    0.0000 O   0  0  0  0  0  0  0  0  0  0  0  0
   -1.3670   -0.4057    0.0000 C   0  0  0  0  0  0  0  0  0  0  0  0
   -1.3670   -1.2057    0.0000 C   0  0  0  0  0  0  0  0  0  0  0  0
   -0.6740   -1.6057    0.0000 C   0  0  0  0  0  0  0  0  0  0  0  0
    0.0189   -1.2057    0.0000 C   0  0  0  0  0  0  0  0  0  0  0  0
    0.0189   -0.4057    0.0000 C   0  0  0  0  0  0  0  0  0  0  0  0
   -0.6740   -0.0058    0.0000 C   0  0  0  0  0  0  0  0  0  0  0  0
    1.4038   -1.2057    0.0000 C   0  0  0  0  0  0  0  0  0  0  0  0
    1.4038   -0.4057    0.0000 O   0  0  0  0  0  0  0  0  0  0  0  0
    2.7899   -1.2057    0.0000 C   0  0  0  0  0  0  0  0  0  0  0  0
    2.7899   -0.4057    0.0000 O   0  0  0  0  0  0  0  0  0  0  0  0
    2.0968   -1.6057    0.0000 C   0  0  0  0  0  0  0  0  0  0  0  0
    1.6949   -2.3018    0.0000 C   0  0  0  0  0  0  0  0  0  0  0  0
    2.4989   -2.2968    0.0000 C   0  0  0  0  0  0  0  0  0  0  0  0
    4.1759   -1.2057    0.0000 C   0  0  0  0  0  0  0  0  0  0  0  0
    4.8688   -1.6057    0.0000 C   0  0  0  0  0  0  0  0  0  0  0  0
    5.5609   -1.2057    0.0000 C   0  0  0  0  0  0  0  0  0  0  0  0
    5.5609   -0.4057    0.0000 C   0  0  0  0  0  0  0  0  0  0  0  0
    4.8688   -0.0058    0.0000 C   0  0  0  0  0  0  0  0  0  0  0  0
    4.1759   -0.4057    0.0000 C   0  0  0  0  0  0  0  0  0  0  0  0
    6.2538   -0.0058    0.0000 F   0  0  0  0  0  0  0  0  0  0  0  0
    0.7119   -1.6057    0.0000 N   0  0  0  0  0  0  0  0  0  0  0  0
    3.4829   -1.6057    0.0000 N   0  0  0  0  0  0  0  0  0  0  0  0
   -4.8310    2.3942    0.0000 O   0  0  0  0  0  0  0  0  0  0  0  0
   -5.5238    1.9941    0.0000 C   0  0  0  0  0  0  0  0  0  0  0  0
   -4.8310    0.7942    0.0000 O   0  0  0  0  0  0  0  0  0  0  0  0
   -5.5238    1.1942    0.0000 C   0  0  0  0  0  0  0  0  0  0  0  0
  1  2  2  0  0  0  0
  1  6  1  0  0  0  0
  1 34  1  0  0  0  0
  2  3  1  0  0  0  0
  2 36  1  0  0  0  0
  3  4  2  0  0  0  0
  4  5  1  0  0  0  0
  4  7  1  0  0  0  0
  5  6  2  0  0  0  0
  5 10  1  0  0  0  0
  7  8  2  0  0  0  0
  7 11  1  0  0  0  0
  8  9  1  0  0  0  0
  9 10  2  0  0  0  0
 11 12  1  0  0  0  0
 12 13  2  0  0  0  0
 12 17  1  0  0  0  0
 13 14  1  0  0  0  0
 14 15  2  0  0  0  0
 15 16  1  0  0  0  0
 15 32  1  0  0  0  0
 16 17  2  0  0  0  0
 18 19  2  0  0  0  0
 18 22  1  0  0  0  0
 18 32  1  0  0  0  0
 20 21  2  0  0  0  0
 20 22  1  0  0  0  0
 20 33  1  0  0  0  0
 22 23  1  0  0  0  0
 22 24  1  0  0  0  0
 23 24  1  0  0  0  0
 25 26  2  0  0  0  0
 25 30  1  0  0  0  0
 25 33  1  0  0  0  0
 26 27  1  0  0  0  0
 27 28  2  0  0  0  0
 28 29  1  0  0  0  0
 28 31  1  0  0  0  0
 29 30  2  0  0  0  0
 34 35  1  0  0  0  0
 36 37  1  0  0  0  0
M  END
