609699
 OpenBabel07281513542D

 32 35  0  0  1  0  0  0  0  0999 V2000
   13.7317    4.5772    0.0000 C   0  0  0  0  0  0  0  0  0  0  0  0
   13.7317    6.0772    0.0000 O   0  0  0  0  0  0  0  0  0  0  0  0
   12.4327    6.8272    0.0000 C   0  0  0  0  0  0  0  0  0  0  0  0
   11.1336    6.0772    0.0000 C   0  0  0  0  0  0  0  0  0  0  0  0
   11.1336    4.5772    0.0000 C   0  0  0  0  0  0  0  0  0  0  0  0
   12.4327    3.8272    0.0000 C   0  0  2  0  0  0  0  0  0  0  0  0
    8.5356    6.0772    0.0000 N   0  0  0  0  0  0  0  0  0  0  0  0
    8.5355    4.5772    0.0000 C   0  0  0  0  0  0  0  0  0  0  0  0
    9.8346    3.8272    0.0000 C   0  0  0  0  0  0  0  0  0  0  0  0
    7.1090    4.1137    0.0000 C   0  0  0  0  0  0  0  0  0  0  0  0
    6.2273    5.3272    0.0000 C   0  0  0  0  0  0  0  0  0  0  0  0
    7.1090    6.5407    0.0000 C   0  0  0  0  0  0  0  0  0  0  0  0
    4.7355    5.1704    0.0000 C   0  0  0  0  0  0  0  0  0  0  0  0
    4.1254    3.8001    0.0000 C   0  0  0  0  0  0  0  0  0  0  0  0
    5.0071    2.5866    0.0000 C   0  0  0  0  0  0  0  0  0  0  0  0
    6.4988    2.7434    0.0000 N   0  0  0  0  0  0  0  0  0  0  0  0
    2.6336    3.6433    0.0000 C   0  0  0  0  0  0  0  0  0  0  0  0
    2.0235    2.2730    0.0000 C   0  0  0  0  0  0  0  0  0  0  0  0
    2.9052    1.0595    0.0000 C   0  0  0  0  0  0  0  0  0  0  0  0
    4.3970    1.2163    0.0000 C   0  0  0  0  0  0  0  0  0  0  0  0
   15.0307    3.8272    0.0000 O   0  0  0  0  0  0  0  0  0  0  0  0
   13.3969    2.6781    0.0000 O   0  0  0  0  0  0  0  0  0  0  0  0
   11.4685    2.6781    0.0000 C   0  0  0  0  0  0  0  0  0  0  0  0
    9.9913    2.9386    0.0000 C   0  0  0  0  0  0  0  0  0  0  0  0
    9.8346    8.3272    0.0000 O   0  0  0  0  0  0  0  0  0  0  0  0
    9.8346    6.8272    0.0000 C   0  0  0  0  0  0  0  0  0  0  0  0
    1.7519    4.8568    0.0000 C   0  0  0  0  0  0  0  0  0  0  0  0
    2.3620    6.2272    0.0000 N   0  0  0  0  0  0  0  0  0  0  0  0
    0.5317    2.1162    0.0000 O   0  0  0  0  0  0  0  0  0  0  0  0
    1.4804    7.4407    0.0000 C   0  0  0  0  0  0  0  0  0  0  0  0
    3.8538    6.3840    0.0000 C   0  0  0  0  0  0  0  0  0  0  0  0
    7.0902    9.5470    0.0000 Cl  0  0  0  0  0  0  0  0  0  0  0  0
  1  2  1  0  0  0  0
  1  6  1  0  0  0  0
  1 21  2  0  0  0  0
  2  3  1  0  0  0  0
  3  4  1  0  0  0  0
  4  5  2  0  0  0  0
  4 26  1  0  0  0  0
  5  6  1  0  0  0  0
  5  9  1  0  0  0  0
  6 22  1  1  0  0  0
  6 23  1  0  0  0  0
  7  8  1  0  0  0  0
  7 12  1  0  0  0  0
  7 26  1  0  0  0  0
  8  9  2  0  0  0  0
  8 10  1  0  0  0  0
 10 11  2  0  0  0  0
 10 16  1  0  0  0  0
 11 12  1  0  0  0  0
 11 13  1  0  0  0  0
 13 14  2  0  0  0  0
 14 15  1  0  0  0  0
 14 17  1  0  0  0  0
 15 16  2  0  0  0  0
 15 20  1  0  0  0  0
 17 18  2  0  0  0  0
 17 27  1  0  0  0  0
 18 19  1  0  0  0  0
 18 29  1  0  0  0  0
 19 20  2  0  0  0  0
 23 24  1  0  0  0  0
 25 26  2  0  0  0  0
 27 28  1  0  0  0  0
 28 30  1  0  0  0  0
 28 31  1  0  0  0  0
M  END
