733504
 OpenBabel07281513532D

 68 71  0  0  1  0  0  0  0  0999 V2000
   -4.2674   -6.3212    0.0000 C   0  0  0  0  0  0  0  0  0  0  0  0
   -3.1172   -7.2840    0.0000 C   0  0  0  0  0  0  0  0  0  0  0  0
   -1.7083   -6.7693    0.0000 N   0  0  0  0  0  0  0  0  0  0  0  0
   -1.4496   -5.2918    0.0000 C   0  0  1  0  0  0  0  0  0  0  0  0
   -2.5998   -4.3290    0.0000 C   0  0  0  0  0  0  0  0  0  0  0  0
   -4.0087   -4.8437    0.0000 C   0  0  0  0  0  0  0  0  0  0  0  0
   -0.8793   -3.9044    0.0000 C   0  0  0  0  0  0  0  0  0  0  0  0
   -0.0241   -2.6721    0.0000 O   0  0  0  0  0  0  0  0  0  0  0  0
    1.0760   -1.6524    0.0000 C   0  0  2  0  0  0  0  0  0  0  0  0
    0.1813   -0.4485    0.0000 C   0  0  1  0  0  0  0  0  0  0  0  0
    0.7765    0.9284    0.0000 C   0  0  0  0  0  0  0  0  0  0  0  0
   -0.1183    2.1323    0.0000 C   0  0  2  0  0  0  0  0  0  0  0  0
    0.4770    3.5091    0.0000 C   0  0  0  0  0  0  0  0  0  0  0  0
   -0.4178    4.7130    0.0000 C   0  0  0  0  0  0  0  0  0  0  0  0
   -1.9078    4.5401    0.0000 C   0  0  2  0  0  0  0  0  0  0  0  0
   -2.5030    3.1633    0.0000 C   0  0  1  0  0  0  0  0  0  0  0  0
   -1.6083    1.9593    0.0000 C   0  0  0  0  0  0  0  0  0  0  0  0
   -3.9930    2.9903    0.0000 O   0  0  0  0  0  0  0  0  0  0  0  0
   -4.8878    4.1942    0.0000 C   0  0  0  0  0  0  0  0  0  0  0  0
   -2.8025    5.7440    0.0000 O   0  0  0  0  0  0  0  0  0  0  0  0
   -4.2925    5.5711    0.0000 C   0  0  0  0  0  0  0  0  0  0  0  0
   -5.1873    6.7750    0.0000 C   0  0  0  0  0  0  0  0  0  0  0  0
   -6.6773    6.6021    0.0000 O   0  0  0  0  0  0  0  0  0  0  0  0
   -2.1968   -3.1875    0.0000 O   0  0  0  0  0  0  0  0  0  0  0  0
    2.3696   -0.8930    0.0000 C   0  0  0  0  0  0  0  0  0  0  0  0
    3.7962   -0.4295    0.0000 C   0  0  0  0  0  0  0  0  0  0  0  0
    5.2891   -0.2835    0.0000 C   0  0  1  0  0  0  0  0  0  0  0  0
    3.4897    1.0388    0.0000 O   0  0  0  0  0  0  0  0  0  0  0  0
    6.7236   -0.6989    0.0000 C   0  0  0  0  0  0  0  0  0  0  0  0
    9.4715   -1.7434    0.0000 C   0  0  1  0  0  0  0  0  0  0  0  0
   10.3921   -0.5592    0.0000 O   0  0  0  0  0  0  0  0  0  0  0  0
   10.5492   -2.7867    0.0000 C   0  0  2  0  0  0  0  0  0  0  0  0
   11.3775   -4.0373    0.0000 C   0  0  0  0  0  0  0  0  0  0  0  0
   12.7103   -3.3490    0.0000 O   0  0  0  0  0  0  0  0  0  0  0  0
   11.7029   -1.8280    0.0000 O   0  0  0  0  0  0  0  0  0  0  0  0
   13.1100   -2.3479    0.0000 C   0  0  0  0  0  0  0  0  0  0  0  0
   -1.6433   -8.2682    0.0000 C   0  0  0  0  0  0  0  0  0  0  0  0
   -3.1261   -8.4948    0.0000 O   0  0  0  0  0  0  0  0  0  0  0  0
   -1.2576   -9.7177    0.0000 C   0  0  0  0  0  0  0  0  0  0  0  0
   -2.6570  -10.2579    0.0000 O   0  0  0  0  0  0  0  0  0  0  0  0
   -0.5694  -11.0505    0.0000 C   0  0  1  0  0  0  0  0  0  0  0  0
   -1.6127  -12.1283    0.0000 C   0  0  1  0  0  0  0  0  0  0  0  0
   -1.2009  -13.5707    0.0000 C   0  0  0  0  0  0  0  0  0  0  0  0
    0.2541  -13.9353    0.0000 C   0  0  0  0  0  0  0  0  0  0  0  0
    1.1009  -11.4691    0.0000 O   0  0  0  0  0  0  0  0  0  0  0  0
   12.0468   -8.4163    0.0000 C   0  0  2  0  0  0  0  0  0  0  0  0
   12.1442   -6.9194    0.0000 C   0  0  0  0  0  0  0  0  0  0  0  0
   11.9176   -5.4367    0.0000 C   0  0  1  0  0  0  0  0  0  0  0  0
   13.5243   -8.6750    0.0000 C   0  0  0  0  0  0  0  0  0  0  0  0
    0.3619   -9.8746    0.0000 O   0  0  0  0  0  0  0  0  0  0  0  0
    5.3053    1.2164    0.0000 C   0  0  0  0  0  0  0  0  0  0  0  0
   -1.3087   -0.6214    0.0000 C   0  0  0  0  0  0  0  0  0  0  0  0
    8.1947   -0.9562    0.0000 C   0  0  0  0  0  0  0  0  0  0  0  0
    8.8392    0.3983    0.0000 C   0  0  0  0  0  0  0  0  0  0  0  0
    1.5735  -13.1248    0.0000 C   0  0  2  0  0  0  0  0  0  0  0  0
    2.9280  -13.7693    0.0000 C   0  0  0  0  0  0  0  0  0  0  0  0
    4.3893  -14.1076    0.0000 C   0  0  1  0  0  0  0  0  0  0  0  0
    5.8893  -14.1239    0.0000 C   0  0  0  0  0  0  0  0  0  0  0  0
    7.2824  -13.5859    0.0000 C   0  0  0  0  0  0  0  0  0  0  0  0
    8.7257  -13.2022    0.0000 C   0  0  0  0  0  0  0  0  0  0  0  0
    9.7091  -12.0695    0.0000 C   0  0  0  0  0  0  0  0  0  0  0  0
   10.9130  -11.1748    0.0000 C   0  0  0  0  0  0  0  0  0  0  0  0
   11.3299   -9.7339    0.0000 C   0  0  0  0  0  0  0  0  0  0  0  0
    6.0353  -15.6167    0.0000 C   0  0  0  0  0  0  0  0  0  0  0  0
    4.2110  -15.5970    0.0000 O   0  0  0  0  0  0  0  0  0  0  0  0
    5.4117  -16.4961    0.0000 C   0  0  0  0  0  0  0  0  0  0  0  0
   -3.0677  -11.7637    0.0000 C   0  0  0  0  0  0  0  0  0  0  0  0
   13.3672   -5.0510    0.0000 C   0  0  0  0  0  0  0  0  0  0  0  0
  1  2  1  0  0  0  0
  1  6  1  0  0  0  0
  2  3  1  0  0  0  0
  3 37  1  0  0  0  0
  4  3  1  1  0  0  0
  4  5  1  0  0  0  0
  4  7  1  0  0  0  0
  5  6  1  0  0  0  0
  7  8  1  0  0  0  0
  7 24  2  0  0  0  0
  9  8  1  6  0  0  0
  9 10  1  0  0  0  0
  9 25  1  0  0  0  0
 10 11  1  6  0  0  0
 10 52  1  0  0  0  0
 12 11  1  1  0  0  0
 12 13  1  0  0  0  0
 12 17  1  0  0  0  0
 13 14  1  0  0  0  0
 14 15  1  0  0  0  0
 15 16  1  0  0  0  0
 15 20  1  6  0  0  0
 16 17  1  0  0  0  0
 16 18  1  1  0  0  0
 18 19  1  0  0  0  0
 20 21  1  0  0  0  0
 21 22  1  0  0  0  0
 22 23  1  0  0  0  0
 25 26  1  0  0  0  0
 26 27  1  0  0  0  0
 26 28  2  0  0  0  0
 27 29  1  0  0  0  0
 27 51  1  6  0  0  0
 29 53  2  0  0  0  0
 30 31  1  1  0  0  0
 30 32  1  0  0  0  0
 30 53  1  0  0  0  0
 32 33  1  0  0  0  0
 32 35  1  1  0  0  0
 33 34  2  0  0  0  0
 33 48  1  0  0  0  0
 35 36  1  0  0  0  0
 37 38  2  0  0  0  0
 37 39  1  0  0  0  0
 39 40  2  0  0  0  0
 39 41  1  0  0  0  0
 41 42  1  0  0  0  0
 41 45  1  0  0  0  0
 41 50  1  1  0  0  0
 42 43  1  0  0  0  0
 42 67  1  1  0  0  0
 43 44  1  0  0  0  0
 46 47  1  0  0  0  0
 46 49  1  6  0  0  0
 46 63  1  0  0  0  0
 47 48  1  0  0  0  0
 48 68  1  6  0  0  0
 53 54  1  0  0  0  0
 55 44  1  6  0  0  0
 55 45  1  0  0  0  0
 55 56  1  0  0  0  0
 56 57  1  0  0  0  0
 57 58  1  0  0  0  0
 57 65  1  1  0  0  0
 58 59  2  0  0  0  0
 58 64  1  0  0  0  0
 59 60  1  0  0  0  0
 60 61  2  0  0  0  0
 61 62  1  0  0  0  0
 62 63  2  0  0  0  0
 65 66  1  0  0  0  0
M  END
