715055
 OpenBabel07281513532D

 31 34  0  0  0  0  0  0  0  0999 V2000
   12.4414    1.5000    0.0000 C   0  0  0  0  0  0  0  0  0  0  0  0
   12.4414    3.0000    0.0000 C   0  0  0  0  0  0  0  0  0  0  0  0
   11.1423    3.7500    0.0000 C   0  0  0  0  0  0  0  0  0  0  0  0
    9.8433    3.0000    0.0000 C   0  0  0  0  0  0  0  0  0  0  0  0
    9.8433    1.5000    0.0000 C   0  0  0  0  0  0  0  0  0  0  0  0
   11.1423    0.7500    0.0000 C   0  0  0  0  0  0  0  0  0  0  0  0
   13.7404    0.7500    0.0000 N   0  0  0  0  0  0  0  0  0  0  0  0
   15.0394    1.5000    0.0000 C   0  0  0  0  0  0  0  0  0  0  0  0
   15.0394    3.0000    0.0000 N   0  0  0  0  0  0  0  0  0  0  0  0
   13.7404    3.7500    0.0000 C   0  0  0  0  0  0  0  0  0  0  0  0
   15.0394    6.0000    0.0000 C   0  0  0  0  0  0  0  0  0  0  0  0
   16.3385    5.2500    0.0000 C   0  0  0  0  0  0  0  0  0  0  0  0
   17.6375    6.0000    0.0000 C   0  0  0  0  0  0  0  0  0  0  0  0
   17.6375    7.5000    0.0000 C   0  0  0  0  0  0  0  0  0  0  0  0
   16.3385    8.2500    0.0000 C   0  0  0  0  0  0  0  0  0  0  0  0
   15.0394    7.5000    0.0000 C   0  0  0  0  0  0  0  0  0  0  0  0
   18.9365    8.2500    0.0000 F   0  0  0  0  0  0  0  0  0  0  0  0
   18.9365    5.2500    0.0000 Cl  0  0  0  0  0  0  0  0  0  0  0  0
    8.5442    3.7500    0.0000 O   0  0  0  0  0  0  0  0  0  0  0  0
    7.2452    3.0000    0.0000 C   0  0  0  0  0  0  0  0  0  0  0  0
    5.9462    3.7500    0.0000 C   0  0  0  0  0  0  0  0  0  0  0  0
    4.6471    3.0000    0.0000 C   0  0  0  0  0  0  0  0  0  0  0  0
    3.3481    3.7500    0.0000 N   0  0  0  0  0  0  0  0  0  0  0  0
    3.3481    5.2500    0.0000 C   0  0  0  0  0  0  0  0  0  0  0  0
    2.0490    6.0000    0.0000 C   0  0  0  0  0  0  0  0  0  0  0  0
    0.7500    5.2500    0.0000 O   0  0  0  0  0  0  0  0  0  0  0  0
    0.7500    3.7500    0.0000 C   0  0  0  0  0  0  0  0  0  0  0  0
    2.0490    3.0000    0.0000 C   0  0  0  0  0  0  0  0  0  0  0  0
    8.5442    0.7500    0.0000 O   0  0  0  0  0  0  0  0  0  0  0  0
    7.2452    1.5000    0.0000 C   0  0  0  0  0  0  0  0  0  0  0  0
   13.7404    5.2500    0.0000 N   0  0  0  0  0  0  0  0  0  0  0  0
  1  2  2  0  0  0  0
  1  6  1  0  0  0  0
  1  7  1  0  0  0  0
  2  3  1  0  0  0  0
  2 10  1  0  0  0  0
  3  4  2  0  0  0  0
  4  5  1  0  0  0  0
  4 19  1  0  0  0  0
  5  6  2  0  0  0  0
  5 29  1  0  0  0  0
  7  8  2  0  0  0  0
  8  9  1  0  0  0  0
  9 10  2  0  0  0  0
 10 31  1  0  0  0  0
 11 12  2  0  0  0  0
 11 16  1  0  0  0  0
 11 31  1  0  0  0  0
 12 13  1  0  0  0  0
 13 14  2  0  0  0  0
 13 18  1  0  0  0  0
 14 15  1  0  0  0  0
 14 17  1  0  0  0  0
 15 16  2  0  0  0  0
 19 20  1  0  0  0  0
 20 21  1  0  0  0  0
 21 22  1  0  0  0  0
 22 23  1  0  0  0  0
 23 24  1  0  0  0  0
 23 28  1  0  0  0  0
 24 25  1  0  0  0  0
 25 26  1  0  0  0  0
 26 27  1  0  0  0  0
 27 28  1  0  0  0  0
 29 30  1  0  0  0  0
M  END
