49842
 OpenBabel07281513532D

 67 74  0  0  1  0  0  0  0  0999 V2000
   11.8434    2.3420    0.0000 N   0  0  0  0  0  0  0  0  0  0  0  0
   12.4053    0.9512    0.0000 H   0  0  0  0  0  0  0  0  0  0  0  0
   12.2883   -3.1671    0.0000 N   0  0  0  0  0  0  0  0  0  0  0  0
    9.1438    6.3442    0.0000 N   0  0  3  0  0  0  0  0  0  0  0  0
   13.5581   -4.1953    0.0000 H   0  0  0  0  0  0  0  0  0  0  0  0
   15.0139    1.0465    0.0000 N   0  0  3  0  0  0  0  0  0  0  0  0
   15.0139   -1.9535    0.0000 H   0  0  0  0  0  0  0  0  0  0  0  0
    7.9241    7.2174    0.0000 C   0  0  0  0  0  0  0  0  0  0  0  0
    6.5853    6.5410    0.0000 C   0  0  1  0  0  0  0  0  0  0  0  0
    6.5643    5.0412    0.0000 C   0  0  0  0  0  0  0  0  0  0  0  0
    7.6915    4.0200    0.0000 C   0  0  2  0  0  0  0  0  0  0  0  0
    7.7962    2.5236    0.0000 C   0  0  0  0  0  0  0  0  0  0  0  0
    9.1444    1.8661    0.0000 C   0  0  1  0  0  0  0  0  0  0  0  0
   10.3879    2.7049    0.0000 C   0  0  0  0  0  0  0  0  0  0  0  0
   10.6210    6.6047    0.0000 C   0  0  0  0  0  0  0  0  0  0  0  0
   11.3252    5.2803    0.0000 C   0  0  0  0  0  0  0  0  0  0  0  0
   10.2833    4.2012    0.0000 C   0  0  0  0  0  0  0  0  0  0  0  0
   11.6740    4.7632    0.0000 C   0  0  0  0  0  0  0  0  0  0  0  0
   12.1871    6.1727    0.0000 C   0  0  0  0  0  0  0  0  0  0  0  0
   13.6643    6.4332    0.0000 C   0  0  0  0  0  0  0  0  0  0  0  0
   12.6382    3.6141    0.0000 C   0  0  0  0  0  0  0  0  0  0  0  0
   14.6285    5.2841    0.0000 C   0  0  0  0  0  0  0  0  0  0  0  0
   14.1154    3.8746    0.0000 C   0  0  0  0  0  0  0  0  0  0  0  0
   16.3129    1.7965    0.0000 C   0  0  0  0  0  0  0  0  0  0  0  0
   17.6120    1.0465    0.0000 C   0  0  0  0  0  0  0  0  0  0  0  0
   17.6120   -0.4535    0.0000 C   0  0  0  0  0  0  0  0  0  0  0  0
   16.3129   -1.2035    0.0000 C   0  0  2  0  0  0  0  0  0  0  0  0
   15.0139   -0.4535    0.0000 C   0  0  1  0  0  0  0  0  0  0  0  0
   13.4042    1.1561    0.0000 C   0  0  0  0  0  0  0  0  0  0  0  0
   12.6542   -0.1429    0.0000 C   0  0  0  0  0  0  0  0  0  0  0  0
   13.7149   -1.2035    0.0000 C   0  0  2  0  0  0  0  0  0  0  0  0
   16.3130   -2.7035    0.0000 C   0  0  2  0  0  0  0  0  0  0  0  0
   13.7149   -2.7036    0.0000 C   0  0  2  0  0  0  0  0  0  0  0  0
   12.2883   -0.7400    0.0000 C   0  0  0  0  0  0  0  0  0  0  0  0
   11.6781    0.6303    0.0000 C   0  0  0  0  0  0  0  0  0  0  0  0
   10.1864    0.7871    0.0000 C   0  0  0  0  0  0  0  0  0  0  0  0
   11.4066   -1.9536    0.0000 C   0  0  0  0  0  0  0  0  0  0  0  0
    9.3047   -0.4265    0.0000 C   0  0  0  0  0  0  0  0  0  0  0  0
   15.0139   -3.4535    0.0000 C   0  0  2  0  0  0  0  0  0  0  0  0
    9.9148   -1.7968    0.0000 C   0  0  0  0  0  0  0  0  0  0  0  0
    8.9351    4.8588    0.0000 C   0  0  0  0  0  0  0  0  0  0  0  0
    8.2257   -1.4685    0.0000 O   0  0  0  0  0  0  0  0  0  0  0  0
    8.5886   -2.9239    0.0000 C   0  0  0  0  0  0  0  0  0  0  0  0
   11.8248   -4.5937    0.0000 C   0  0  0  0  0  0  0  0  0  0  0  0
   14.0497   -4.6026    0.0000 O   0  0  0  0  0  0  0  0  0  0  0  0
    5.1014    6.3219    0.0000 C   0  0  0  0  0  0  0  0  0  0  0  0
    4.1696    7.4974    0.0000 C   0  0  0  0  0  0  0  0  0  0  0  0
    6.1317    7.9708    0.0000 O   0  0  0  0  0  0  0  0  0  0  0  0
   17.6120   -3.4535    0.0000 O   0  0  0  0  0  0  0  0  0  0  0  0
   19.9795   -2.0866    0.0000 C   0  0  0  0  0  0  0  0  0  0  0  0
   21.2785   -2.8366    0.0000 O   0  0  0  0  0  0  0  0  0  0  0  0
   19.9795   -0.5866    0.0000 C   0  0  0  0  0  0  0  0  0  0  0  0
   17.6120   -1.9535    0.0000 C   0  0  0  0  0  0  0  0  0  0  0  0
   18.9110   -1.2035    0.0000 C   0  0  0  0  0  0  0  0  0  0  0  0
   15.4502    6.7815    0.0000 S   0  0  0  0  0  0  0  0  0  0  0  0
   16.9502    6.7815    0.0000 O   0  0  0  0  0  0  0  0  0  0  0  0
   15.4502    8.2815    0.0000 O   0  0  0  0  0  0  0  0  0  0  0  0
   13.9502    6.7815    0.0000 O   0  0  0  0  0  0  0  0  0  0  0  0
   15.4502    5.2815    0.0000 O   0  0  0  0  0  0  0  0  0  0  0  0
    7.9008    1.0273    0.0000 C   0  0  0  0  0  0  0  0  0  0  0  0
    8.0054   -0.4691    0.0000 O   0  0  0  0  0  0  0  0  0  0  0  0
    6.5526    1.6848    0.0000 O   0  0  0  0  0  0  0  0  0  0  0  0
    6.4480    3.1812    0.0000 C   0  0  0  0  0  0  0  0  0  0  0  0
   15.9781   -4.6026    0.0000 C   0  0  0  0  0  0  0  0  0  0  0  0
   17.4553   -4.3421    0.0000 O   0  0  0  0  0  0  0  0  0  0  0  0
   15.0431   -7.1715    0.0000 O   0  0  0  0  0  0  0  0  0  0  0  0
   13.5659   -7.4320    0.0000 C   0  0  0  0  0  0  0  0  0  0  0  0
  1 14  1  0  0  0  0
  1 21  1  0  0  0  0
  1  2  1  0  0  0  0
  3 33  1  0  0  0  0
  3 37  1  0  0  0  0
  3 44  1  0  0  0  0
  4  8  1  0  0  0  0
  4 15  1  0  0  0  0
  6 24  1  0  0  0  0
  6 29  1  0  0  0  0
  6 28  1  0  0  0  0
  8  9  1  0  0  0  0
  9 10  1  0  0  0  0
  9 46  1  1  0  0  0
  9 48  1  0  0  0  0
 11 10  1  1  0  0  0
 11 41  1  0  0  0  0
 11 12  1  0  0  0  0
 12 13  1  0  0  0  0
 13 36  1  1  0  0  0
 13 14  1  0  0  0  0
 13 60  1  0  0  0  0
 14 17  2  0  0  0  0
 15 16  1  0  0  0  0
 16 17  1  0  0  0  0
 17 18  1  0  0  0  0
 18 21  2  0  0  0  0
 18 19  1  0  0  0  0
 19 20  2  0  0  0  0
 20 22  1  0  0  0  0
 21 23  1  0  0  0  0
 22 23  2  0  0  0  0
 24 25  1  0  0  0  0
 25 26  2  0  0  0  0
 26 27  1  0  0  0  0
 27 28  1  0  0  0  0
 27 32  1  0  0  0  0
 27 53  1  6  0  0  0
 28  7  1  6  0  0  0
 28 31  1  0  0  0  0
 29 30  1  0  0  0  0
 31 30  1  1  0  0  0
 31 33  1  0  0  0  0
 31 34  1  0  0  0  0
 32 39  1  0  0  0  0
 32 49  1  1  0  0  0
 33  5  1  1  0  0  0
 33 39  1  0  0  0  0
 34 37  2  0  0  0  0
 34 35  1  0  0  0  0
 35 36  2  0  0  0  0
 36 38  1  0  0  0  0
 37 40  1  0  0  0  0
 38 40  2  0  0  0  0
 38 42  1  0  0  0  0
 39 45  1  1  0  0  0
 39 64  1  0  0  0  0
 41  4  1  0  0  0  0
 42 43  1  0  0  0  0
 46 47  1  0  0  0  0
 49 50  1  0  0  0  0
 50 51  2  0  0  0  0
 50 52  1  0  0  0  0
 53 54  1  0  0  0  0
 55 56  2  0  0  0  0
 55 57  1  0  0  0  0
 55 58  2  0  0  0  0
 55 59  1  0  0  0  0
 60 61  2  0  0  0  0
 60 62  1  0  0  0  0
 62 63  1  0  0  0  0
 64 65  2  0  0  0  0
 64 66  1  0  0  0  0
 66 67  1  0  0  0  0
M  END
