750690
 OpenBabel07281513542D

 29 31  0  0  0  0  0  0  0  0999 V2000
   -6.6450   -6.4346    0.0000 C   0  0  0  0  0  0  0  0  0  0  0  0
   -7.2551   -7.8049    0.0000 C   0  0  0  0  0  0  0  0  0  0  0  0
   -6.1404   -8.8086    0.0000 C   0  0  0  0  0  0  0  0  0  0  0  0
   -8.7223   -8.1168    0.0000 C   0  0  0  0  0  0  0  0  0  0  0  0
   -9.7260   -7.0021    0.0000 O   0  0  0  0  0  0  0  0  0  0  0  0
  -10.6531   -9.8553    0.0000 C   0  0  0  0  0  0  0  0  0  0  0  0
  -11.1166  -11.2819    0.0000 C   0  0  0  0  0  0  0  0  0  0  0  0
   -5.1532   -6.5914    0.0000 C   0  0  0  0  0  0  0  0  0  0  0  0
   -4.1495   -5.4767    0.0000 C   0  0  0  0  0  0  0  0  0  0  0  0
   -2.6823   -5.7885    0.0000 C   0  0  0  0  0  0  0  0  0  0  0  0
   -1.5676   -4.7848    0.0000 C   0  0  0  0  0  0  0  0  0  0  0  0
   -2.0722   -7.1589    0.0000 C   0  0  0  0  0  0  0  0  0  0  0  0
   -0.2685   -5.5348    0.0000 C   0  0  0  0  0  0  0  0  0  0  0  0
    1.0305   -4.7848    0.0000 C   0  0  0  0  0  0  0  0  0  0  0  0
    1.0305   -3.2848    0.0000 C   0  0  0  0  0  0  0  0  0  0  0  0
   -0.2686   -2.5348    0.0000 C   0  0  0  0  0  0  0  0  0  0  0  0
   -1.5676   -3.2848    0.0000 C   0  0  0  0  0  0  0  0  0  0  0  0
   -0.2686   -1.0348    0.0000 F   0  0  0  0  0  0  0  0  0  0  0  0
   -2.8222   -8.4579    0.0000 O   0  0  0  0  0  0  0  0  0  0  0  0
   -6.2972  -10.3004    0.0000 C   0  0  0  0  0  0  0  0  0  0  0  0
   -4.8413   -8.0586    0.0000 N   0  0  0  0  0  0  0  0  0  0  0  0
   -0.5804   -7.0021    0.0000 N   0  0  0  0  0  0  0  0  0  0  0  0
   -9.1858   -9.5434    0.0000 N   0  0  0  0  0  0  0  0  0  0  0  0
   -7.3950   -5.1356    0.0000 C   0  0  0  0  0  0  0  0  0  0  0  0
  -12.5838  -11.5937    0.0000 N   0  0  0  0  0  0  0  0  0  0  0  0
  -13.0473  -13.0203    0.0000 C   0  0  0  0  0  0  0  0  0  0  0  0
  -14.5145  -13.3322    0.0000 C   0  0  0  0  0  0  0  0  0  0  0  0
  -13.5875  -10.4790    0.0000 C   0  0  0  0  0  0  0  0  0  0  0  0
  -13.1240   -9.0524    0.0000 C   0  0  0  0  0  0  0  0  0  0  0  0
  1  2  1  0  0  0  0
  1  8  2  0  0  0  0
  1 24  1  0  0  0  0
  2  3  2  0  0  0  0
  2  4  1  0  0  0  0
  3 20  1  0  0  0  0
  3 21  1  0  0  0  0
  4  5  2  0  0  0  0
  4 23  1  0  0  0  0
  6  7  1  0  0  0  0
  6 23  1  0  0  0  0
  7 25  1  0  0  0  0
  8  9  1  0  0  0  0
  8 21  1  0  0  0  0
  9 10  2  0  0  0  0
 10 11  1  0  0  0  0
 10 12  1  0  0  0  0
 11 13  2  0  0  0  0
 11 17  1  0  0  0  0
 12 19  2  0  0  0  0
 12 22  1  0  0  0  0
 13 14  1  0  0  0  0
 13 22  1  0  0  0  0
 14 15  2  0  0  0  0
 15 16  1  0  0  0  0
 16 17  2  0  0  0  0
 16 18  1  0  0  0  0
 25 26  1  0  0  0  0
 25 28  1  0  0  0  0
 26 27  1  0  0  0  0
 28 29  1  0  0  0  0
M  END
