761432
 OpenBabel07281513542D

 61 66  0  0  1  0  0  0  0  0999 V2000
   18.8226    5.1433    0.0000 C   0  0  1  0  0  0  0  0  0  0  0  0
   18.8226    3.6433    0.0000 C   0  0  1  0  0  0  0  0  0  0  0  0
   20.1217    2.8934    0.0000 C   0  0  1  0  0  0  0  0  0  0  0  0
   21.4207    3.6434    0.0000 C   0  0  2  0  0  0  0  0  0  0  0  0
   20.1217    5.8934    0.0000 C   0  0  1  0  0  0  0  0  0  0  0  0
   17.7620    6.2040    0.0000 C   0  0  0  0  0  0  0  0  0  0  0  0
   16.2619    6.2040    0.0000 C   0  0  2  0  0  0  0  0  0  0  0  0
   17.7620    2.5827    0.0000 C   0  0  2  0  0  0  0  0  0  0  0  0
   14.8131    2.1944    0.0000 C   0  0  0  0  0  0  0  0  0  0  0  0
   15.2013    3.6433    0.0000 C   0  0  0  0  0  0  0  0  0  0  0  0
   13.7524    3.2551    0.0000 C   0  0  2  0  0  0  0  0  0  0  0  0
   12.3035    2.8669    0.0000 O   0  0  0  0  0  0  0  0  0  0  0  0
   11.2428    3.9275    0.0000 C   0  0  0  0  0  0  0  0  0  0  0  0
    9.7940    3.5393    0.0000 C   0  0  1  0  0  0  0  0  0  0  0  0
   11.6311    5.3764    0.0000 O   0  0  0  0  0  0  0  0  0  0  0  0
    8.7333    4.5999    0.0000 C   0  0  2  0  0  0  0  0  0  0  0  0
    9.1215    6.0488    0.0000 C   0  0  0  0  0  0  0  0  0  0  0  0
   10.5704    6.4371    0.0000 C   0  0  0  0  0  0  0  0  0  0  0  0
   10.9586    7.8860    0.0000 C   0  0  0  0  0  0  0  0  0  0  0  0
    9.8979    8.9466    0.0000 C   0  0  0  0  0  0  0  0  0  0  0  0
    8.4490    8.5584    0.0000 C   0  0  0  0  0  0  0  0  0  0  0  0
    8.0608    7.1095    0.0000 C   0  0  0  0  0  0  0  0  0  0  0  0
    6.2237    5.2723    0.0000 C   0  0  0  0  0  0  0  0  0  0  0  0
    4.7748    4.8841    0.0000 O   0  0  0  0  0  0  0  0  0  0  0  0
    6.6119    6.7212    0.0000 O   0  0  0  0  0  0  0  0  0  0  0  0
    3.7142    5.9448    0.0000 C   0  0  0  0  0  0  0  0  0  0  0  0
   22.1707    2.3443    0.0000 O   0  0  0  0  0  0  0  0  0  0  0  0
   20.8717    1.5943    0.0000 C   0  0  0  0  0  0  0  0  0  0  0  0
   19.0610    1.8327    0.0000 O   0  0  0  0  0  0  0  0  0  0  0  0
   19.0184    2.1562    0.0000 H   0  0  0  0  0  0  0  0  0  0  0  0
   18.3360    7.5898    0.0000 O   0  0  0  0  0  0  0  0  0  0  0  0
   17.4229    0.0068    0.0000 C   0  0  0  0  0  0  0  0  0  0  0  0
   15.9357    0.2026    0.0000 O   0  0  0  0  0  0  0  0  0  0  0  0
   17.7475   -1.4576    0.0000 C   0  0  0  0  0  0  0  0  0  0  0  0
   16.6416   -2.4710    0.0000 C   0  0  0  0  0  0  0  0  0  0  0  0
   16.9663   -3.9355    0.0000 C   0  0  0  0  0  0  0  0  0  0  0  0
   18.3969   -4.3865    0.0000 C   0  0  0  0  0  0  0  0  0  0  0  0
   19.5028   -3.3731    0.0000 C   0  0  0  0  0  0  0  0  0  0  0  0
   19.1781   -1.9087    0.0000 C   0  0  0  0  0  0  0  0  0  0  0  0
   18.3360    1.1968    0.0000 O   0  0  0  0  0  0  0  0  0  0  0  0
    2.6535    7.0054    0.0000 C   0  0  0  0  0  0  0  0  0  0  0  0
    4.1024    7.3937    0.0000 C   0  0  0  0  0  0  0  0  0  0  0  0
    2.2653    5.5565    0.0000 C   0  0  0  0  0  0  0  0  0  0  0  0
   16.2620    4.7040    0.0000 C   0  0  0  0  0  0  0  0  0  0  0  0
   16.7013    3.6433    0.0000 C   0  0  0  0  0  0  0  0  0  0  0  0
   20.1216    7.3934    0.0000 O   0  0  0  0  0  0  0  0  0  0  0  0
   21.4207    8.1434    0.0000 C   0  0  0  0  0  0  0  0  0  0  0  0
   19.0184    6.6305    0.0000 C   0  0  0  0  0  0  0  0  0  0  0  0
   15.6879    7.5898    0.0000 O   0  0  0  0  0  0  0  0  0  0  0  0
   14.2007    7.7856    0.0000 C   0  0  0  0  0  0  0  0  0  0  0  0
    9.4057    2.0904    0.0000 O   0  0  0  0  0  0  0  0  0  0  0  0
    7.2844    4.2117    0.0000 N   0  0  0  0  0  0  0  0  0  0  0  0
   21.4207    5.1434    0.0000 C   0  0  0  0  0  0  0  0  0  0  0  0
   14.1406    4.7040    0.0000 C   0  0  0  0  0  0  0  0  0  0  0  0
   16.2620    2.5827    0.0000 C   0  0  2  0  0  0  0  0  0  0  0  0
   15.2013    5.1433    0.0000 C   0  0  0  0  0  0  0  0  0  0  0  0
   13.0129    5.6930    0.0000 C   0  0  0  0  0  0  0  0  0  0  0  0
   19.6949    0.4732    0.0000 C   0  0  0  0  0  0  0  0  0  0  0  0
   21.1892    0.3425    0.0000 O   0  0  0  0  0  0  0  0  0  0  0  0
   18.8346   -0.7555    0.0000 C   0  0  0  0  0  0  0  0  0  0  0  0
   16.4577    1.0955    0.0000 O   0  0  0  0  0  0  0  0  0  0  0  0
  1 48  1  1  0  0  0
  1  5  1  0  0  0  0
  1  2  1  0  0  0  0
  1  6  1  0  0  0  0
  2 30  1  6  0  0  0
  2  3  1  0  0  0  0
  2  8  1  0  0  0  0
  3  4  1  0  0  0  0
  3 28  1  0  0  0  0
  3 29  1  6  0  0  0
  4 27  1  1  0  0  0
  4 53  1  0  0  0  0
  5 46  1  1  0  0  0
  5 53  1  0  0  0  0
  6  7  1  0  0  0  0
  6 31  2  0  0  0  0
  7 49  1  1  0  0  0
  7 56  1  0  0  0  0
  8 40  1  6  0  0  0
  8 55  1  0  0  0  0
  9 55  1  0  0  0  0
  9 11  1  0  0  0  0
 10 44  1  0  0  0  0
 10 45  1  0  0  0  0
 10 55  1  0  0  0  0
 10 56  1  0  0  0  0
 11 12  1  6  0  0  0
 11 54  1  0  0  0  0
 12 13  1  0  0  0  0
 13 15  2  0  0  0  0
 14 13  1  6  0  0  0
 14 16  1  0  0  0  0
 14 51  1  0  0  0  0
 16 17  1  1  0  0  0
 16 52  1  0  0  0  0
 17 18  2  0  0  0  0
 17 22  1  0  0  0  0
 18 19  1  0  0  0  0
 19 20  2  0  0  0  0
 20 21  1  0  0  0  0
 21 22  2  0  0  0  0
 23 24  1  0  0  0  0
 23 25  2  0  0  0  0
 23 52  1  0  0  0  0
 24 26  1  0  0  0  0
 26 41  1  0  0  0  0
 26 42  1  0  0  0  0
 26 43  1  0  0  0  0
 27 28  1  0  0  0  0
 29 58  1  0  0  0  0
 32 33  2  0  0  0  0
 32 34  1  0  0  0  0
 32 40  1  0  0  0  0
 34 35  2  0  0  0  0
 34 39  1  0  0  0  0
 35 36  1  0  0  0  0
 36 37  2  0  0  0  0
 37 38  1  0  0  0  0
 38 39  2  0  0  0  0
 46 47  1  0  0  0  0
 49 50  1  0  0  0  0
 54 56  2  0  0  0  0
 54 57  1  0  0  0  0
 55 61  1  1  0  0  0
 58 59  2  0  0  0  0
 58 60  1  0  0  0  0
M  END
