760766
 OpenBabel07281513542D

 30 33  0  0  0  0  0  0  0  0999 V2000
   10.1178   -0.4755    0.0000 C   0  0  0  0  0  0  0  0  0  0  0  0
   10.1178   -1.9755    0.0000 C   0  0  0  0  0  0  0  0  0  0  0  0
   11.4168   -2.7255    0.0000 C   0  0  0  0  0  0  0  0  0  0  0  0
   12.7159   -1.9755    0.0000 C   0  0  0  0  0  0  0  0  0  0  0  0
   12.7159   -0.4755    0.0000 C   0  0  0  0  0  0  0  0  0  0  0  0
   11.4168    0.2745    0.0000 C   0  0  0  0  0  0  0  0  0  0  0  0
   14.0149   -2.7255    0.0000 C   0  0  0  0  0  0  0  0  0  0  0  0
   15.3139   -1.9755    0.0000 N   0  0  0  0  0  0  0  0  0  0  0  0
   15.3139   -0.4755    0.0000 C   0  0  0  0  0  0  0  0  0  0  0  0
   14.0149    0.2745    0.0000 N   0  0  0  0  0  0  0  0  0  0  0  0
    8.8187    0.2745    0.0000 O   0  0  0  0  0  0  0  0  0  0  0  0
    7.5197   -0.4755    0.0000 C   0  0  0  0  0  0  0  0  0  0  0  0
   15.3139   -4.9755    0.0000 C   0  0  0  0  0  0  0  0  0  0  0  0
   15.3139   -6.4755    0.0000 C   0  0  0  0  0  0  0  0  0  0  0  0
   16.6130   -7.2255    0.0000 C   0  0  0  0  0  0  0  0  0  0  0  0
   17.9120   -6.4755    0.0000 C   0  0  0  0  0  0  0  0  0  0  0  0
   17.9120   -4.9755    0.0000 C   0  0  0  0  0  0  0  0  0  0  0  0
   16.6130   -4.2255    0.0000 C   0  0  0  0  0  0  0  0  0  0  0  0
    6.2207    0.2745    0.0000 C   0  0  0  0  0  0  0  0  0  0  0  0
    6.2207    1.7745    0.0000 C   0  0  0  0  0  0  0  0  0  0  0  0
    4.9216    2.5245    0.0000 C   0  0  0  0  0  0  0  0  0  0  0  0
    3.6226    1.7745    0.0000 N   0  0  0  0  0  0  0  0  0  0  0  0
    3.6226    0.2745    0.0000 C   0  0  0  0  0  0  0  0  0  0  0  0
    4.9216   -0.4755    0.0000 C   0  0  0  0  0  0  0  0  0  0  0  0
   14.0149   -4.2255    0.0000 N   0  0  0  0  0  0  0  0  0  0  0  0
   14.0149   -7.2255    0.0000 F   0  0  0  0  0  0  0  0  0  0  0  0
   19.2111   -7.2255    0.0000 Br  0  0  0  0  0  0  0  0  0  0  0  0
    8.8187   -2.7255    0.0000 O   0  0  0  0  0  0  0  0  0  0  0  0
    7.5197   -1.9755    0.0000 C   0  0  0  0  0  0  0  0  0  0  0  0
    2.3236    2.5245    0.0000 C   0  0  0  0  0  0  0  0  0  0  0  0
  1  2  2  0  0  0  0
  1  6  1  0  0  0  0
  1 11  1  0  0  0  0
  2  3  1  0  0  0  0
  2 28  1  0  0  0  0
  3  4  2  0  0  0  0
  4  5  1  0  0  0  0
  4  7  1  0  0  0  0
  5  6  2  0  0  0  0
  5 10  1  0  0  0  0
  7  8  2  0  0  0  0
  7 25  1  0  0  0  0
  8  9  1  0  0  0  0
  9 10  2  0  0  0  0
 11 12  1  0  0  0  0
 12 19  1  0  0  0  0
 13 14  2  0  0  0  0
 13 18  1  0  0  0  0
 13 25  1  0  0  0  0
 14 15  1  0  0  0  0
 14 26  1  0  0  0  0
 15 16  2  0  0  0  0
 16 17  1  0  0  0  0
 16 27  1  0  0  0  0
 17 18  2  0  0  0  0
 19 20  1  0  0  0  0
 19 24  1  0  0  0  0
 20 21  1  0  0  0  0
 21 22  1  0  0  0  0
 22 23  1  0  0  0  0
 22 30  1  0  0  0  0
 23 24  1  0  0  0  0
 28 29  1  0  0  0  0
M  END
