109724
 OpenBabel07281513532D

 14 14  0  0  0  0  0  0  0  0999 V2000
    2.9578   -0.9022    0.0000 C   0  0  0  0  0  0  0  0  0  0  0  0
    4.2697   -0.1749    0.0000 N   0  0  0  0  0  0  0  0  0  0  0  0
    4.2959    1.3248    0.0000 P   0  0  3  0  0  0  0  0  0  0  0  0
    3.0101    2.0974    0.0000 O   0  0  0  0  0  0  0  0  0  0  0  0
    1.6982    1.3701    0.0000 C   0  0  0  0  0  0  0  0  0  0  0  0
    1.6720   -0.1296    0.0000 C   0  0  0  0  0  0  0  0  0  0  0  0
    5.5555   -0.9475    0.0000 C   0  0  0  0  0  0  0  0  0  0  0  0
    5.5293   -2.4472    0.0000 C   0  0  0  0  0  0  0  0  0  0  0  0
    6.8151   -3.2198    0.0000 Cl  0  0  0  0  0  0  0  0  0  0  0  0
    6.2567   -0.3796    0.0000 C   0  0  0  0  0  0  0  0  0  0  0  0
    7.7291   -0.6658    0.0000 C   0  0  0  0  0  0  0  0  0  0  0  0
    8.2175   -2.0841    0.0000 Cl  0  0  0  0  0  0  0  0  0  0  0  0
    4.8334    2.7252    0.0000 O   0  0  0  0  0  0  0  0  0  0  0  0
    5.7683    1.0387    0.0000 N   0  0  0  0  0  0  0  0  0  0  0  0
  1  2  1  0  0  0  0
  1  6  1  0  0  0  0
  2  3  1  0  0  0  0
  2  7  1  0  0  0  0
  3  4  1  0  0  0  0
  3 13  2  0  0  0  0
  3 14  1  0  0  0  0
  4  5  1  0  0  0  0
  5  6  1  0  0  0  0
  7  8  1  0  0  0  0
  8  9  1  0  0  0  0
 10 11  1  0  0  0  0
 10 14  1  0  0  0  0
 11 12  1  0  0  0  0
M  END
