737754
 OpenBabel07281513532D

 32 34  0  0  0  0  0  0  0  0999 V2000
  -13.3574    2.3645    0.0000 C   0  0  0  0  0  0  0  0  0  0  0  0
  -13.3574    0.8645    0.0000 C   0  0  0  0  0  0  0  0  0  0  0  0
  -12.0584    0.1145    0.0000 C   0  0  0  0  0  0  0  0  0  0  0  0
  -10.7594    0.8645    0.0000 C   0  0  0  0  0  0  0  0  0  0  0  0
  -10.7594    2.3645    0.0000 C   0  0  0  0  0  0  0  0  0  0  0  0
  -12.0584    3.1145    0.0000 C   0  0  0  0  0  0  0  0  0  0  0  0
   -9.3328    0.4010    0.0000 N   0  0  0  0  0  0  0  0  0  0  0  0
   -8.4511    1.6145    0.0000 N   0  0  0  0  0  0  0  0  0  0  0  0
   -9.3328    2.8280    0.0000 C   0  0  0  0  0  0  0  0  0  0  0  0
  -14.6565    0.1145    0.0000 N   0  0  0  0  0  0  0  0  0  0  0  0
  -14.6565   -1.3855    0.0000 C   0  0  0  0  0  0  0  0  0  0  0  0
  -15.9555   -2.1355    0.0000 C   0  0  0  0  0  0  0  0  0  0  0  0
  -15.9555   -3.6355    0.0000 C   0  0  0  0  0  0  0  0  0  0  0  0
  -14.6565   -4.3855    0.0000 N   0  0  0  0  0  0  0  0  0  0  0  0
  -13.3574   -3.6355    0.0000 C   0  0  0  0  0  0  0  0  0  0  0  0
  -13.3574   -2.1355    0.0000 N   0  0  0  0  0  0  0  0  0  0  0  0
  -10.7594   -3.6355    0.0000 C   0  0  0  0  0  0  0  0  0  0  0  0
   -9.4603   -4.3855    0.0000 C   0  0  0  0  0  0  0  0  0  0  0  0
   -8.1613   -3.6355    0.0000 C   0  0  0  0  0  0  0  0  0  0  0  0
   -8.1613   -2.1355    0.0000 C   0  0  0  0  0  0  0  0  0  0  0  0
   -9.4603   -1.3855    0.0000 C   0  0  0  0  0  0  0  0  0  0  0  0
  -10.7594   -2.1355    0.0000 C   0  0  0  0  0  0  0  0  0  0  0  0
   -7.6122   -5.6845    0.0000 O   0  0  0  0  0  0  0  0  0  0  0  0
   -6.8622   -4.3855    0.0000 S   0  0  0  0  0  0  0  0  0  0  0  0
   -5.5632   -5.1355    0.0000 O   0  0  0  0  0  0  0  0  0  0  0  0
   -6.8622   -1.3855    0.0000 C   0  0  0  0  0  0  0  0  0  0  0  0
   -6.9511    1.6145    0.0000 C   0  0  0  0  0  0  0  0  0  0  0  0
   -8.8693    4.2546    0.0000 C   0  0  0  0  0  0  0  0  0  0  0  0
  -15.9555    0.8645    0.0000 C   0  0  0  0  0  0  0  0  0  0  0  0
   -6.1122   -3.0864    0.0000 N   0  0  0  0  0  0  0  0  0  0  0  0
  -12.0584   -4.3855    0.0000 N   0  0  0  0  0  0  0  0  0  0  0  0
   -1.0246   -0.2744    0.0000 Cl  0  0  0  0  0  0  0  0  0  0  0  0
  1  2  1  0  0  0  0
  1  6  2  0  0  0  0
  2  3  2  0  0  0  0
  2 10  1  0  0  0  0
  3  4  1  0  0  0  0
  4  5  1  0  0  0  0
  4  7  2  0  0  0  0
  5  6  1  0  0  0  0
  5  9  2  0  0  0  0
  7  8  1  0  0  0  0
  8  9  1  0  0  0  0
  8 27  1  0  0  0  0
  9 28  1  0  0  0  0
 10 11  1  0  0  0  0
 10 29  1  0  0  0  0
 11 12  2  0  0  0  0
 11 16  1  0  0  0  0
 12 13  1  0  0  0  0
 13 14  2  0  0  0  0
 14 15  1  0  0  0  0
 15 16  2  0  0  0  0
 15 31  1  0  0  0  0
 17 18  2  0  0  0  0
 17 22  1  0  0  0  0
 17 31  1  0  0  0  0
 18 19  1  0  0  0  0
 19 20  2  0  0  0  0
 19 24  1  0  0  0  0
 20 21  1  0  0  0  0
 20 26  1  0  0  0  0
 21 22  2  0  0  0  0
 23 24  2  0  0  0  0
 24 25  2  0  0  0  0
 24 30  1  0  0  0  0
M  END
