279836
 OpenBabel07281513532D

 32 34  0  0  0  0  0  0  0  0999 V2000
    7.2452    5.2500    0.0000 C   0  0  0  0  0  0  0  0  0  0  0  0
    7.2452    3.7500    0.0000 C   0  0  0  0  0  0  0  0  0  0  0  0
    8.5442    3.0000    0.0000 C   0  0  0  0  0  0  0  0  0  0  0  0
    9.8433    3.7500    0.0000 C   0  0  0  0  0  0  0  0  0  0  0  0
    9.8433    5.2500    0.0000 C   0  0  0  0  0  0  0  0  0  0  0  0
    8.5442    6.0000    0.0000 C   0  0  0  0  0  0  0  0  0  0  0  0
   11.1423    3.0000    0.0000 C   0  0  0  0  0  0  0  0  0  0  0  0
   12.4414    3.7500    0.0000 C   0  0  0  0  0  0  0  0  0  0  0  0
   12.4414    5.2500    0.0000 C   0  0  0  0  0  0  0  0  0  0  0  0
   11.1423    6.0000    0.0000 C   0  0  0  0  0  0  0  0  0  0  0  0
   13.7404    3.0000    0.0000 C   0  0  0  0  0  0  0  0  0  0  0  0
   15.0394    3.7500    0.0000 C   0  0  0  0  0  0  0  0  0  0  0  0
   15.0394    5.2500    0.0000 C   0  0  0  0  0  0  0  0  0  0  0  0
   13.7404    6.0000    0.0000 C   0  0  0  0  0  0  0  0  0  0  0  0
   11.1423    7.5000    0.0000 O   0  0  0  0  0  0  0  0  0  0  0  0
   11.1423    1.5000    0.0000 O   0  0  0  0  0  0  0  0  0  0  0  0
    7.2452    8.2500    0.0000 C   0  0  0  0  0  0  0  0  0  0  0  0
    7.2452    0.7500    0.0000 C   0  0  0  0  0  0  0  0  0  0  0  0
    5.9462    7.5000    0.0000 C   0  0  0  0  0  0  0  0  0  0  0  0
    3.3481    7.5000    0.0000 C   0  0  0  0  0  0  0  0  0  0  0  0
    2.0490    8.2500    0.0000 C   0  0  0  0  0  0  0  0  0  0  0  0
    5.9462    1.5000    0.0000 C   0  0  0  0  0  0  0  0  0  0  0  0
    3.3481    1.5000    0.0000 C   0  0  0  0  0  0  0  0  0  0  0  0
    2.0490    0.7500    0.0000 C   0  0  0  0  0  0  0  0  0  0  0  0
   13.7404    7.5000    0.0000 O   0  0  0  0  0  0  0  0  0  0  0  0
   13.7404    1.5000    0.0000 O   0  0  0  0  0  0  0  0  0  0  0  0
    0.7500    7.5000    0.0000 O   0  0  0  0  0  0  0  0  0  0  0  0
    0.7500    1.5000    0.0000 O   0  0  0  0  0  0  0  0  0  0  0  0
    8.5442    1.5000    0.0000 N   0  0  0  0  0  0  0  0  0  0  0  0
    8.5442    7.5000    0.0000 N   0  0  0  0  0  0  0  0  0  0  0  0
    4.6471    8.2500    0.0000 N   0  0  0  0  0  0  0  0  0  0  0  0
    4.6471    0.7500    0.0000 N   0  0  0  0  0  0  0  0  0  0  0  0
  1  2  1  0  0  0  0
  1  6  2  0  0  0  0
  2  3  2  0  0  0  0
  3  4  1  0  0  0  0
  3 29  1  0  0  0  0
  4  5  2  0  0  0  0
  4  7  1  0  0  0  0
  5  6  1  0  0  0  0
  5 10  1  0  0  0  0
  6 30  1  0  0  0  0
  7  8  1  0  0  0  0
  7 16  2  0  0  0  0
  8  9  2  0  0  0  0
  8 11  1  0  0  0  0
  9 10  1  0  0  0  0
  9 14  1  0  0  0  0
 10 15  2  0  0  0  0
 11 12  2  0  0  0  0
 11 26  1  0  0  0  0
 12 13  1  0  0  0  0
 13 14  2  0  0  0  0
 14 25  1  0  0  0  0
 17 19  1  0  0  0  0
 17 30  1  0  0  0  0
 18 22  1  0  0  0  0
 18 29  1  0  0  0  0
 19 31  1  0  0  0  0
 20 21  1  0  0  0  0
 20 31  1  0  0  0  0
 21 27  1  0  0  0  0
 22 32  1  0  0  0  0
 23 24  1  0  0  0  0
 23 32  1  0  0  0  0
 24 28  1  0  0  0  0
M  END
