686673
 OpenBabel07281513532D

 21 23  0  0  1  0  0  0  0  0999 V2000
   -0.6265   -8.6902    0.0000 C   0  0  3  0  0  0  0  0  0  0  0  0
   -1.5082   -9.9037    0.0000 C   0  0  3  0  0  0  0  0  0  0  0  0
   -2.9348   -9.4402    0.0000 C   0  0  3  0  0  0  0  0  0  0  0  0
   -2.9348   -7.9402    0.0000 O   0  0  0  0  0  0  0  0  0  0  0  0
   -4.1483  -10.3218    0.0000 C   0  0  0  0  0  0  0  0  0  0  0  0
   -1.5082   -7.4766    0.0000 C   0  0  3  0  0  0  0  0  0  0  0  0
   -2.1265   -8.6902    0.0000 O   0  0  0  0  0  0  0  0  0  0  0  0
   -1.0447   -6.0501    0.0000 N   0  0  0  0  0  0  0  0  0  0  0  0
   -1.9263   -4.8365    0.0000 C   0  0  0  0  0  0  0  0  0  0  0  0
   -1.0447   -3.6230    0.0000 N   0  0  0  0  0  0  0  0  0  0  0  0
    0.3819   -4.0865    0.0000 C   0  0  0  0  0  0  0  0  0  0  0  0
    0.3819   -5.5865    0.0000 C   0  0  0  0  0  0  0  0  0  0  0  0
    1.6810   -3.3365    0.0000 C   0  0  0  0  0  0  0  0  0  0  0  0
    2.9800   -4.0865    0.0000 N   0  0  0  0  0  0  0  0  0  0  0  0
    2.9800   -5.5865    0.0000 C   0  0  0  0  0  0  0  0  0  0  0  0
    1.6810   -6.3365    0.0000 N   0  0  0  0  0  0  0  0  0  0  0  0
    1.6810   -1.8365    0.0000 O   0  0  0  0  0  0  0  0  0  0  0  0
    0.3819   -1.0865    0.0000 C   0  0  0  0  0  0  0  0  0  0  0  0
   -3.9915  -11.8136    0.0000 O   0  0  0  0  0  0  0  0  0  0  0  0
   -1.0447  -11.3303    0.0000 O   0  0  0  0  0  0  0  0  0  0  0  0
    4.2790   -6.3365    0.0000 N   0  0  0  0  0  0  0  0  0  0  0  0
  1  2  1  0  0  0  0
  1  6  1  0  0  0  0
  1  7  1  0  0  0  0
  2  3  1  0  0  0  0
  2 20  1  0  0  0  0
  3  4  1  0  0  0  0
  3  5  1  0  0  0  0
  4  6  1  0  0  0  0
  5 19  1  0  0  0  0
  6  8  1  0  0  0  0
  8  9  1  0  0  0  0
  8 12  1  0  0  0  0
  9 10  2  0  0  0  0
 10 11  1  0  0  0  0
 11 12  2  0  0  0  0
 11 13  1  0  0  0  0
 12 16  1  0  0  0  0
 13 14  2  0  0  0  0
 13 17  1  0  0  0  0
 14 15  1  0  0  0  0
 15 16  2  0  0  0  0
 15 21  1  0  0  0  0
 17 18  1  0  0  0  0
M  END
