125066
 OpenBabel07281513542D

110114  0  0  1  0  0  0  0  0999 V2000
  -10.1024   25.4006    0.0000 O   0  0  0  0  0  0  0  0  0  0  0  0
   -8.8034   24.6506    0.0000 C   0  0  0  0  0  0  0  0  0  0  0  0
   -7.5043   22.4006    0.0000 C   0  0  1  0  0  0  0  0  0  0  0  0
   -4.9062   22.4006    0.0000 C   0  0  0  0  0  0  0  0  0  0  0  0
   -3.6072   23.1505    0.0000 C   0  0  1  0  0  0  0  0  0  0  0  0
   -2.3082   23.9006    0.0000 C   0  0  0  0  0  0  0  0  0  0  0  0
   -8.8034   23.1506    0.0000 C   0  0  0  0  0  0  0  0  0  0  0  0
   -7.5043   25.4006    0.0000 N   0  0  0  0  0  0  0  0  0  0  0  0
   -7.5043   23.9006    0.0000 H   0  0  0  0  0  0  0  0  0  0  0  0
   -2.8572   21.8515    0.0000 H   0  0  0  0  0  0  0  0  0  0  0  0
   -1.0091   23.1505    0.0000 O   0  0  0  0  0  0  0  0  0  0  0  0
   -4.3572   24.4496    0.0000 N   0  0  0  0  0  0  0  0  0  0  0  0
   -2.3081   25.4006    0.0000 N   0  0  0  0  0  0  0  0  0  0  0  0
   -7.5043   20.9005    0.0000 C   0  0  0  0  0  0  0  0  0  0  0  0
   -8.8034   20.1505    0.0000 N   0  0  0  0  0  0  0  0  0  0  0  0
   -8.8034   18.6506    0.0000 C   0  0  0  0  0  0  0  0  0  0  0  0
   -7.5043   17.9006    0.0000 C   0  0  0  0  0  0  0  0  0  0  0  0
   -6.2053   18.6505    0.0000 C   0  0  0  0  0  0  0  0  0  0  0  0
   -6.2053   20.1505    0.0000 N   0  0  0  0  0  0  0  0  0  0  0  0
   -6.2053   23.1506    0.0000 N   0  0  0  0  0  0  0  0  0  0  0  0
   -7.5043   16.4005    0.0000 C   0  0  0  0  0  0  0  0  0  0  0  0
   -4.9063   17.9005    0.0000 C   0  0  0  0  0  0  0  0  0  0  0  0
   -3.6072   18.6505    0.0000 O   0  0  0  0  0  0  0  0  0  0  0  0
   -3.6072   15.6505    0.0000 C   0  0  2  0  0  0  0  0  0  0  0  0
   -2.3082   16.4005    0.0000 C   0  0  0  0  0  0  0  0  0  0  0  0
   -3.6072   14.1505    0.0000 C   0  0  3  0  0  0  0  0  0  0  0  0
   -3.6072   17.1505    0.0000 H   0  0  0  0  0  0  0  0  0  0  0  0
   -2.3082   17.9005    0.0000 O   0  0  0  0  0  0  0  0  0  0  0  0
    0.2899   16.4005    0.0000 C   0  0  2  0  0  0  0  0  0  0  0  0
    0.2899   17.9005    0.0000 C   0  0  2  0  0  0  0  0  0  0  0  0
    1.0399   15.1014    0.0000 H   0  0  0  0  0  0  0  0  0  0  0  0
    1.5890   18.6505    0.0000 C   0  0  1  0  0  0  0  0  0  0  0  0
   -0.4601   19.1996    0.0000 H   0  0  0  0  0  0  0  0  0  0  0  0
    2.8880   19.4005    0.0000 C   0  0  0  0  0  0  0  0  0  0  0  0
    2.3390   17.3514    0.0000 H   0  0  0  0  0  0  0  0  0  0  0  0
    4.1871   18.6505    0.0000 O   0  0  0  0  0  0  0  0  0  0  0  0
    4.1871   21.6505    0.0000 C   0  0  2  0  0  0  0  0  0  0  0  0
    4.1871   23.1505    0.0000 C   0  0  0  0  0  0  0  0  0  0  0  0
    5.4861   20.9005    0.0000 C   0  0  1  0  0  0  0  0  0  0  0  0
    2.8880   22.4005    0.0000 H   0  0  0  0  0  0  0  0  0  0  0  0
    6.2361   19.6015    0.0000 H   0  0  0  0  0  0  0  0  0  0  0  0
    2.8880   23.9005    0.0000 O   0  0  0  0  0  0  0  0  0  0  0  0
    6.7852   23.1505    0.0000 C   0  0  0  0  0  0  0  0  0  0  0  0
    8.0842   23.9005    0.0000 C   0  0  0  0  0  0  0  0  0  0  0  0
    9.2978   26.2822    0.0000 S   0  0  0  0  0  0  0  0  0  0  0  0
    8.0842   25.4005    0.0000 C   0  0  0  0  0  0  0  0  0  0  0  0
    6.8707   26.2822    0.0000 N   0  0  0  0  0  0  0  0  0  0  0  0
    8.8342   27.7088    0.0000 C   0  0  0  0  0  0  0  0  0  0  0  0
    7.3342   27.7088    0.0000 C   0  0  0  0  0  0  0  0  0  0  0  0
    6.9161   30.3489    0.0000 S   0  0  0  0  0  0  0  0  0  0  0  0
    6.4525   28.9223    0.0000 C   0  0  0  0  0  0  0  0  0  0  0  0
    4.9526   28.9223    0.0000 N   0  0  0  0  0  0  0  0  0  0  0  0
    4.4890   30.3489    0.0000 C   0  0  0  0  0  0  0  0  0  0  0  0
    5.7026   31.2306    0.0000 C   0  0  0  0  0  0  0  0  0  0  0  0
    3.0624   30.8124    0.0000 C   0  0  0  0  0  0  0  0  0  0  0  0
    1.9477   29.8087    0.0000 O   0  0  0  0  0  0  0  0  0  0  0  0
    3.8653   33.2834    0.0000 C   0  0  0  0  0  0  0  0  0  0  0  0
    3.5534   34.7506    0.0000 C   0  0  0  0  0  0  0  0  0  0  0  0
    4.6681   35.7543    0.0000 C   0  0  0  0  0  0  0  0  0  0  0  0
    4.3563   37.2215    0.0000 S   0  3  0  0  0  0  0  0  0  0  0  0
    0.8390   19.9496    0.0000 C   0  0  0  0  0  0  0  0  0  0  0  0
    6.7852   21.6505    0.0000 C   0  0  0  0  0  0  0  0  0  0  0  0
    2.9297   37.6850    0.0000 C   0  0  0  0  0  0  0  0  0  0  0  0
    5.4710   38.2252    0.0000 C   0  0  0  0  0  0  0  0  0  0  0  0
   -4.9063   16.4005    0.0000 N   0  0  0  0  0  0  0  0  0  0  0  0
   -1.0091   15.6505    0.0000 N   0  0  0  0  0  0  0  0  0  0  0  0
    1.7899   16.4005    0.0000 C   0  0  0  0  0  0  0  0  0  0  0  0
    2.8880   20.9005    0.0000 N   0  0  0  0  0  0  0  0  0  0  0  0
    5.4862   23.9005    0.0000 N   0  0  0  0  0  0  0  0  0  0  0  0
    2.7506   32.2797    0.0000 N   0  0  0  0  0  0  0  0  0  0  0  0
   -4.9063   13.4005    0.0000 O   0  0  0  0  0  0  0  0  0  0  0  0
   -3.6072   12.6505    0.0000 H   0  0  0  0  0  0  0  0  0  0  0  0
   -2.3082   13.4005    0.0000 C   0  0  0  0  0  0  0  0  0  0  0  0
   -2.1514   11.9087    0.0000 C   0  0  0  0  0  0  0  0  0  0  0  0
    0.0658   12.8959    0.0000 C   0  0  0  0  0  0  0  0  0  0  0  0
   -0.9379   14.0106    0.0000 N   0  0  0  0  0  0  0  0  0  0  0  0
   -0.6841   11.5968    0.0000 N   0  0  0  0  0  0  0  0  0  0  0  0
   -5.5014   10.2654    0.0000 O   0  0  0  0  0  0  0  0  0  0  0  0
   -4.9063   11.9005    0.0000 C   0  0  3  0  0  0  0  0  0  0  0  0
   -4.0957    9.6734    0.0000 C   0  0  3  0  0  0  0  0  0  0  0  0
   -5.3947    8.9234    0.0000 C   0  0  3  0  0  0  0  0  0  0  0  0
   -5.9899    7.2883    0.0000 C   0  0  3  0  0  0  0  0  0  0  0  0
   -8.2100   10.0284    0.0000 C   0  0  0  0  0  0  0  0  0  0  0  0
   -6.8004    9.5154    0.0000 C   0  0  3  0  0  0  0  0  0  0  0  0
   -2.6861    9.1604    0.0000 O   0  0  0  0  0  0  0  0  0  0  0  0
   -2.4257    7.6831    0.0000 C   0  0  3  0  0  0  0  0  0  0  0  0
   -1.6757    6.3841    0.0000 O   0  0  0  0  0  0  0  0  0  0  0  0
    0.2492    3.8599    0.0000 C   0  0  3  0  0  0  0  0  0  0  0  0
   -2.7278    5.9696    0.0000 C   0  0  3  0  0  0  0  0  0  0  0  0
    1.8504    6.3235    0.0000 C   0  0  0  0  0  0  0  0  0  0  0  0
    0.5514    5.5735    0.0000 C   0  0  3  0  0  0  0  0  0  0  0  0
   -1.7998    2.9090    0.0000 C   0  0  0  0  0  0  0  0  0  0  0  0
   -0.5008    2.1590    0.0000 O   0  0  0  0  0  0  0  0  0  0  0  0
   -6.5438    9.8876    0.0000 O   0  0  0  0  0  0  0  0  0  0  0  0
   -5.9899    5.7883    0.0000 O   0  0  0  0  0  0  0  0  0  0  0  0
    1.8505    7.8235    0.0000 O   0  0  0  0  0  0  0  0  0  0  0  0
    0.5097    2.3827    0.0000 O   0  0  0  0  0  0  0  0  0  0  0  0
   -4.0269    5.2196    0.0000 O   0  0  0  0  0  0  0  0  0  0  0  0
   -3.0989    2.1590    0.0000 N   0  0  0  0  0  0  0  0  0  0  0  0
   -1.7998    4.4090    0.0000 O   0  0  0  0  0  0  0  0  0  0  0  0
   -0.5008    5.1590    0.0000 C   0  0  3  0  0  0  0  0  0  0  0  0
  -11.8522   29.4679    0.0000 O   0  0  0  0  0  0  0  0  0  0  0  0
  -11.8522   27.9679    0.0000 S   0  0  0  0  0  0  0  0  0  0  0  0
  -10.3522   27.9679    0.0000 O   0  0  0  0  0  0  0  0  0  0  0  0
  -11.8522   26.4679    0.0000 O   0  5  0  0  0  0  0  0  0  0  0  0
  -13.3522   27.9679    0.0000 O   0  0  0  0  0  0  0  0  0  0  0  0
   -8.4704   11.5057    0.0000 O   0  0  0  0  0  0  0  0  0  0  0  0
   -1.2101   17.9005    0.0000 O   0  0  0  0  0  0  0  0  0  0  0  0
    4.7361   19.6015    0.0000 O   0  0  0  0  0  0  0  0  0  0  0  0
  -10.1024   17.9005    0.0000 N   0  0  0  0  0  0  0  0  0  0  0  0
  1  2  2  0  0  0  0
  2  7  1  0  0  0  0
  2  8  1  0  0  0  0
  3  7  1  0  0  0  0
  3  9  1  1  0  0  0
  3 14  1  0  0  0  0
  3 20  1  0  0  0  0
  4  5  1  0  0  0  0
  4 20  1  0  0  0  0
  5  6  1  0  0  0  0
  5 10  1  1  0  0  0
  5 12  1  0  0  0  0
  6 11  2  0  0  0  0
  6 13  1  0  0  0  0
 14 15  2  0  0  0  0
 14 19  1  0  0  0  0
 15 16  1  0  0  0  0
 16 17  2  0  0  0  0
 16110  1  0  0  0  0
 17 18  1  0  0  0  0
 17 21  1  0  0  0  0
 18 19  2  0  0  0  0
 18 22  1  0  0  0  0
 22 23  2  0  0  0  0
 22 65  1  0  0  0  0
 24 25  1  0  0  0  0
 24 26  1  0  0  0  0
 24 27  1  1  0  0  0
 24 65  1  0  0  0  0
 25 28  2  0  0  0  0
 25 66  1  0  0  0  0
 26 71  1  0  0  0  0
 26 72  1  0  0  0  0
 26 73  1  0  0  0  0
 29 30  1  0  0  0  0
 29 31  1  6  0  0  0
 29 66  1  0  0  0  0
 29 67  1  0  0  0  0
 30 32  1  0  0  0  0
 30 33  1  6  0  0  0
 30108  1  0  0  0  0
 32 34  1  0  0  0  0
 32 35  1  1  0  0  0
 32 61  1  0  0  0  0
 34 36  2  0  0  0  0
 34 68  1  0  0  0  0
 37 38  1  0  0  0  0
 37 39  1  0  0  0  0
 37 40  1  1  0  0  0
 37 68  1  0  0  0  0
 38 42  2  0  0  0  0
 38 69  1  0  0  0  0
 39 41  1  6  0  0  0
 39 62  1  0  0  0  0
 39109  1  0  0  0  0
 43 44  1  0  0  0  0
 43 69  1  0  0  0  0
 44 46  1  0  0  0  0
 45 46  1  0  0  0  0
 45 48  1  0  0  0  0
 46 47  2  0  0  0  0
 47 49  1  0  0  0  0
 48 49  2  0  0  0  0
 49 51  1  0  0  0  0
 50 51  1  0  0  0  0
 50 54  1  0  0  0  0
 51 52  2  0  0  0  0
 52 53  1  0  0  0  0
 53 54  2  0  0  0  0
 53 55  1  0  0  0  0
 55 56  2  0  0  0  0
 55 70  1  0  0  0  0
 57 58  1  0  0  0  0
 57 70  1  0  0  0  0
 58 59  1  0  0  0  0
 59 60  1  0  0  0  0
 60 63  1  0  0  0  0
 60 64  1  0  0  0  0
 71 79  1  0  0  0  0
 73 74  2  0  0  0  0
 73 76  1  0  0  0  0
 74 77  1  0  0  0  0
 75 76  2  0  0  0  0
 75 77  1  0  0  0  0
 78 79  1  0  0  0  0
 78 84  1  0  0  0  0
 79 80  1  0  0  0  0
 80 81  1  0  0  0  0
 80 85  1  0  0  0  0
 81 82  1  0  0  0  0
 81 94  1  0  0  0  0
 82 84  1  0  0  0  0
 82 95  1  0  0  0  0
 83 84  1  0  0  0  0
 83107  1  0  0  0  0
 85 86  1  0  0  0  0
 86 87  1  0  0  0  0
 86 89  1  0  0  0  0
 87 91  1  0  0  0  0
 88 91  1  0  0  0  0
 88 97  1  0  0  0  0
 88101  1  0  0  0  0
 89 98  1  0  0  0  0
 89101  1  0  0  0  0
 90 91  1  0  0  0  0
 90 96  1  0  0  0  0
 92 93  2  0  0  0  0
 92 99  1  0  0  0  0
 92100  1  0  0  0  0
100101  1  0  0  0  0
102103  1  0  0  0  0
103104  2  0  0  0  0
103105  1  0  0  0  0
103106  2  0  0  0  0
M  CHG  2  60   1 105  -1
M  END
