756645
 OpenBabel07281513532D

 30 33  0  0  1  0  0  0  0  0999 V2000
    6.2062   12.2434    0.0000 C   0  0  0  0  0  0  0  0  0  0  0  0
    4.7062   12.2434    0.0000 N   0  0  0  0  0  0  0  0  0  0  0  0
    3.9562   10.9444    0.0000 C   0  0  0  0  0  0  0  0  0  0  0  0
    4.7062    9.6454    0.0000 C   0  0  0  0  0  0  0  0  0  0  0  0
    6.2062    9.6454    0.0000 C   0  0  0  0  0  0  0  0  0  0  0  0
    6.9562   10.9444    0.0000 C   0  0  0  0  0  0  0  0  0  0  0  0
    8.4562   10.9444    0.0000 O   0  0  0  0  0  0  0  0  0  0  0  0
    9.2062    9.6454    0.0000 C   0  0  2  0  0  0  0  0  0  0  0  0
    8.4562    8.3463    0.0000 C   0  0  0  0  0  0  0  0  0  0  0  0
   10.7062    9.6454    0.0000 C   0  0  0  0  0  0  0  0  0  0  0  0
   11.4562    8.3463    0.0000 C   0  0  0  0  0  0  0  0  0  0  0  0
   12.9562    8.3463    0.0000 C   0  0  0  0  0  0  0  0  0  0  0  0
   13.7062    9.6454    0.0000 C   0  0  0  0  0  0  0  0  0  0  0  0
   12.9562   10.9444    0.0000 C   0  0  0  0  0  0  0  0  0  0  0  0
   11.4562   10.9444    0.0000 C   0  0  0  0  0  0  0  0  0  0  0  0
   10.7062   12.2434    0.0000 Cl  0  0  0  0  0  0  0  0  0  0  0  0
   10.7063    7.0473    0.0000 Cl  0  0  0  0  0  0  0  0  0  0  0  0
   15.2062    9.6454    0.0000 F   0  0  0  0  0  0  0  0  0  0  0  0
    3.9562    8.3463    0.0000 C   0  0  0  0  0  0  0  0  0  0  0  0
    2.4645    8.1895    0.0000 C   0  0  0  0  0  0  0  0  0  0  0  0
    2.1526    6.7223    0.0000 N   0  0  0  0  0  0  0  0  0  0  0  0
    3.4516    5.9723    0.0000 N   0  0  0  0  0  0  0  0  0  0  0  0
    4.5663    6.9760    0.0000 C   0  0  0  0  0  0  0  0  0  0  0  0
    0.7823    6.1122    0.0000 C   0  0  0  0  0  0  0  0  0  0  0  0
   -0.4313    6.9939    0.0000 C   0  0  0  0  0  0  0  0  0  0  0  0
   -1.8016    6.3838    0.0000 C   0  0  0  0  0  0  0  0  0  0  0  0
   -0.7449    4.0103    0.0000 C   0  0  0  0  0  0  0  0  0  0  0  0
    0.6255    4.6204    0.0000 C   0  0  0  0  0  0  0  0  0  0  0  0
   -1.9584    4.8920    0.0000 N   0  0  0  0  0  0  0  0  0  0  0  0
    6.9562   13.5425    0.0000 N   0  0  0  0  0  0  0  0  0  0  0  0
  1  2  2  0  0  0  0
  1  6  1  0  0  0  0
  1 30  1  0  0  0  0
  2  3  1  0  0  0  0
  3  4  2  0  0  0  0
  4  5  1  0  0  0  0
  4 19  1  0  0  0  0
  5  6  2  0  0  0  0
  6  7  1  0  0  0  0
  8  7  1  1  0  0  0
  8  9  1  0  0  0  0
  8 10  1  0  0  0  0
 10 11  2  0  0  0  0
 10 15  1  0  0  0  0
 11 12  1  0  0  0  0
 11 17  1  0  0  0  0
 12 13  2  0  0  0  0
 13 14  1  0  0  0  0
 13 18  1  0  0  0  0
 14 15  2  0  0  0  0
 15 16  1  0  0  0  0
 19 20  2  0  0  0  0
 19 23  1  0  0  0  0
 20 21  1  0  0  0  0
 21 22  1  0  0  0  0
 21 24  1  0  0  0  0
 22 23  2  0  0  0  0
 24 25  1  0  0  0  0
 24 28  1  0  0  0  0
 25 26  1  0  0  0  0
 26 29  1  0  0  0  0
 27 28  1  0  0  0  0
 27 29  1  0  0  0  0
M  END
