6396
 OpenBabel07281513542D

 11 13  0  0  0  0  0  0  0  0999 V2000
   -5.4265   -2.0490    0.0000 N   0  0  0  0  0  0  0  0  0  0  0  0
   -4.1275   -2.7990    0.0000 P   0  0  0  0  0  0  0  0  0  0  0  0
   -3.3775   -1.5000    0.0000 S   0  0  0  0  0  0  0  0  0  0  0  0
   -4.8775   -4.0981    0.0000 N   0  0  0  0  0  0  0  0  0  0  0  0
   -2.8285   -3.5490    0.0000 N   0  0  0  0  0  0  0  0  0  0  0  0
   -1.3285   -3.5490    0.0000 C   0  0  0  0  0  0  0  0  0  0  0  0
   -2.0785   -4.8481    0.0000 C   0  0  0  0  0  0  0  0  0  0  0  0
   -6.1765   -0.7500    0.0000 C   0  0  0  0  0  0  0  0  0  0  0  0
   -6.9265   -2.0490    0.0000 C   0  0  0  0  0  0  0  0  0  0  0  0
   -4.8775   -5.5981    0.0000 C   0  0  0  0  0  0  0  0  0  0  0  0
   -6.1765   -4.8481    0.0000 C   0  0  0  0  0  0  0  0  0  0  0  0
  1  2  1  0  0  0  0
  1  8  1  0  0  0  0
  1  9  1  0  0  0  0
  2  3  2  0  0  0  0
  2  5  1  0  0  0  0
  2  4  1  0  0  0  0
  4 10  1  0  0  0  0
  4 11  1  0  0  0  0
  5  6  1  0  0  0  0
  5  7  1  0  0  0  0
  6  7  1  0  0  0  0
  8  9  1  0  0  0  0
 10 11  1  0  0  0  0
M  END
