719627
 OpenBabel07281513542D

 26 28  0  0  0  0  0  0  0  0999 V2000
  -10.1899    2.9628    0.0000 C   0  0  0  0  0  0  0  0  0  0  0  0
  -10.5017    1.4955    0.0000 C   0  0  0  0  0  0  0  0  0  0  0  0
   -9.3870    0.4918    0.0000 C   0  0  0  0  0  0  0  0  0  0  0  0
   -7.9604    0.9554    0.0000 C   0  0  0  0  0  0  0  0  0  0  0  0
   -7.6485    2.4226    0.0000 C   0  0  0  0  0  0  0  0  0  0  0  0
   -8.7633    3.4263    0.0000 C   0  0  0  0  0  0  0  0  0  0  0  0
   -8.3015   -2.2901    0.0000 C   0  0  0  0  0  0  0  0  0  0  0  0
   -8.3015   -3.7901    0.0000 C   0  0  0  0  0  0  0  0  0  0  0  0
   -9.6005   -4.5401    0.0000 C   0  0  0  0  0  0  0  0  0  0  0  0
  -10.8996   -3.7901    0.0000 C   0  0  0  0  0  0  0  0  0  0  0  0
  -10.8996   -2.2901    0.0000 C   0  0  0  0  0  0  0  0  0  0  0  0
   -9.6006   -1.5401    0.0000 C   0  0  0  0  0  0  0  0  0  0  0  0
   -4.6285   -1.0355    0.0000 C   0  0  0  0  0  0  0  0  0  0  0  0
   -5.3785    0.2636    0.0000 N   0  0  0  0  0  0  0  0  0  0  0  0
   -6.8457   -0.0483    0.0000 N   0  0  0  0  0  0  0  0  0  0  0  0
   -7.0025   -1.5401    0.0000 C   0  0  0  0  0  0  0  0  0  0  0  0
   -5.6322   -2.1502    0.0000 C   0  0  0  0  0  0  0  0  0  0  0  0
   -3.1367   -1.1923    0.0000 C   0  0  0  0  0  0  0  0  0  0  0  0
   -3.2935   -2.6840    0.0000 F   0  0  0  0  0  0  0  0  0  0  0  0
   -2.9799    0.2995    0.0000 F   0  0  0  0  0  0  0  0  0  0  0  0
   -1.6449   -1.3490    0.0000 F   0  0  0  0  0  0  0  0  0  0  0  0
  -12.1986   -4.5401    0.0000 C   0  0  0  0  0  0  0  0  0  0  0  0
  -10.3009    5.0812    0.0000 O   0  0  0  0  0  0  0  0  0  0  0  0
  -11.3046    3.9665    0.0000 S   0  0  0  0  0  0  0  0  0  0  0  0
  -12.4193    4.9701    0.0000 O   0  0  0  0  0  0  0  0  0  0  0  0
  -12.3083    2.8517    0.0000 N   0  0  0  0  0  0  0  0  0  0  0  0
  1  2  2  0  0  0  0
  1  6  1  0  0  0  0
  1 24  1  0  0  0  0
  2  3  1  0  0  0  0
  3  4  2  0  0  0  0
  4  5  1  0  0  0  0
  4 15  1  0  0  0  0
  5  6  2  0  0  0  0
  7  8  2  0  0  0  0
  7 12  1  0  0  0  0
  7 16  1  0  0  0  0
  8  9  1  0  0  0  0
  9 10  2  0  0  0  0
 10 11  1  0  0  0  0
 10 22  1  0  0  0  0
 11 12  2  0  0  0  0
 13 14  2  0  0  0  0
 13 17  1  0  0  0  0
 13 18  1  0  0  0  0
 14 15  1  0  0  0  0
 15 16  1  0  0  0  0
 16 17  2  0  0  0  0
 18 19  1  0  0  0  0
 18 20  1  0  0  0  0
 18 21  1  0  0  0  0
 23 24  2  0  0  0  0
 24 25  2  0  0  0  0
 24 26  1  0  0  0  0
M  END
