246131
 OpenBabel07281513532D

 51 55  0  0  1  0  0  0  0  0999 V2000
  -15.2061  -11.1801    0.0000 O   0  0  0  0  0  0  0  0  0  0  0  0
  -15.2061   -5.1801    0.0000 O   0  0  0  0  0  0  0  0  0  0  0  0
   -8.7109  -13.4301    0.0000 O   0  0  0  0  0  0  0  0  0  0  0  0
  -10.0100  -11.1801    0.0000 O   0  0  0  0  0  0  0  0  0  0  0  0
  -15.2061   -6.6801    0.0000 C   0  0  0  0  0  0  0  0  0  0  0  0
  -13.9071   -7.4301    0.0000 C   0  0  0  0  0  0  0  0  0  0  0  0
  -17.8042   -6.6801    0.0000 C   0  0  0  0  0  0  0  0  0  0  0  0
  -19.1033   -7.4301    0.0000 C   0  0  0  0  0  0  0  0  0  0  0  0
  -16.5052   -7.4301    0.0000 C   0  0  0  0  0  0  0  0  0  0  0  0
  -12.6081   -6.6801    0.0000 C   0  0  0  0  0  0  0  0  0  0  0  0
  -11.3090   -7.4301    0.0000 C   0  0  0  0  0  0  0  0  0  0  0  0
  -10.0100   -6.6801    0.0000 C   0  0  0  0  0  0  0  0  0  0  0  0
   -8.7109   -7.4301    0.0000 C   0  0  1  0  0  0  0  0  0  0  0  0
  -19.1033   -8.9301    0.0000 C   0  0  0  0  0  0  0  0  0  0  0  0
  -16.5052   -8.9301    0.0000 C   0  0  0  0  0  0  0  0  0  0  0  0
  -13.9071   -8.9301    0.0000 C   0  0  0  0  0  0  0  0  0  0  0  0
  -11.3090   -8.9301    0.0000 C   0  0  0  0  0  0  0  0  0  0  0  0
   -8.7109   -8.9301    0.0000 C   0  0  0  0  0  0  0  0  0  0  0  0
  -17.8042   -9.6801    0.0000 C   0  0  0  0  0  0  0  0  0  0  0  0
  -15.2061   -9.6801    0.0000 C   0  0  0  0  0  0  0  0  0  0  0  0
  -12.6081   -9.6801    0.0000 C   0  0  0  0  0  0  0  0  0  0  0  0
  -10.0100   -9.6801    0.0000 C   0  0  2  0  0  0  0  0  0  0  0  0
   -8.7109  -11.9301    0.0000 C   0  0  3  0  0  0  0  0  0  0  0  0
   -7.4119  -11.1801    0.0000 C   0  0  0  0  0  0  0  0  0  0  0  0
   -6.1128  -11.9301    0.0000 C   0  0  3  0  0  0  0  0  0  0  0  0
   -7.4119  -14.1801    0.0000 C   0  0  3  0  0  0  0  0  0  0  0  0
   -6.1128  -13.4301    0.0000 C   0  0  3  0  0  0  0  0  0  0  0  0
  -17.8042  -11.1801    0.0000 O   0  0  0  0  0  0  0  0  0  0  0  0
  -19.1033  -11.9301    0.0000 C   0  0  0  0  0  0  0  0  0  0  0  0
   -4.8138  -14.1801    0.0000 O   0  0  0  0  0  0  0  0  0  0  0  0
  -12.6081  -11.1801    0.0000 O   0  0  0  0  0  0  0  0  0  0  0  0
  -12.6081   -5.1801    0.0000 O   0  0  0  0  0  0  0  0  0  0  0  0
   -7.4119  -12.6801    0.0000 C   0  0  0  0  0  0  0  0  0  0  0  0
   -7.2337   -7.6906    0.0000 O   0  0  0  0  0  0  0  0  0  0  0  0
   -8.1979   -6.0205    0.0000 C   0  0  0  0  0  0  0  0  0  0  0  0
   -6.7207   -5.7601    0.0000 C   0  0  0  0  0  0  0  0  0  0  0  0
   -6.2077   -4.3505    0.0000 O   0  0  0  0  0  0  0  0  0  0  0  0
   -4.7305   -4.0900    0.0000 C   0  0  0  0  0  0  0  0  0  0  0  0
   -4.2174   -2.6805    0.0000 C   0  0  0  0  0  0  0  0  0  0  0  0
   -2.7402   -2.4200    0.0000 C   0  0  0  0  0  0  0  0  0  0  0  0
   -2.2272   -1.0105    0.0000 C   0  0  0  0  0  0  0  0  0  0  0  0
   -9.1621   -4.8715    0.0000 O   0  0  0  0  0  0  0  0  0  0  0  0
   -3.7663   -5.2391    0.0000 O   0  0  0  0  0  0  0  0  0  0  0  0
   -3.6647  -12.1443    0.0000 C   0  0  0  0  0  0  0  0  0  0  0  0
   -3.9252  -13.6215    0.0000 O   0  0  0  0  0  0  0  0  0  0  0  0
   -2.2552  -11.6312    0.0000 C   0  0  0  0  0  0  0  0  0  0  0  0
   -1.7422  -13.0408    0.0000 F   0  0  0  0  0  0  0  0  0  0  0  0
   -0.8457  -11.1182    0.0000 F   0  0  0  0  0  0  0  0  0  0  0  0
   -2.7682  -10.2217    0.0000 F   0  0  0  0  0  0  0  0  0  0  0  0
   -0.7500   -0.7500    0.0000 C   0  0  0  0  0  0  0  0  0  0  0  0
   -4.8138  -11.1801    0.0000 N   0  0  0  0  0  0  0  0  0  0  0  0
  1 20  2  0  0  0  0
  2  5  2  0  0  0  0
  3 23  1  0  0  0  0
  3 26  1  0  0  0  0
  4 23  1  0  0  0  0
  5  6  1  0  0  0  0
  5  9  1  0  0  0  0
  6 16  2  0  0  0  0
  6 10  1  0  0  0  0
  7  8  2  0  0  0  0
  7  9  1  0  0  0  0
  8 14  1  0  0  0  0
  9 15  2  0  0  0  0
 10 11  2  0  0  0  0
 10 32  1  0  0  0  0
 11 12  1  0  0  0  0
 11 17  1  0  0  0  0
 12 13  1  0  0  0  0
 13 18  1  0  0  0  0
 13 34  1  6  0  0  0
 13 35  1  0  0  0  0
 14 19  2  0  0  0  0
 15 19  1  0  0  0  0
 15 20  1  0  0  0  0
 16 20  1  0  0  0  0
 16 21  1  0  0  0  0
 17 21  2  0  0  0  0
 17 22  1  0  0  0  0
 18 22  1  0  0  0  0
 19 28  1  0  0  0  0
 21 31  1  0  0  0  0
 22  4  1  6  0  0  0
 23 24  1  0  0  0  0
 24 25  1  0  0  0  0
 25 27  1  0  0  0  0
 25 51  1  0  0  0  0
 26 27  1  0  0  0  0
 26 33  1  0  0  0  0
 27 30  1  0  0  0  0
 28 29  1  0  0  0  0
 35 36  1  0  0  0  0
 35 42  2  0  0  0  0
 36 37  1  0  0  0  0
 37 38  1  0  0  0  0
 38 39  1  0  0  0  0
 38 43  2  0  0  0  0
 39 40  1  0  0  0  0
 40 41  1  0  0  0  0
 41 50  1  0  0  0  0
 44 45  2  0  0  0  0
 44 46  1  0  0  0  0
 44 51  1  0  0  0  0
 46 47  1  0  0  0  0
 46 48  1  0  0  0  0
 46 49  1  0  0  0  0
M  END
