745750
 OpenBabel07281513542D

 40 44  0  0  0  0  0  0  0  0999 V2000
    9.8572   10.5985    0.0000 C   0  0  0  0  0  0  0  0  0  0  0  0
    9.8572    9.0985    0.0000 C   0  0  0  0  0  0  0  0  0  0  0  0
   11.1563    8.3485    0.0000 C   0  0  0  0  0  0  0  0  0  0  0  0
   12.4553    9.0985    0.0000 C   0  0  0  0  0  0  0  0  0  0  0  0
   12.4553   10.5985    0.0000 C   0  0  0  0  0  0  0  0  0  0  0  0
   11.1563   11.3485    0.0000 C   0  0  0  0  0  0  0  0  0  0  0  0
   13.7544    8.3485    0.0000 C   0  0  0  0  0  0  0  0  0  0  0  0
   15.0534    9.0985    0.0000 N   0  0  0  0  0  0  0  0  0  0  0  0
   15.0534   10.5985    0.0000 C   0  0  0  0  0  0  0  0  0  0  0  0
   13.7544   11.3485    0.0000 N   0  0  0  0  0  0  0  0  0  0  0  0
    8.5582    8.3485    0.0000 C   0  0  0  0  0  0  0  0  0  0  0  0
    7.1879    8.9586    0.0000 C   0  0  0  0  0  0  0  0  0  0  0  0
    6.1842    7.8439    0.0000 C   0  0  0  0  0  0  0  0  0  0  0  0
    6.9342    6.5449    0.0000 C   0  0  0  0  0  0  0  0  0  0  0  0
    8.4014    6.8567    0.0000 O   0  0  0  0  0  0  0  0  0  0  0  0
    6.3241    5.1745    0.0000 C   0  0  0  0  0  0  0  0  0  0  0  0
    4.2222    3.6474    0.0000 C   0  0  0  0  0  0  0  0  0  0  0  0
    2.7304    3.4906    0.0000 C   0  0  0  0  0  0  0  0  0  0  0  0
    2.1203    2.1203    0.0000 S   0  0  0  0  0  0  0  0  0  0  0  0
    0.7500    2.7304    0.0000 O   0  0  0  0  0  0  0  0  0  0  0  0
    3.4906    1.5102    0.0000 O   0  0  0  0  0  0  0  0  0  0  0  0
   15.0534    6.0985    0.0000 C   0  0  0  0  0  0  0  0  0  0  0  0
   15.0534    4.5985    0.0000 C   0  0  0  0  0  0  0  0  0  0  0  0
   16.3524    3.8485    0.0000 C   0  0  0  0  0  0  0  0  0  0  0  0
   17.6515    6.0985    0.0000 C   0  0  0  0  0  0  0  0  0  0  0  0
   16.3524    6.8485    0.0000 C   0  0  0  0  0  0  0  0  0  0  0  0
   16.3524    2.3485    0.0000 Cl  0  0  0  0  0  0  0  0  0  0  0  0
   17.6515    4.5985    0.0000 C   0  0  0  0  0  0  0  0  0  0  0  0
   18.9505    3.8485    0.0000 O   0  0  0  0  0  0  0  0  0  0  0  0
   20.2496    4.5985    0.0000 C   0  0  0  0  0  0  0  0  0  0  0  0
   21.5486    3.8485    0.0000 C   0  0  0  0  0  0  0  0  0  0  0  0
   21.5486    2.3485    0.0000 C   0  0  0  0  0  0  0  0  0  0  0  0
   22.8476    1.5985    0.0000 C   0  0  0  0  0  0  0  0  0  0  0  0
   24.1467    2.3485    0.0000 C   0  0  0  0  0  0  0  0  0  0  0  0
   24.1467    3.8485    0.0000 C   0  0  0  0  0  0  0  0  0  0  0  0
   22.8476    4.5985    0.0000 C   0  0  0  0  0  0  0  0  0  0  0  0
    1.5102    0.7500    0.0000 C   0  0  0  0  0  0  0  0  0  0  0  0
   13.7544    6.8485    0.0000 N   0  0  0  0  0  0  0  0  0  0  0  0
    4.8323    5.0177    0.0000 N   0  0  0  0  0  0  0  0  0  0  0  0
   25.4457    4.5985    0.0000 F   0  0  0  0  0  0  0  0  0  0  0  0
  1  2  1  0  0  0  0
  1  6  2  0  0  0  0
  2  3  2  0  0  0  0
  2 11  1  0  0  0  0
  3  4  1  0  0  0  0
  4  5  2  0  0  0  0
  4  7  1  0  0  0  0
  5  6  1  0  0  0  0
  5 10  1  0  0  0  0
  7  8  2  0  0  0  0
  7 38  1  0  0  0  0
  8  9  1  0  0  0  0
  9 10  2  0  0  0  0
 11 12  2  0  0  0  0
 11 15  1  0  0  0  0
 12 13  1  0  0  0  0
 13 14  2  0  0  0  0
 14 15  1  0  0  0  0
 14 16  1  0  0  0  0
 16 39  1  0  0  0  0
 17 18  1  0  0  0  0
 17 39  1  0  0  0  0
 18 19  1  0  0  0  0
 19 20  2  0  0  0  0
 19 21  2  0  0  0  0
 19 37  1  0  0  0  0
 22 23  2  0  0  0  0
 22 26  1  0  0  0  0
 22 38  1  0  0  0  0
 23 24  1  0  0  0  0
 24 27  1  0  0  0  0
 24 28  2  0  0  0  0
 25 26  2  0  0  0  0
 25 28  1  0  0  0  0
 28 29  1  0  0  0  0
 29 30  1  0  0  0  0
 30 31  1  0  0  0  0
 31 32  2  0  0  0  0
 31 36  1  0  0  0  0
 32 33  1  0  0  0  0
 33 34  2  0  0  0  0
 34 35  1  0  0  0  0
 35 36  2  0  0  0  0
 35 40  1  0  0  0  0
M  END
