750691
 OpenBabel07281513532D

 34 37  0  0  1  0  0  0  0  0999 V2000
    4.8096    3.8305    0.0000 C   0  0  0  0  0  0  0  0  0  0  0  0
    4.8096    2.3305    0.0000 C   0  0  0  0  0  0  0  0  0  0  0  0
    6.1086    1.5805    0.0000 C   0  0  0  0  0  0  0  0  0  0  0  0
    7.4077    2.3305    0.0000 C   0  0  0  0  0  0  0  0  0  0  0  0
    7.4077    3.8305    0.0000 C   0  0  0  0  0  0  0  0  0  0  0  0
    6.1086    4.5805    0.0000 C   0  0  0  0  0  0  0  0  0  0  0  0
    3.5105    4.5805    0.0000 F   0  0  0  0  0  0  0  0  0  0  0  0
    3.5106    1.5805    0.0000 Cl  0  0  0  0  0  0  0  0  0  0  0  0
    8.7067    0.0805    0.0000 C   0  0  0  0  0  0  0  0  0  0  0  0
    7.4077   -0.6695    0.0000 N   0  0  0  0  0  0  0  0  0  0  0  0
    7.4077   -2.1695    0.0000 C   0  0  0  0  0  0  0  0  0  0  0  0
    8.7067   -2.9195    0.0000 N   0  0  0  0  0  0  0  0  0  0  0  0
   10.0058   -2.1695    0.0000 C   0  0  0  0  0  0  0  0  0  0  0  0
   10.0058   -0.6695    0.0000 C   0  0  0  0  0  0  0  0  0  0  0  0
   11.3048   -2.9195    0.0000 C   0  0  0  0  0  0  0  0  0  0  0  0
   12.6038   -2.1695    0.0000 C   0  0  0  0  0  0  0  0  0  0  0  0
   12.6038   -0.6695    0.0000 C   0  0  0  0  0  0  0  0  0  0  0  0
   11.3048    0.0805    0.0000 C   0  0  0  0  0  0  0  0  0  0  0  0
   13.9029   -2.9195    0.0000 O   0  0  0  0  0  0  0  0  0  0  0  0
   15.2019   -0.6695    0.0000 C   0  0  0  0  0  0  0  0  0  0  0  0
   16.5009    0.0805    0.0000 C   0  0  0  0  0  0  0  0  0  0  0  0
   15.2019   -2.1695    0.0000 O   0  0  0  0  0  0  0  0  0  0  0  0
   17.8000   -0.6695    0.0000 C   0  0  0  0  0  0  0  0  0  0  0  0
   19.0990    0.0806    0.0000 C   0  0  0  0  0  0  0  0  0  0  0  0
   13.9029   -4.4195    0.0000 C   0  0  1  0  0  0  0  0  0  0  0  0
   12.6894   -5.3012    0.0000 C   0  0  0  0  0  0  0  0  0  0  0  0
   13.1529   -6.7277    0.0000 C   0  0  0  0  0  0  0  0  0  0  0  0
   14.6529   -6.7277    0.0000 O   0  0  0  0  0  0  0  0  0  0  0  0
   15.1164   -5.3012    0.0000 C   0  0  0  0  0  0  0  0  0  0  0  0
    8.7067    1.5805    0.0000 N   0  0  0  0  0  0  0  0  0  0  0  0
   13.9029    0.0805    0.0000 N   0  0  0  0  0  0  0  0  0  0  0  0
   20.3981   -0.6694    0.0000 N   0  0  0  0  0  0  0  0  0  0  0  0
   21.6971    0.0806    0.0000 C   0  0  0  0  0  0  0  0  0  0  0  0
   20.3981   -2.1694    0.0000 C   0  0  0  0  0  0  0  0  0  0  0  0
  1  2  2  0  0  0  0
  1  6  1  0  0  0  0
  1  7  1  0  0  0  0
  2  3  1  0  0  0  0
  2  8  1  0  0  0  0
  3  4  2  0  0  0  0
  4  5  1  0  0  0  0
  4 30  1  0  0  0  0
  5  6  2  0  0  0  0
  9 10  2  0  0  0  0
  9 14  1  0  0  0  0
  9 30  1  0  0  0  0
 10 11  1  0  0  0  0
 11 12  2  0  0  0  0
 12 13  1  0  0  0  0
 13 14  2  0  0  0  0
 13 15  1  0  0  0  0
 14 18  1  0  0  0  0
 15 16  2  0  0  0  0
 16 17  1  0  0  0  0
 16 19  1  0  0  0  0
 17 18  2  0  0  0  0
 17 31  1  0  0  0  0
 20 21  1  0  0  0  0
 20 22  2  0  0  0  0
 20 31  1  0  0  0  0
 21 23  2  0  0  0  0
 23 24  1  0  0  0  0
 24 32  1  0  0  0  0
 25 19  1  6  0  0  0
 25 26  1  0  0  0  0
 25 29  1  0  0  0  0
 26 27  1  0  0  0  0
 27 28  1  0  0  0  0
 28 29  1  0  0  0  0
 32 33  1  0  0  0  0
 32 34  1  0  0  0  0
M  END
