719345
 OpenBabel07281513532D

 22 24  0  0  1  0  0  0  0  0999 V2000
  -11.1423   -5.3083    0.0000 C   0  0  0  0  0  0  0  0  0  0  0  0
  -11.1423   -6.8083    0.0000 C   0  0  0  0  0  0  0  0  0  0  0  0
   -9.8433   -7.5583    0.0000 C   0  0  0  0  0  0  0  0  0  0  0  0
   -8.5442   -6.8083    0.0000 C   0  0  0  0  0  0  0  0  0  0  0  0
   -8.5442   -5.3083    0.0000 C   0  0  0  0  0  0  0  0  0  0  0  0
   -9.8433   -4.5583    0.0000 C   0  0  0  0  0  0  0  0  0  0  0  0
   -7.2452   -4.5583    0.0000 C   0  0  3  0  0  0  0  0  0  0  0  0
   -5.9461   -5.3083    0.0000 C   0  0  0  0  0  0  0  0  0  0  0  0
   -5.9461   -6.8083    0.0000 C   0  0  0  0  0  0  0  0  0  0  0  0
   -4.6471   -7.5583    0.0000 C   0  0  0  0  0  0  0  0  0  0  0  0
   -3.3481   -6.8083    0.0000 C   0  0  0  0  0  0  0  0  0  0  0  0
   -3.3481   -5.3083    0.0000 C   0  0  0  0  0  0  0  0  0  0  0  0
   -4.6471   -4.5583    0.0000 C   0  0  0  0  0  0  0  0  0  0  0  0
   -7.2452   -3.0583    0.0000 N   0  0  0  0  0  0  0  0  0  0  0  0
   -6.0317   -2.1766    0.0000 C   0  0  0  0  0  0  0  0  0  0  0  0
   -6.4952   -0.7500    0.0000 N   0  0  0  0  0  0  0  0  0  0  0  0
   -7.9952   -0.7500    0.0000 C   0  0  0  0  0  0  0  0  0  0  0  0
   -8.4587   -2.1766    0.0000 N   0  0  0  0  0  0  0  0  0  0  0  0
   -2.0490   -7.5583    0.0000 C   0  0  0  0  0  0  0  0  0  0  0  0
   -0.7500   -8.3083    0.0000 N   0  0  0  0  0  0  0  0  0  0  0  0
  -12.4413   -7.5583    0.0000 C   0  0  0  0  0  0  0  0  0  0  0  0
  -13.7404   -8.3083    0.0000 N   0  0  0  0  0  0  0  0  0  0  0  0
  1  2  1  0  0  0  0
  1  6  2  0  0  0  0
  2  3  2  0  0  0  0
  2 21  1  0  0  0  0
  3  4  1  0  0  0  0
  4  5  2  0  0  0  0
  5  6  1  0  0  0  0
  5  7  1  0  0  0  0
  7  8  1  0  0  0  0
  7 14  1  0  0  0  0
  8  9  1  0  0  0  0
  8 13  2  0  0  0  0
  9 10  2  0  0  0  0
 10 11  1  0  0  0  0
 11 12  2  0  0  0  0
 11 19  1  0  0  0  0
 12 13  1  0  0  0  0
 14 15  1  0  0  0  0
 14 18  1  0  0  0  0
 15 16  2  0  0  0  0
 16 17  1  0  0  0  0
 17 18  2  0  0  0  0
 19 20  3  0  0  0  0
 21 22  3  0  0  0  0
M  END
