256439
 OpenBabel07281513532D

 42 46  0  0  1  0  0  0  0  0999 V2000
   10.5000    3.3481    0.0000 O   0  0  0  0  0  0  0  0  0  0  0  0
    9.7500    4.6471    0.0000 C   0  0  3  0  0  0  0  0  0  0  0  0
   12.0000    3.3481    0.0000 C   0  0  3  0  0  0  0  0  0  0  0  0
    8.2500    4.6471    0.0000 C   0  0  0  0  0  0  0  0  0  0  0  0
   10.5000    5.9462    0.0000 C   0  0  0  0  0  0  0  0  0  0  0  0
   12.7500    4.6471    0.0000 C   0  0  0  0  0  0  0  0  0  0  0  0
   12.7500    2.0490    0.0000 O   0  0  0  0  0  0  0  0  0  0  0  0
    7.5000    5.9462    0.0000 C   0  0  0  0  0  0  0  0  0  0  0  0
    7.5000    3.3481    0.0000 C   0  0  0  0  0  0  0  0  0  0  0  0
    9.7500    7.2452    0.0000 C   0  0  3  0  0  0  0  0  0  0  0  0
   14.2500    4.6471    0.0000 C   0  0  3  0  0  0  0  0  0  0  0  0
   14.2500    2.0490    0.0000 C   0  0  3  0  0  0  0  0  0  0  0  0
    6.0000    5.9462    0.0000 C   0  0  0  0  0  0  0  0  0  0  0  0
    8.2500    7.2452    0.0000 C   0  0  0  0  0  0  0  0  0  0  0  0
    8.2500    2.0490    0.0000 O   0  0  0  0  0  0  0  0  0  0  0  0
    6.0000    3.3481    0.0000 C   0  0  0  0  0  0  0  0  0  0  0  0
   11.1595    7.7582    0.0000 C   0  0  0  0  0  0  0  0  0  0  0  0
    9.4895    8.7224    0.0000 O   0  0  0  0  0  0  0  0  0  0  0  0
   15.0000    5.9462    0.0000 N   0  0  0  0  0  0  0  0  0  0  0  0
   15.0000    3.3481    0.0000 C   0  0  3  0  0  0  0  0  0  0  0  0
   15.0000    0.7500    0.0000 C   0  0  0  0  0  0  0  0  0  0  0  0
    5.2500    7.2452    0.0000 O   0  0  0  0  0  0  0  0  0  0  0  0
    5.2500    4.6471    0.0000 C   0  0  0  0  0  0  0  0  0  0  0  0
    5.2500    2.0490    0.0000 C   0  0  0  0  0  0  0  0  0  0  0  0
   11.4200    9.2354    0.0000 C   0  0  0  0  0  0  0  0  0  0  0  0
   12.3086    6.7941    0.0000 O   0  0  0  0  0  0  0  0  0  0  0  0
   16.5000    3.3481    0.0000 O   0  0  0  0  0  0  0  0  0  0  0  0
    3.7500    4.6471    0.0000 C   0  0  0  0  0  0  0  0  0  0  0  0
    6.0000    0.7500    0.0000 O   0  0  0  0  0  0  0  0  0  0  0  0
    3.7500    2.0490    0.0000 C   0  0  0  0  0  0  0  0  0  0  0  0
    3.0000    5.9462    0.0000 O   0  0  0  0  0  0  0  0  0  0  0  0
    3.0000    3.3481    0.0000 C   0  0  0  0  0  0  0  0  0  0  0  0
    3.0000    0.7500    0.0000 C   0  0  0  0  0  0  0  0  0  0  0  0
    1.5000    3.3481    0.0000 C   0  0  0  0  0  0  0  0  0  0  0  0
    1.5000    0.7500    0.0000 C   0  0  0  0  0  0  0  0  0  0  0  0
    0.7500    2.0490    0.0000 C   0  0  0  0  0  0  0  0  0  0  0  0
   17.2500    2.0490    0.0000 H   0  0  0  0  0  0  0  0  0  0  0  0
    3.7500    7.2452    0.0000 H   0  0  0  0  0  0  0  0  0  0  0  0
   14.2500    7.2452    0.0000 H   0  0  0  0  0  0  0  0  0  0  0  0
   16.5000    5.9462    0.0000 H   0  0  0  0  0  0  0  0  0  0  0  0
    8.0800    9.2354    0.0000 H   0  0  0  0  0  0  0  0  0  0  0  0
    9.7500    2.0490    0.0000 H   0  0  0  0  0  0  0  0  0  0  0  0
  2  1  1  0  0  0  0
  3  1  1  0  0  0  0
  4  2  1  0  0  0  0
  5  2  1  0  0  0  0
  6  3  1  0  0  0  0
  7  3  1  0  0  0  0
  8  4  2  0  0  0  0
  9  4  1  0  0  0  0
 10  5  1  0  0  0  0
 11  6  1  0  0  0  0
 12  7  1  0  0  0  0
 13  8  1  0  0  0  0
 14  8  1  0  0  0  0
 14 10  1  0  0  0  0
 15  9  1  0  0  0  0
 15 42  1  0  0  0  0
 16  9  2  0  0  0  0
 17 10  1  0  0  0  0
 18 10  1  0  0  0  0
 18 41  1  0  0  0  0
 19 11  1  0  0  0  0
 19 39  1  0  0  0  0
 19 40  1  0  0  0  0
 20 11  1  0  0  0  0
 20 12  1  0  0  0  0
 21 12  1  0  0  0  0
 22 13  1  0  0  0  0
 22 38  1  0  0  0  0
 23 13  2  0  0  0  0
 23 16  1  0  0  0  0
 24 16  1  0  0  0  0
 25 17  1  0  0  0  0
 26 17  2  0  0  0  0
 27 20  1  0  0  0  0
 27 37  1  0  0  0  0
 28 23  1  0  0  0  0
 29 24  2  0  0  0  0
 30 24  1  0  0  0  0
 31 28  2  0  0  0  0
 32 28  1  0  0  0  0
 32 30  1  0  0  0  0
 33 30  2  0  0  0  0
 34 32  2  0  0  0  0
 35 33  1  0  0  0  0
 36 34  1  0  0  0  0
 36 35  2  0  0  0  0
M  END
