761388
 OpenBabel07281513532D

 36 38  0  0  0  0  0  0  0  0999 V2000
   -3.4225   -1.9695    0.0000 C   0  0  0  0  0  0  0  0  0  0  0  0
   -2.0535   -1.9695    0.0000 C   0  0  0  0  0  0  0  0  0  0  0  0
   -4.1084   -0.0015    0.0000 C   0  0  0  0  0  0  0  0  0  0  0  0
   -4.1084   -0.7895    0.0000 C   0  0  0  0  0  0  0  0  0  0  0  0
   -2.0535    0.3974    0.0000 N   0  0  0  0  0  0  0  0  0  0  0  0
   -2.0535    1.1864    0.0000 C   0  0  0  0  0  0  0  0  0  0  0  0
   -3.4225    1.1864    0.0000 C   0  0  0  0  0  0  0  0  0  0  0  0
   -1.3704   -0.0015    0.0000 C   0  0  0  0  0  0  0  0  0  0  0  0
   -1.3704   -0.7895    0.0000 C   0  0  0  0  0  0  0  0  0  0  0  0
   -2.7394    1.5764    0.0000 C   0  0  0  0  0  0  0  0  0  0  0  0
   -2.7394   -2.3675    0.0000 C   0  0  0  0  0  0  0  0  0  0  0  0
    2.0544   -1.1835    0.0000 C   0  0  0  0  0  0  0  0  0  0  0  0
    3.4235   -1.1835    0.0000 C   0  0  0  0  0  0  0  0  0  0  0  0
    1.3685    0.7844    0.0000 C   0  0  0  0  0  0  0  0  0  0  0  0
    1.3685   -0.0046    0.0000 C   0  0  0  0  0  0  0  0  0  0  0  0
    2.0544   -0.3945    0.0000 N   0  0  0  0  0  0  0  0  0  0  0  0
    3.4235    1.9714    0.0000 C   0  0  0  0  0  0  0  0  0  0  0  0
    2.0544    1.9714    0.0000 C   0  0  0  0  0  0  0  0  0  0  0  0
    4.1065    0.7844    0.0000 C   0  0  0  0  0  0  0  0  0  0  0  0
    4.1065   -0.0046    0.0000 C   0  0  0  0  0  0  0  0  0  0  0  0
    2.7374    2.3624    0.0000 C   0  0  0  0  0  0  0  0  0  0  0  0
    2.7374   -1.5815    0.0000 C   0  0  0  0  0  0  0  0  0  0  0  0
   -0.6855    0.3974    0.0000 C   0  0  0  0  0  0  0  0  0  0  0  0
   -0.6855   -0.3945    0.0000 C   0  0  0  0  0  0  0  0  0  0  0  0
    0.0004   -0.7905    0.0000 C   0  0  0  0  0  0  0  0  0  0  0  0
    0.6865   -0.3945    0.0000 C   0  0  0  0  0  0  0  0  0  0  0  0
    0.6865    0.3974    0.0000 C   0  0  0  0  0  0  0  0  0  0  0  0
    0.0004    0.7935    0.0000 C   0  0  0  0  0  0  0  0  0  0  0  0
    1.3704   -0.7895    0.0000 C   0  0  0  0  0  0  0  0  0  0  0  0
   -1.3694    0.7924    0.0000 C   0  0  0  0  0  0  0  0  0  0  0  0
   -3.4225    0.3974    0.0000 N   0  0  0  0  0  0  0  0  0  0  0  0
   -3.4225   -1.1805    0.0000 N   0  0  0  0  0  0  0  0  0  0  0  0
    2.0544    1.1825    0.0000 N   0  0  0  0  0  0  0  0  0  0  0  0
    3.4235   -0.3945    0.0000 N   0  0  0  0  0  0  0  0  0  0  0  0
    3.4235    1.1825    0.0000 N   0  0  0  0  0  0  0  0  0  0  0  0
   -2.0535   -1.1805    0.0000 N   0  0  0  0  0  0  0  0  0  0  0  0
  1 11  1  0  0  0  0
  1 32  1  0  0  0  0
  2 11  1  0  0  0  0
  2 36  1  0  0  0  0
  3  4  1  0  0  0  0
  3 31  1  0  0  0  0
  4 32  1  0  0  0  0
  5  6  1  0  0  0  0
  5  8  1  0  0  0  0
  5 30  1  0  0  0  0
  6 10  1  0  0  0  0
  7 10  1  0  0  0  0
  7 31  1  0  0  0  0
  8  9  1  0  0  0  0
  9 36  1  0  0  0  0
 12 16  1  0  0  0  0
 12 22  1  0  0  0  0
 13 22  1  0  0  0  0
 13 34  1  0  0  0  0
 14 15  1  0  0  0  0
 14 33  1  0  0  0  0
 15 16  1  0  0  0  0
 16 29  1  0  0  0  0
 17 21  1  0  0  0  0
 17 35  1  0  0  0  0
 18 21  1  0  0  0  0
 18 33  1  0  0  0  0
 19 20  1  0  0  0  0
 19 35  1  0  0  0  0
 20 34  1  0  0  0  0
 23 24  2  0  0  0  0
 23 28  1  0  0  0  0
 23 30  1  0  0  0  0
 24 25  1  0  0  0  0
 25 26  2  0  0  0  0
 26 27  1  0  0  0  0
 26 29  1  0  0  0  0
 27 28  2  0  0  0  0
M  END
