19893
 OpenBabel07281513532D

 11 11  0  0  0  0  0  0  0  0999 V2000
   -2.6033   -6.0090    0.0000 F   0  0  0  0  0  0  0  0  0  0  0  0
   -0.0052   -3.0090    0.0000 N   0  0  0  0  0  0  0  0  0  0  0  0
   -0.0052   -1.5090    0.0000 H   0  0  0  0  0  0  0  0  0  0  0  0
   -0.0052   -7.5090    0.0000 O   0  0  0  0  0  0  0  0  0  0  0  0
    1.2938   -5.2590    0.0000 N   0  0  0  0  0  0  0  0  0  0  0  0
    2.5929   -6.0090    0.0000 H   0  0  0  0  0  0  0  0  0  0  0  0
    2.5929   -3.0090    0.0000 O   0  0  0  0  0  0  0  0  0  0  0  0
    1.2938   -3.7590    0.0000 C   0  0  0  0  0  0  0  0  0  0  0  0
   -1.3042   -3.7590    0.0000 C   0  0  0  0  0  0  0  0  0  0  0  0
   -1.3042   -5.2590    0.0000 C   0  0  0  0  0  0  0  0  0  0  0  0
   -0.0052   -6.0090    0.0000 C   0  0  0  0  0  0  0  0  0  0  0  0
  1 10  1  0  0  0  0
  2  8  1  0  0  0  0
  2  9  1  0  0  0  0
  2  3  1  0  0  0  0
  4 11  2  0  0  0  0
  5  8  1  0  0  0  0
  5 11  1  0  0  0  0
  5  6  1  0  0  0  0
  7  8  2  0  0  0  0
  9 10  2  0  0  0  0
 10 11  1  0  0  0  0
M  END
