719344
 OpenBabel07281513532D

 22 23  0  0  0  0  0  0  0  0999 V2000
   -7.2452   -6.0000    0.0000 C   0  0  0  0  0  0  0  0  0  0  0  0
   -7.2452   -7.5000    0.0000 C   0  0  0  0  0  0  0  0  0  0  0  0
   -5.9461   -8.2500    0.0000 C   0  0  0  0  0  0  0  0  0  0  0  0
   -4.6471   -7.5000    0.0000 C   0  0  0  0  0  0  0  0  0  0  0  0
   -4.6471   -6.0000    0.0000 C   0  0  0  0  0  0  0  0  0  0  0  0
   -5.9461   -5.2500    0.0000 C   0  0  0  0  0  0  0  0  0  0  0  0
   -8.5442   -8.2500    0.0000 C   0  0  0  0  0  0  0  0  0  0  0  0
   -9.8433   -7.5000    0.0000 N   0  0  0  0  0  0  0  0  0  0  0  0
  -10.0001   -6.0082    0.0000 N   0  0  0  0  0  0  0  0  0  0  0  0
  -11.4673   -5.6964    0.0000 C   0  0  0  0  0  0  0  0  0  0  0  0
  -12.2173   -6.9954    0.0000 N   0  0  0  0  0  0  0  0  0  0  0  0
  -11.2136   -8.1101    0.0000 C   0  0  0  0  0  0  0  0  0  0  0  0
   -5.9461   -3.7500    0.0000 C   0  0  0  0  0  0  0  0  0  0  0  0
   -3.3481   -8.2500    0.0000 C   0  0  0  0  0  0  0  0  0  0  0  0
   -5.9461   -2.2500    0.0000 C   0  0  0  0  0  0  0  0  0  0  0  0
   -5.9461   -0.7500    0.0000 N   0  0  0  0  0  0  0  0  0  0  0  0
   -2.0490   -7.5000    0.0000 C   0  0  0  0  0  0  0  0  0  0  0  0
   -0.7500   -6.7500    0.0000 N   0  0  0  0  0  0  0  0  0  0  0  0
   -4.4461   -3.7500    0.0000 C   0  0  0  0  0  0  0  0  0  0  0  0
   -4.0981   -9.5490    0.0000 C   0  0  0  0  0  0  0  0  0  0  0  0
   -2.5981   -9.5490    0.0000 C   0  0  0  0  0  0  0  0  0  0  0  0
   -7.4461   -3.7500    0.0000 C   0  0  0  0  0  0  0  0  0  0  0  0
  1  2  2  0  0  0  0
  1  6  1  0  0  0  0
  2  3  1  0  0  0  0
  2  7  1  0  0  0  0
  3  4  2  0  0  0  0
  4  5  1  0  0  0  0
  4 14  1  0  0  0  0
  5  6  2  0  0  0  0
  6 13  1  0  0  0  0
  7  8  1  0  0  0  0
  8  9  1  0  0  0  0
  8 12  1  0  0  0  0
  9 10  2  0  0  0  0
 10 11  1  0  0  0  0
 11 12  2  0  0  0  0
 13 15  1  0  0  0  0
 13 19  1  0  0  0  0
 13 22  1  0  0  0  0
 14 17  1  0  0  0  0
 14 20  1  0  0  0  0
 14 21  1  0  0  0  0
 15 16  3  0  0  0  0
 17 18  3  0  0  0  0
M  END
