138783
 OpenBabel07281513532D

 24 24  0  0  0  0  0  0  0  0999 V2000
   -9.2545   -6.2091    0.0000 C   0  0  0  0  0  0  0  0  0  0  0  0
   -9.2545   -7.7091    0.0000 C   0  0  0  0  0  0  0  0  0  0  0  0
   -7.9555   -8.4591    0.0000 C   0  0  0  0  0  0  0  0  0  0  0  0
   -6.6564   -7.7091    0.0000 C   0  0  0  0  0  0  0  0  0  0  0  0
   -6.6564   -6.2091    0.0000 C   0  0  0  0  0  0  0  0  0  0  0  0
   -7.9555   -5.4591    0.0000 C   0  0  0  0  0  0  0  0  0  0  0  0
   -5.2298   -8.1727    0.0000 N   0  0  0  0  0  0  0  0  0  0  0  0
   -4.3482   -6.9591    0.0000 C   0  0  0  0  0  0  0  0  0  0  0  0
   -5.2298   -5.7456    0.0000 N   0  0  0  0  0  0  0  0  0  0  0  0
  -10.5535   -8.4591    0.0000 N   0  0  0  0  0  0  0  0  0  0  0  0
  -11.8526   -7.7091    0.0000 C   0  0  0  0  0  0  0  0  0  0  0  0
  -10.5535   -9.9591    0.0000 C   0  0  0  0  0  0  0  0  0  0  0  0
  -13.1516   -8.4591    0.0000 C   0  0  0  0  0  0  0  0  0  0  0  0
  -13.1516   -9.9591    0.0000 Cl  0  0  0  0  0  0  0  0  0  0  0  0
  -11.8526  -10.7091    0.0000 C   0  0  0  0  0  0  0  0  0  0  0  0
  -11.8526  -12.2091    0.0000 Cl  0  0  0  0  0  0  0  0  0  0  0  0
   -2.8482   -6.9591    0.0000 C   0  0  0  0  0  0  0  0  0  0  0  0
   -2.0982   -5.6601    0.0000 C   0  0  0  0  0  0  0  0  0  0  0  0
   -0.5982   -5.6601    0.0000 C   0  0  0  0  0  0  0  0  0  0  0  0
   -4.7663   -4.3190    0.0000 C   0  0  0  0  0  0  0  0  0  0  0  0
    0.1518   -4.3611    0.0000 C   0  0  0  0  0  0  0  0  0  0  0  0
    1.6518   -4.3611    0.0000 O   0  0  0  0  0  0  0  0  0  0  0  0
   -0.5982   -3.0620    0.0000 O   0  0  0  0  0  0  0  0  0  0  0  0
   -4.3393   -9.6034    0.0000 Cl  0  0  0  0  0  0  0  0  0  0  0  0
  1  2  2  0  0  0  0
  1  6  1  0  0  0  0
  2  3  1  0  0  0  0
  2 10  1  0  0  0  0
  3  4  2  0  0  0  0
  4  5  1  0  0  0  0
  4  7  1  0  0  0  0
  5  6  2  0  0  0  0
  5  9  1  0  0  0  0
  7  8  2  0  0  0  0
  8  9  1  0  0  0  0
  8 17  1  0  0  0  0
  9 20  1  0  0  0  0
 10 11  1  0  0  0  0
 10 12  1  0  0  0  0
 11 13  1  0  0  0  0
 12 15  1  0  0  0  0
 13 14  1  0  0  0  0
 15 16  1  0  0  0  0
 17 18  1  0  0  0  0
 18 19  1  0  0  0  0
 19 21  1  0  0  0  0
 21 22  2  0  0  0  0
 21 23  1  0  0  0  0
M  END
