pdbs/ne.pdb
 OpenBabel07211501453D

 41 44  0  0  1  0  0  0  0  0999 V2000
   -3.0370   -3.3360    2.3570 C   0  0  0  0  0  0  0  0  0  0  0  0
   -2.2530   -4.2620    1.7880 C   0  0  0  0  0  0  0  0  0  0  0  0
   -1.1820   -3.9360    1.0460 C   0  0  0  0  0  0  0  0  0  0  0  0
   -0.8880   -2.6320    0.8670 C   0  0  0  0  0  0  0  0  0  0  0  0
   -1.6460   -1.6660    1.4280 C   0  0  0  0  0  0  0  0  0  0  0  0
   -2.7140   -2.0500    2.1520 C   0  0  0  0  0  0  0  0  0  0  0  0
    0.3110   -2.2410    0.0320 C   0  0  0  0  0  0  0  0  0  0  0  0
    0.7270   -0.7960    0.3240 C   0  0  2  0  0  0  0  0  0  0  0  0
   -0.5290    0.0660    0.2390 C   0  0  2  0  0  0  0  0  0  0  0  0
   -1.4250   -0.3230    1.2530 O   0  0  0  0  0  0  0  0  0  0  0  0
   -1.1570    0.1400   -1.1500 C   0  0  0  0  0  0  0  0  0  0  0  0
   -0.6770    1.0120   -2.0550 C   0  0  0  0  0  0  0  0  0  0  0  0
   -1.1880    1.1240   -3.2910 C   0  0  0  0  0  0  0  0  0  0  0  0
   -2.2210    0.3400   -3.6430 C   0  0  0  0  0  0  0  0  0  0  0  0
   -2.7300   -0.5390   -2.7630 C   0  0  0  0  0  0  0  0  0  0  0  0
   -2.1960   -0.6230   -1.5340 C   0  0  0  0  0  0  0  0  0  0  0  0
    1.6930   -0.4420   -0.6130 O   0  0  0  0  0  0  0  0  0  0  0  0
    2.5570    0.6360   -0.6160 C   0  0  0  0  0  0  0  0  0  0  0  0
    3.2360    0.6730   -1.6320 O   0  0  0  0  0  0  0  0  0  0  0  0
    2.7680    1.6330    0.3110 C   0  0  0  0  0  0  0  0  0  0  0  0
    2.1460    1.7340    1.5010 C   0  0  0  0  0  0  0  0  0  0  0  0
    2.3770    2.7250    2.3790 C   0  0  0  0  0  0  0  0  0  0  0  0
    3.2730    3.6770    2.0790 C   0  0  0  0  0  0  0  0  0  0  0  0
    3.9250    3.6210    0.9080 C   0  0  0  0  0  0  0  0  0  0  0  0
    3.6640    2.6130    0.0590 C   0  0  0  0  0  0  0  0  0  0  0  0
    1.7230    2.7860    3.5710 O   0  0  0  0  0  0  0  0  0  0  0  0
    2.0290    3.5720    4.0520 H   0  0  0  0  0  0  0  0  0  0  0  0
    3.5250    4.6900    2.9480 O   0  0  0  0  0  0  0  0  0  0  0  0
    4.1950    5.2760    2.5600 H   0  0  0  0  0  0  0  0  0  0  0  0
    4.8340    4.5830    0.5990 O   0  0  0  0  0  0  0  0  0  0  0  0
    5.2110    4.4150   -0.2790 H   0  0  0  0  0  0  0  0  0  0  0  0
   -0.4340   -4.9210    0.4750 O   0  0  0  0  0  0  0  0  0  0  0  0
    0.2450   -4.5340   -0.0980 H   0  0  0  0  0  0  0  0  0  0  0  0
   -0.6870    2.0130   -4.1900 O   0  0  0  0  0  0  0  0  0  0  0  0
   -1.1890    1.9240   -5.0180 H   0  0  0  0  0  0  0  0  0  0  0  0
   -3.7790   -1.3250   -3.1220 O   0  0  0  0  0  0  0  0  0  0  0  0
   -4.0490   -1.8770   -2.3720 H   0  0  0  0  0  0  0  0  0  0  0  0
   -4.1220   -3.6920    3.0960 O   0  0  0  0  0  0  0  0  0  0  0  0
   -4.1840   -4.6610    3.1190 H   0  0  0  0  0  0  0  0  0  0  0  0
   -2.7590    0.4330   -4.8870 O   0  0  0  0  0  0  0  0  0  0  0  0
   -3.4930   -0.1990   -4.9590 H   0  0  0  0  0  0  0  0  0  0  0  0
  1 38  1  0  0  0  0
  2  1  2  0  0  0  0
  3  2  1  0  0  0  0
  4  3  2  0  0  0  0
  4  5  1  0  0  0  0
  5  6  2  0  0  0  0
  6  1  1  0  0  0  0
  7  8  1  0  0  0  0
  7  4  1  0  0  0  0
  8 17  1  6  0  0  0
  9 11  1  6  0  0  0
  9  8  1  0  0  0  0
  9 10  1  0  0  0  0
 10  5  1  0  0  0  0
 12 11  2  0  0  0  0
 13 12  1  0  0  0  0
 14 13  2  0  0  0  0
 14 15  1  0  0  0  0
 15 16  2  0  0  0  0
 16 11  1  0  0  0  0
 18 17  1  0  0  0  0
 18 20  1  0  0  0  0
 19 18  2  0  0  0  0
 20 21  1  0  0  0  0
 21 22  2  0  0  0  0
 22 26  1  0  0  0  0
 23 22  1  0  0  0  0
 23 28  1  0  0  0  0
 24 23  2  0  0  0  0
 25 20  2  0  0  0  0
 25 24  1  0  0  0  0
 26 27  1  0  0  0  0
 29 28  1  0  0  0  0
 30 24  1  0  0  0  0
 31 30  1  0  0  0  0
 32  3  1  0  0  0  0
 33 32  1  0  0  0  0
 34 13  1  0  0  0  0
 35 34  1  0  0  0  0
 36 15  1  0  0  0  0
 36 37  1  0  0  0  0
 38 39  1  0  0  0  0
 40 14  1  0  0  0  0
 41 40  1  0  0  0  0
M  END
