pdbs/aa8.pdb
 OpenBabel07281513453D

 25 25  0  0  1  0  0  0  0  0999 V2000
    0.7610    1.2300   -0.2740 C   0  0  2  0  0  0  0  0  0  0  0  0
    1.4890   -0.0400    0.1930 C   0  0  1  0  0  0  0  0  0  0  0  0
    0.7270   -1.2690   -0.3180 C   0  0  2  0  0  0  0  0  0  0  0  0
   -0.7140   -1.2040    0.2460 C   0  0  2  0  0  0  0  0  0  0  0  0
   -1.3530   -0.0040   -0.2370 O   0  0  0  0  0  0  0  0  0  0  0  0
   -0.6990    1.1960    0.2190 C   0  0  2  0  0  0  0  0  0  0  0  0
   -0.7700   -1.2200    1.6790 O   0  0  0  0  0  0  0  0  0  0  0  0
   -0.3030   -2.4560    2.1960 C   0  0  0  0  0  0  0  0  0  0  0  0
   -0.3760   -2.4520    3.6800 C   0  0  0  0  0  0  0  0  0  0  0  0
    0.2340   -3.4480    4.3340 C   0  0  0  0  0  0  0  0  0  0  0  0
    0.3330   -3.4790    5.8280 C   0  0  0  0  0  0  0  0  0  0  0  0
    1.0260   -4.7500    6.2690 C   0  0  0  0  0  0  0  0  0  0  0  0
    1.0370   -4.7990    7.7830 C   0  0  0  0  0  0  0  0  0  0  0  0
    1.7070   -6.0670    8.2700 C   0  0  0  0  0  0  0  0  0  0  0  0
    1.7070   -6.1100    9.7900 C   0  0  0  0  0  0  0  0  0  0  0  0
    2.3680   -7.3820   10.2820 C   0  0  0  0  0  0  0  0  0  0  0  0
    1.4230   -2.4860   -0.0210 O   0  0  0  0  0  0  0  0  0  0  0  0
    2.1990   -2.2420    0.5240 H   0  0  0  0  0  0  0  0  0  0  0  0
    2.8300   -0.0750   -0.3010 O   0  0  0  0  0  0  0  0  0  0  0  0
    2.7710    0.1490   -1.2520 H   0  0  0  0  0  0  0  0  0  0  0  0
   -1.5030    2.4090   -0.2670 C   0  0  0  0  0  0  0  0  0  0  0  0
   -0.9380    3.6330    0.1930 O   0  0  0  0  0  0  0  0  0  0  0  0
   -0.9770    3.6350    1.1650 H   0  0  0  0  0  0  0  0  0  0  0  0
    0.8380    1.2620   -1.7140 O   0  0  0  0  0  0  0  0  0  0  0  0
    0.0990    0.7320   -2.0670 H   0  0  0  0  0  0  0  0  0  0  0  0
  1 24  1  6  0  0  0
  1  2  1  0  0  0  0
  1  6  1  0  0  0  0
  2 19  1  6  0  0  0
  3 17  1  1  0  0  0
  3  2  1  0  0  0  0
  3  4  1  0  0  0  0
  4  7  1  1  0  0  0
  5  6  1  0  0  0  0
  5  4  1  0  0  0  0
  6 21  1  6  0  0  0
  7  8  1  0  0  0  0
  8  9  1  0  0  0  0
  9 10  2  0  0  0  0
 10 11  1  0  0  0  0
 11 12  1  0  0  0  0
 12 13  1  0  0  0  0
 13 14  1  0  0  0  0
 14 15  1  0  0  0  0
 15 16  1  0  0  0  0
 17 18  1  0  0  0  0
 20 19  1  0  0  0  0
 21 22  1  0  0  0  0
 22 23  1  0  0  0  0
 25 24  1  0  0  0  0
M  END
