pdbs/aam.pdb
 OpenBabel07281513453D

 17 17  0  0  1  0  0  0  0  0999 V2000
    0.8010    1.2010   -0.2840 C   0  0  2  0  0  0  0  0  0  0  0  0
    1.5480   -0.0570    0.1840 C   0  0  1  0  0  0  0  0  0  0  0  0
    0.7680   -1.3180   -0.2060 C   0  0  2  0  0  0  0  0  0  0  0  0
   -0.6750   -1.2180    0.3350 C   0  0  2  0  0  0  0  0  0  0  0  0
   -1.2970   -0.0360   -0.2140 O   0  0  0  0  0  0  0  0  0  0  0  0
   -0.6500    1.1720    0.2320 C   0  0  2  0  0  0  0  0  0  0  0  0
   -1.4740    2.3700   -0.2520 C   0  0  0  0  0  0  0  0  0  0  0  0
   -0.9690    3.5920    0.2720 O   0  0  0  0  0  0  0  0  0  0  0  0
   -1.2410    3.6460    1.2050 H   0  0  0  0  0  0  0  0  0  0  0  0
    0.8590    1.2100   -1.7260 O   0  0  0  0  0  0  0  0  0  0  0  0
    0.0180    0.8430   -2.0590 H   0  0  0  0  0  0  0  0  0  0  0  0
    2.8460   -0.1230   -0.4340 O   0  0  0  0  0  0  0  0  0  0  0  0
    2.7490    0.3440   -1.2910 H   0  0  0  0  0  0  0  0  0  0  0  0
   -0.7740   -1.1590    1.7600 O   0  0  0  0  0  0  0  0  0  0  0  0
   -0.4780   -2.3890    2.4080 C   0  0  0  0  0  0  0  0  0  0  0  0
    1.4710   -2.4860    0.2320 O   0  0  0  0  0  0  0  0  0  0  0  0
    2.4140   -2.2960    0.0510 H   0  0  0  0  0  0  0  0  0  0  0  0
  1 10  1  6  0  0  0
  1  2  1  0  0  0  0
  1  6  1  0  0  0  0
  2 12  1  6  0  0  0
  3  2  1  0  0  0  0
  3 16  1  1  0  0  0
  3  4  1  0  0  0  0
  4 14  1  1  0  0  0
  5  6  1  0  0  0  0
  5  4  1  0  0  0  0
  6  7  1  6  0  0  0
  7  8  1  0  0  0  0
  8  9  1  0  0  0  0
 11 10  1  0  0  0  0
 13 12  1  0  0  0  0
 14 15  1  0  0  0  0
 17 16  1  0  0  0  0
M  END
