pdbs/ab10.pdb
 OpenBabel07281513453D

 27 27  0  0  1  0  0  0  0  0999 V2000
    0.8510    1.2310   -0.3840 C   0  0  2  0  0  0  0  0  0  0  0  0
    1.7750    0.0890    0.0420 C   0  0  1  0  0  0  0  0  0  0  0  0
    1.0280   -1.2490    0.1490 C   0  0  2  0  0  0  0  0  0  0  0  0
   -0.2820   -1.0910    0.9650 C   0  0  1  0  0  0  0  0  0  0  0  0
   -1.0430    0.0300    0.4710 O   0  0  0  0  0  0  0  0  0  0  0  0
   -0.3370    1.2700    0.5830 C   0  0  2  0  0  0  0  0  0  0  0  0
   -1.1570   -2.2150    0.8410 O   0  0  0  0  0  0  0  0  0  0  0  0
   -0.7260   -3.4170    1.4650 C   0  0  0  0  0  0  0  0  0  0  0  0
   -0.7580   -3.3110    2.9610 C   0  0  0  0  0  0  0  0  0  0  0  0
    0.3240   -3.4820    3.7400 C   0  0  0  0  0  0  0  0  0  0  0  0
    0.3100   -3.4310    5.2410 C   0  0  0  0  0  0  0  0  0  0  0  0
    0.8670   -4.7290    5.8330 C   0  0  0  0  0  0  0  0  0  0  0  0
    0.9000   -4.6880    7.3630 C   0  0  0  0  0  0  0  0  0  0  0  0
    1.5240   -5.9630    7.9340 C   0  0  0  0  0  0  0  0  0  0  0  0
    1.5600   -5.9400    9.4630 C   0  0  0  0  0  0  0  0  0  0  0  0
    2.2200   -7.2030   10.0200 C   0  0  0  0  0  0  0  0  0  0  0  0
    2.2470   -7.1930   11.5480 C   0  0  0  0  0  0  0  0  0  0  0  0
    2.9130   -8.4440   12.1020 C   0  0  0  0  0  0  0  0  0  0  0  0
    1.9410   -2.1920    0.7380 O   0  0  0  0  0  0  0  0  0  0  0  0
    2.7780   -2.0820    0.2410 H   0  0  0  0  0  0  0  0  0  0  0  0
    2.8490   -0.0670   -0.9020 O   0  0  0  0  0  0  0  0  0  0  0  0
    2.4770    0.2000   -1.7680 H   0  0  0  0  0  0  0  0  0  0  0  0
   -1.2980    2.4190    0.2790 C   0  0  0  0  0  0  0  0  0  0  0  0
   -0.6920    3.6520    0.6500 O   0  0  0  0  0  0  0  0  0  0  0  0
   -1.4060    4.2480    0.9390 H   0  0  0  0  0  0  0  0  0  0  0  0
    0.4300    0.9660   -1.7360 O   0  0  0  0  0  0  0  0  0  0  0  0
   -0.4040    0.4570   -1.6840 H   0  0  0  0  0  0  0  0  0  0  0  0
  1 26  1  6  0  0  0
  1  2  1  0  0  0  0
  1  6  1  0  0  0  0
  2 21  1  6  0  0  0
  2  3  1  0  0  0  0
  3 19  1  1  0  0  0
  3  4  1  0  0  0  0
  4  7  1  6  0  0  0
  5  6  1  0  0  0  0
  5  4  1  0  0  0  0
  6 23  1  6  0  0  0
  7  8  1  0  0  0  0
  8  9  1  0  0  0  0
  9 10  2  0  0  0  0
 10 11  1  0  0  0  0
 11 12  1  0  0  0  0
 12 13  1  0  0  0  0
 13 14  1  0  0  0  0
 14 15  1  0  0  0  0
 15 16  1  0  0  0  0
 16 17  1  0  0  0  0
 17 18  1  0  0  0  0
 20 19  1  0  0  0  0
 22 21  1  0  0  0  0
 23 24  1  0  0  0  0
 24 25  1  0  0  0  0
 26 27  1  0  0  0  0
M  END
