pdbs/ab3.pdb
 OpenBabel07281513453D

 19 19  0  0  1  0  0  0  0  0999 V2000
    0.9070    1.3890   -0.3410 C   0  0  2  0  0  0  0  0  0  0  0  0
    1.8500    0.3930    0.3310 C   0  0  1  0  0  0  0  0  0  0  0  0
    1.2170   -1.0000    0.4640 C   0  0  2  0  0  0  0  0  0  0  0  0
   -0.2130   -0.9060    1.0560 C   0  0  1  0  0  0  0  0  0  0  0  0
   -0.9870    0.0920    0.3620 O   0  0  0  0  0  0  0  0  0  0  0  0
   -0.4160    1.4020    0.4340 C   0  0  2  0  0  0  0  0  0  0  0  0
   -0.9500   -2.1210    0.9010 O   0  0  0  0  0  0  0  0  0  0  0  0
   -0.5460   -3.2090    1.7230 C   0  0  0  0  0  0  0  0  0  0  0  0
   -0.8770   -2.9550    3.1610 C   0  0  0  0  0  0  0  0  0  0  0  0
    0.0250   -2.9680    4.1530 C   0  0  0  0  0  0  0  0  0  0  0  0
    2.1020   -1.7890    1.2770 O   0  0  0  0  0  0  0  0  0  0  0  0
    2.9930   -1.6470    0.8970 H   0  0  0  0  0  0  0  0  0  0  0  0
    3.0660    0.2640   -0.4260 O   0  0  0  0  0  0  0  0  0  0  0  0
    2.8060    0.4010   -1.3620 H   0  0  0  0  0  0  0  0  0  0  0  0
   -1.4150    2.4060   -0.1480 C   0  0  0  0  0  0  0  0  0  0  0  0
   -0.9780    3.7380    0.0920 O   0  0  0  0  0  0  0  0  0  0  0  0
   -1.4900    4.0840    0.8440 H   0  0  0  0  0  0  0  0  0  0  0  0
    0.7240    0.9550   -1.7020 O   0  0  0  0  0  0  0  0  0  0  0  0
   -0.0740    0.3890   -1.7220 H   0  0  0  0  0  0  0  0  0  0  0  0
  1 18  1  6  0  0  0
  1  2  1  0  0  0  0
  1  6  1  0  0  0  0
  2 13  1  6  0  0  0
  2  3  1  0  0  0  0
  3  4  1  0  0  0  0
  3 11  1  1  0  0  0
  4  7  1  6  0  0  0
  5  6  1  0  0  0  0
  5  4  1  0  0  0  0
  6 15  1  6  0  0  0
  7  8  1  0  0  0  0
  8  9  1  0  0  0  0
  9 10  2  0  0  0  0
 12 11  1  0  0  0  0
 14 13  1  0  0  0  0
 15 16  1  0  0  0  0
 16 17  1  0  0  0  0
 19 18  1  0  0  0  0
M  END
