pdbs/ab6.pdb
 OpenBabel07281513453D

 23 23  0  0  1  0  0  0  0  0999 V2000
    0.8310    1.2610   -0.3760 C   0  0  2  0  0  0  0  0  0  0  0  0
    1.5140    0.0040    0.1770 C   0  0  1  0  0  0  0  0  0  0  0  0
    0.6870   -1.2670   -0.0790 C   0  0  2  0  0  0  0  0  0  0  0  0
   -0.7750   -1.0290    0.3530 C   0  0  1  0  0  0  0  0  0  0  0  0
   -1.3050    0.1620   -0.2400 O   0  0  0  0  0  0  0  0  0  0  0  0
   -0.5980    1.3310    0.1840 C   0  0  2  0  0  0  0  0  0  0  0  0
   -1.6180   -2.1070   -0.0520 O   0  0  0  0  0  0  0  0  0  0  0  0
   -2.0330   -2.8890    1.0620 C   0  0  0  0  0  0  0  0  0  0  0  0
   -3.2120   -3.7220    0.6640 C   0  0  0  0  0  0  0  0  0  0  0  0
   -4.1410   -4.1070    1.5510 C   0  0  0  0  0  0  0  0  0  0  0  0
   -5.3550   -4.9250    1.2120 C   0  0  0  0  0  0  0  0  0  0  0  0
   -6.0340   -5.4380    2.4860 C   0  0  0  0  0  0  0  0  0  0  0  0
   -7.3010   -6.2320    2.1790 C   0  0  0  0  0  0  0  0  0  0  0  0
   -7.9730   -6.7060    3.4590 C   0  0  0  0  0  0  0  0  0  0  0  0
    1.2740   -2.3400    0.6800 O   0  0  0  0  0  0  0  0  0  0  0  0
    2.2420   -2.2370    0.5760 H   0  0  0  0  0  0  0  0  0  0  0  0
    2.8140   -0.1650   -0.4080 O   0  0  0  0  0  0  0  0  0  0  0  0
    2.7400    0.1840   -1.3220 H   0  0  0  0  0  0  0  0  0  0  0  0
   -1.3730    2.5590   -0.2920 C   0  0  0  0  0  0  0  0  0  0  0  0
   -0.8300    3.7470    0.2700 O   0  0  0  0  0  0  0  0  0  0  0  0
   -1.2100    3.8520    1.1590 H   0  0  0  0  0  0  0  0  0  0  0  0
    0.8400    1.1600   -1.8110 O   0  0  0  0  0  0  0  0  0  0  0  0
   -0.0030    0.7460   -2.0830 H   0  0  0  0  0  0  0  0  0  0  0  0
  1 22  1  6  0  0  0
  1  2  1  0  0  0  0
  1  6  1  0  0  0  0
  2 17  1  6  0  0  0
  3  2  1  0  0  0  0
  3  4  1  0  0  0  0
  3 15  1  1  0  0  0
  4  7  1  6  0  0  0
  5  6  1  0  0  0  0
  5  4  1  0  0  0  0
  6 19  1  6  0  0  0
  7  8  1  0  0  0  0
  9  8  1  0  0  0  0
  9 10  2  0  0  0  0
 11 10  1  0  0  0  0
 11 12  1  0  0  0  0
 13 12  1  0  0  0  0
 13 14  1  0  0  0  0
 16 15  1  0  0  0  0
 18 17  1  0  0  0  0
 19 20  1  0  0  0  0
 20 21  1  0  0  0  0
 23 22  1  0  0  0  0
M  END
