pdbs/ab8.pdb
 OpenBabel07281513453D

 25 25  0  0  1  0  0  0  0  0999 V2000
    0.8450    1.2750   -0.3830 C   0  0  2  0  0  0  0  0  0  0  0  0
    1.5270    0.0210    0.1770 C   0  0  1  0  0  0  0  0  0  0  0  0
    0.6930   -1.2490   -0.0620 C   0  0  2  0  0  0  0  0  0  0  0  0
   -0.7700   -1.0040    0.3670 C   0  0  1  0  0  0  0  0  0  0  0  0
   -1.2930    0.1850   -0.2370 O   0  0  0  0  0  0  0  0  0  0  0  0
   -0.5810    1.3540    0.1800 C   0  0  2  0  0  0  0  0  0  0  0  0
   -1.6170   -2.0800   -0.0380 O   0  0  0  0  0  0  0  0  0  0  0  0
   -1.9700   -2.9160    1.0580 C   0  0  0  0  0  0  0  0  0  0  0  0
   -3.1520   -3.7500    0.6660 C   0  0  0  0  0  0  0  0  0  0  0  0
   -4.1320   -4.0610    1.5280 C   0  0  0  0  0  0  0  0  0  0  0  0
   -5.3400   -4.8860    1.1840 C   0  0  0  0  0  0  0  0  0  0  0  0
   -6.0110   -5.4190    2.4550 C   0  0  0  0  0  0  0  0  0  0  0  0
   -7.2770   -6.2170    2.1430 C   0  0  0  0  0  0  0  0  0  0  0  0
   -7.9480   -6.6940    3.4320 C   0  0  0  0  0  0  0  0  0  0  0  0
   -9.2170   -7.4930    3.1410 C   0  0  0  0  0  0  0  0  0  0  0  0
   -9.8790   -7.9670    4.4250 C   0  0  0  0  0  0  0  0  0  0  0  0
    1.2850   -2.3190    0.6960 O   0  0  0  0  0  0  0  0  0  0  0  0
    2.2450   -2.2650    0.5120 H   0  0  0  0  0  0  0  0  0  0  0  0
    2.8210   -0.1590   -0.4180 O   0  0  0  0  0  0  0  0  0  0  0  0
    2.7430    0.1950   -1.3290 H   0  0  0  0  0  0  0  0  0  0  0  0
   -1.3510    2.5840   -0.3010 C   0  0  0  0  0  0  0  0  0  0  0  0
   -0.8120    3.7690    0.2700 O   0  0  0  0  0  0  0  0  0  0  0  0
   -1.2110    3.8780    1.1520 H   0  0  0  0  0  0  0  0  0  0  0  0
    0.8480    1.1600   -1.8180 O   0  0  0  0  0  0  0  0  0  0  0  0
    0.0030    0.7450   -2.0810 H   0  0  0  0  0  0  0  0  0  0  0  0
  1 24  1  6  0  0  0
  1  2  1  0  0  0  0
  1  6  1  0  0  0  0
  2 19  1  6  0  0  0
  3  2  1  0  0  0  0
  3  4  1  0  0  0  0
  3 17  1  1  0  0  0
  4  7  1  6  0  0  0
  5  6  1  0  0  0  0
  5  4  1  0  0  0  0
  6 21  1  6  0  0  0
  7  8  1  0  0  0  0
  9  8  1  0  0  0  0
  9 10  2  0  0  0  0
 11 10  1  0  0  0  0
 11 12  1  0  0  0  0
 13 12  1  0  0  0  0
 13 14  1  0  0  0  0
 15 14  1  0  0  0  0
 15 16  1  0  0  0  0
 18 17  1  0  0  0  0
 20 19  1  0  0  0  0
 21 22  1  0  0  0  0
 22 23  1  0  0  0  0
 25 24  1  0  0  0  0
M  END
