pdbs/adph.pdb
 OpenBabel07281513453D

 51 54  0  0  1  0  0  0  0  0999 V2000
   42.6240    9.5140    1.2850 P   0  0  1  0  0  0  0  0  0  0  0  0
   41.8720   10.2670    0.2470 O   0  0  0  0  0  0  0  0  0  0  0  0
   43.3590   10.6490    2.2350 O   0  0  0  0  0  0  0  0  0  0  0  0
   44.4780   10.2850    3.0030 C   0  0  0  0  0  0  0  0  0  0  0  0
   44.8810   11.4600    3.8860 C   0  0  2  0  0  0  0  0  0  0  0  0
   45.3850   12.6850    3.1280 C   0  0  2  0  0  0  0  0  0  0  0  0
   46.7440   12.9590    3.7460 C   0  0  2  0  0  0  0  0  0  0  0  0
   46.6580   12.2140    5.0640 C   0  0  2  0  0  0  0  0  0  0  0  0
   47.9530   11.8750    5.6680 N   0  0  0  0  0  0  0  0  0  0  0  0
   45.9050   11.0640    4.7560 O   0  0  0  0  0  0  0  0  0  0  0  0
   48.7890   11.0820    5.1470 C   0  0  0  0  0  0  0  0  0  0  0  0
   48.3600   12.3250    6.7760 C   0  0  0  0  0  0  0  0  0  0  0  0
   49.7960   10.9750    5.9050 N   0  0  0  0  0  0  0  0  0  0  0  0
   49.5560   11.7230    6.9020 C   0  0  0  0  0  0  0  0  0  0  0  0
   50.2980   11.9660    7.9950 C   0  0  0  0  0  0  0  0  0  0  0  0
   49.8270   12.7610    8.8650 N   0  0  0  0  0  0  0  0  0  0  0  0
   48.6890   13.2830    8.6570 C   0  0  0  0  0  0  0  0  0  0  0  0
   47.9240   13.1110    7.6620 N   0  0  0  0  0  0  0  0  0  0  0  0
   44.5490   13.7910    3.3730 O   0  0  0  0  0  0  0  0  0  0  0  0
   43.7180   13.7000    2.9020 H   0  0  0  0  0  0  0  0  0  0  0  0
   46.9590   14.3380    3.9340 O   0  0  0  0  0  0  0  0  0  0  0  0
   46.1110   14.7800    4.0220 H   0  0  0  0  0  0  0  0  0  0  0  0
   51.4260   11.3980    8.1080 N   0  0  0  0  0  0  0  0  0  0  0  0
   52.0220   11.5770    8.9520 H   0  0  0  0  0  0  0  0  0  0  0  0
   51.7680   10.7480    7.3580 H   0  0  0  0  0  0  0  0  0  0  0  0
   41.5950    9.1170    2.4760 O   0  0  0  0  0  0  0  0  0  0  0  0
   41.5820    9.7960    3.1260 H   0  0  0  0  0  0  0  0  0  0  0  0
   43.6360    8.4250    0.7230 O   0  0  0  0  0  0  0  0  0  0  0  0
   43.2770    6.8890    0.9510 P   0  0  2  0  0  0  0  0  0  0  0  0
   43.7170    6.0160   -0.1700 O   0  0  0  0  0  0  0  0  0  0  0  0
   41.8300    6.4210    1.5480 O   0  0  0  0  0  0  0  0  0  0  0  0
   41.1100    5.3570    0.9590 C   0  0  1  0  0  0  0  0  0  0  0  0
   40.0880    4.8350    1.9470 C   0  0  1  0  0  0  0  0  0  0  0  0
   39.2420    3.7760    1.2650 C   0  0  2  0  0  0  0  0  0  0  0  0
   38.6080    4.4360    0.0590 C   0  0  1  0  0  0  0  0  0  0  0  0
   39.6930    4.9870   -0.8640 C   0  0  2  0  0  0  0  0  0  0  0  0
   40.4610    5.9290   -0.1610 O   0  0  0  0  0  0  0  0  0  0  0  0
   40.7410    4.2460    3.0440 O   0  0  0  0  0  0  0  0  0  0  0  0
   40.0830    4.0450    3.7150 H   0  0  0  0  0  0  0  0  0  0  0  0
   38.2520    3.3000    2.1440 O   0  0  0  0  0  0  0  0  0  0  0  0
   38.3530    2.3520    2.2630 H   0  0  0  0  0  0  0  0  0  0  0  0
   37.7970    3.5030   -0.6070 O   0  0  0  0  0  0  0  0  0  0  0  0
   37.1070    3.2260    0.0020 H   0  0  0  0  0  0  0  0  0  0  0  0
   39.1160    5.6050   -2.1380 C   0  0  2  0  0  0  0  0  0  0  0  0
   40.0810    6.4860   -2.9100 C   0  0  0  0  0  0  0  0  0  0  0  0
   41.2570    5.7730   -3.2290 O   0  0  0  0  0  0  0  0  0  0  0  0
   41.9420    6.3920   -3.4910 H   0  0  0  0  0  0  0  0  0  0  0  0
   37.9710    6.3680   -1.8370 O   0  0  0  0  0  0  0  0  0  0  0  0
   37.2270    5.7720   -1.7140 H   0  0  0  0  0  0  0  0  0  0  0  0
   44.0710    6.3000    2.2580 O   0  0  0  0  0  0  0  0  0  0  0  0
   43.4430    6.0350    2.9080 H   0  0  0  0  0  0  0  0  0  0  0  0
  1  2  2  6  0  0  0
  1  3  1  0  0  0  0
  1 26  1  0  0  0  0
  3  4  1  0  0  0  0
  5  4  1  6  0  0  0
  5 10  1  0  0  0  0
  6 19  1  1  0  0  0
  6  7  1  0  0  0  0
  6  5  1  0  0  0  0
  7 21  1  1  0  0  0
  7  8  1  0  0  0  0
  8  9  1  6  0  0  0
  9 12  1  0  0  0  0
 10  8  1  0  0  0  0
 11  9  1  0  0  0  0
 11 13  2  0  0  0  0
 12 14  2  0  0  0  0
 12 18  1  0  0  0  0
 13 14  1  0  0  0  0
 14 15  1  0  0  0  0
 15 23  1  0  0  0  0
 15 16  2  0  0  0  0
 17 16  1  0  0  0  0
 18 17  2  0  0  0  0
 20 19  1  0  0  0  0
 21 22  1  0  0  0  0
 23 24  1  0  0  0  0
 25 23  1  0  0  0  0
 26 27  1  0  0  0  0
 28 29  1  0  0  0  0
 28  1  1  0  0  0  0
 29 30  2  6  0  0  0
 29 31  1  0  0  0  0
 29 50  1  0  0  0  0
 32 31  1  1  0  0  0
 32 33  1  0  0  0  0
 33 38  1  6  0  0  0
 34 33  1  0  0  0  0
 34 40  1  1  0  0  0
 35 42  1  6  0  0  0
 35 34  1  0  0  0  0
 36 37  1  1  0  0  0
 36 35  1  0  0  0  0
 37 32  1  0  0  0  0
 38 39  1  0  0  0  0
 40 41  1  0  0  0  0
 42 43  1  0  0  0  0
 44 45  1  1  0  0  0
 44 48  1  0  0  0  0
 44 36  1  0  0  0  0
 46 45  1  0  0  0  0
 47 46  1  0  0  0  0
 48 49  1  0  0  0  0
 50 51  1  0  0  0  0
M  END
