pdbs/ga10.pdb
 OpenBabel07281513453D

 27 27  0  0  1  0  0  0  0  0999 V2000
    0.7690    1.2990   -0.2520 C   0  0  1  0  0  0  0  0  0  0  0  0
    1.5180   -0.0110    0.0310 C   0  0  1  0  0  0  0  0  0  0  0  0
    0.7040   -1.2010   -0.4610 C   0  0  2  0  0  0  0  0  0  0  0  0
   -0.6750   -1.1710    0.2230 C   0  0  2  0  0  0  0  0  0  0  0  0
   -1.3530    0.0330   -0.1630 O   0  0  0  0  0  0  0  0  0  0  0  0
   -0.6890    1.2370    0.2560 C   0  0  2  0  0  0  0  0  0  0  0  0
   -0.5940   -1.2340    1.6510 O   0  0  0  0  0  0  0  0  0  0  0  0
   -0.4840   -2.5760    2.1170 C   0  0  0  0  0  0  0  0  0  0  0  0
   -0.4860   -2.5670    3.6150 C   0  0  0  0  0  0  0  0  0  0  0  0
    0.3450   -3.3270    4.3420 C   0  0  0  0  0  0  0  0  0  0  0  0
    0.3480   -3.3880    5.8430 C   0  0  0  0  0  0  0  0  0  0  0  0
    0.9710   -4.6980    6.3350 C   0  0  0  0  0  0  0  0  0  0  0  0
    1.0080   -4.7640    7.8610 C   0  0  0  0  0  0  0  0  0  0  0  0
    1.6850   -6.0490    8.3410 C   0  0  0  0  0  0  0  0  0  0  0  0
    1.7120   -6.1190    9.8670 C   0  0  0  0  0  0  0  0  0  0  0  0
    2.3830   -7.4030   10.3580 C   0  0  0  0  0  0  0  0  0  0  0  0
    2.3960   -7.4670   11.8840 C   0  0  0  0  0  0  0  0  0  0  0  0
    3.0570   -8.7400   12.3850 C   0  0  0  0  0  0  0  0  0  0  0  0
    1.4340   -2.4110   -0.2360 O   0  0  0  0  0  0  0  0  0  0  0  0
    2.3710   -2.1740   -0.3980 H   0  0  0  0  0  0  0  0  0  0  0  0
    2.7940   -0.0470   -0.6350 O   0  0  0  0  0  0  0  0  0  0  0  0
    2.9650    0.8480   -0.9860 H   0  0  0  0  0  0  0  0  0  0  0  0
   -1.5360    2.4080   -0.2780 C   0  0  0  0  0  0  0  0  0  0  0  0
   -1.0990    3.6840    0.1640 O   0  0  0  0  0  0  0  0  0  0  0  0
   -1.0200    3.6600    1.1310 H   0  0  0  0  0  0  0  0  0  0  0  0
    1.5190    2.3750    0.3220 O   0  0  0  0  0  0  0  0  0  0  0  0
    1.6590    2.1870    1.2670 H   0  0  0  0  0  0  0  0  0  0  0  0
  1  2  1  0  0  0  0
  1  6  1  0  0  0  0
  1 26  1  1  0  0  0
  2 21  1  6  0  0  0
  3 19  1  1  0  0  0
  3  2  1  0  0  0  0
  3  4  1  0  0  0  0
  4  7  1  1  0  0  0
  5  4  1  0  0  0  0
  5  6  1  0  0  0  0
  6 23  1  6  0  0  0
  7  8  1  0  0  0  0
  8  9  1  0  0  0  0
  9 10  2  0  0  0  0
 10 11  1  0  0  0  0
 11 12  1  0  0  0  0
 12 13  1  0  0  0  0
 13 14  1  0  0  0  0
 14 15  1  0  0  0  0
 15 16  1  0  0  0  0
 16 17  1  0  0  0  0
 17 18  1  0  0  0  0
 20 19  1  0  0  0  0
 22 21  1  0  0  0  0
 23 24  1  0  0  0  0
 24 25  1  0  0  0  0
 26 27  1  0  0  0  0
M  END
