pdbs/gam.pdb
 OpenBabel07281513453D

 17 17  0  0  1  0  0  0  0  0999 V2000
    0.7980    1.1690   -0.2150 C   0  0  1  0  0  0  0  0  0  0  0  0
    1.5160   -0.1410    0.1280 C   0  0  1  0  0  0  0  0  0  0  0  0
    0.6700   -1.3450   -0.2820 C   0  0  2  0  0  0  0  0  0  0  0  0
   -0.7260   -1.2290    0.3650 C   0  0  2  0  0  0  0  0  0  0  0  0
   -1.3520   -0.0290   -0.1260 O   0  0  0  0  0  0  0  0  0  0  0  0
   -0.6550    1.1500    0.2990 C   0  0  2  0  0  0  0  0  0  0  0  0
   -1.4250    2.3750   -0.2100 C   0  0  0  0  0  0  0  0  0  0  0  0
   -0.9000    3.5680    0.3720 O   0  0  0  0  0  0  0  0  0  0  0  0
   -1.4550    3.7630    1.1510 H   0  0  0  0  0  0  0  0  0  0  0  0
    1.5630    2.2480    0.3390 O   0  0  0  0  0  0  0  0  0  0  0  0
    0.9680    3.0280    0.3760 H   0  0  0  0  0  0  0  0  0  0  0  0
    2.7780   -0.2040   -0.5640 O   0  0  0  0  0  0  0  0  0  0  0  0
    3.1880    0.6720   -0.4140 H   0  0  0  0  0  0  0  0  0  0  0  0
   -0.7200   -1.1800    1.7940 O   0  0  0  0  0  0  0  0  0  0  0  0
   -0.4210   -2.4210    2.4140 C   0  0  0  0  0  0  0  0  0  0  0  0
    1.3540   -2.5600    0.0450 O   0  0  0  0  0  0  0  0  0  0  0  0
    2.2820   -2.4020   -0.2270 H   0  0  0  0  0  0  0  0  0  0  0  0
  1  2  1  0  0  0  0
  1  6  1  0  0  0  0
  1 10  1  1  0  0  0
  2 12  1  6  0  0  0
  3 16  1  1  0  0  0
  3  2  1  0  0  0  0
  3  4  1  0  0  0  0
  4 14  1  1  0  0  0
  5  6  1  0  0  0  0
  5  4  1  0  0  0  0
  6  7  1  6  0  0  0
  7  8  1  0  0  0  0
  8  9  1  0  0  0  0
 10 11  1  0  0  0  0
 12 13  1  0  0  0  0
 14 15  1  0  0  0  0
 17 16  1  0  0  0  0
M  END
