pdbs/gb7.pdb
 OpenBabel07281513453D

 24 24  0  0  1  0  0  0  0  0999 V2000
    0.7860    1.2070   -0.2070 C   0  0  1  0  0  0  0  0  0  0  0  0
    1.7910    0.0980    0.0840 C   0  0  1  0  0  0  0  0  0  0  0  0
    1.1090   -1.2380    0.3760 C   0  0  2  0  0  0  0  0  0  0  0  0
    0.0320   -1.0600    1.4740 C   0  0  1  0  0  0  0  0  0  0  0  0
   -0.8690    0.0030    1.1140 O   0  0  0  0  0  0  0  0  0  0  0  0
   -0.2360    1.2690    0.9370 C   0  0  2  0  0  0  0  0  0  0  0  0
   -0.7970   -2.2100    1.6530 O   0  0  0  0  0  0  0  0  0  0  0  0
   -0.1790   -3.4020    2.1220 C   0  0  0  0  0  0  0  0  0  0  0  0
    0.3380   -3.2680    3.5250 C   0  0  0  0  0  0  0  0  0  0  0  0
   -0.1330   -3.9560    4.5770 C   0  0  0  0  0  0  0  0  0  0  0  0
    0.3890   -3.8110    5.9790 C   0  0  0  0  0  0  0  0  0  0  0  0
    1.0530   -5.0980    6.4730 C   0  0  0  0  0  0  0  0  0  0  0  0
    1.4650   -4.9740    7.9420 C   0  0  0  0  0  0  0  0  0  0  0  0
    2.1520   -6.2440    8.4440 C   0  0  0  0  0  0  0  0  0  0  0  0
    2.4840   -6.1460    9.9250 C   0  0  0  0  0  0  0  0  0  0  0  0
    2.1480   -2.1560    0.7600 O   0  0  0  0  0  0  0  0  0  0  0  0
    2.8260   -2.0720    0.0580 H   0  0  0  0  0  0  0  0  0  0  0  0
    2.6870   -0.0630   -1.0310 O   0  0  0  0  0  0  0  0  0  0  0  0
    2.9550    0.8490   -1.2660 H   0  0  0  0  0  0  0  0  0  0  0  0
   -1.3320    2.3050    0.6470 C   0  0  0  0  0  0  0  0  0  0  0  0
   -0.7670    3.5930    0.4080 O   0  0  0  0  0  0  0  0  0  0  0  0
   -1.5170    4.2140    0.3400 H   0  0  0  0  0  0  0  0  0  0  0  0
    1.5250    2.4260   -0.3600 O   0  0  0  0  0  0  0  0  0  0  0  0
    0.8800    3.1580   -0.2390 H   0  0  0  0  0  0  0  0  0  0  0  0
  1 23  1  1  0  0  0
  1  2  1  0  0  0  0
  1  6  1  0  0  0  0
  2 18  1  6  0  0  0
  2  3  1  0  0  0  0
  3 16  1  1  0  0  0
  3  4  1  0  0  0  0
  4  7  1  6  0  0  0
  5  4  1  0  0  0  0
  6 20  1  6  0  0  0
  6  5  1  0  0  0  0
  7  8  1  0  0  0  0
  8  9  1  0  0  0  0
  9 10  2  0  0  0  0
 10 11  1  0  0  0  0
 11 12  1  0  0  0  0
 12 13  1  0  0  0  0
 13 14  1  0  0  0  0
 14 15  1  0  0  0  0
 17 16  1  0  0  0  0
 19 18  1  0  0  0  0
 21 20  1  0  0  0  0
 22 21  1  0  0  0  0
 23 24  1  0  0  0  0
M  END
