pdbs/gb8.pdb
 OpenBabel07281513453D

 25 25  0  0  1  0  0  0  0  0999 V2000
    0.7490    1.3950   -0.1410 C   0  0  1  0  0  0  0  0  0  0  0  0
    1.4890    0.0940    0.2040 C   0  0  1  0  0  0  0  0  0  0  0  0
    0.7280   -1.1590   -0.2510 C   0  0  2  0  0  0  0  0  0  0  0  0
   -0.6960   -1.0640    0.3270 C   0  0  1  0  0  0  0  0  0  0  0  0
   -1.3390    0.1060   -0.1710 O   0  0  0  0  0  0  0  0  0  0  0  0
   -0.7310    1.3190    0.2720 C   0  0  2  0  0  0  0  0  0  0  0  0
   -1.4800   -2.1900   -0.0600 O   0  0  0  0  0  0  0  0  0  0  0  0
   -2.0220   -2.8510    1.0770 C   0  0  0  0  0  0  0  0  0  0  0  0
   -3.1830   -3.6950    0.6600 C   0  0  0  0  0  0  0  0  0  0  0  0
   -4.1230   -4.0770    1.5350 C   0  0  0  0  0  0  0  0  0  0  0  0
   -5.3290   -4.9010    1.1850 C   0  0  0  0  0  0  0  0  0  0  0  0
   -6.0090   -5.4220    2.4550 C   0  0  0  0  0  0  0  0  0  0  0  0
   -7.2740   -6.2170    2.1420 C   0  0  0  0  0  0  0  0  0  0  0  0
   -7.9460   -6.6930    3.4310 C   0  0  0  0  0  0  0  0  0  0  0  0
   -9.2160   -7.4890    3.1410 C   0  0  0  0  0  0  0  0  0  0  0  0
   -9.8790   -7.9600    4.4250 C   0  0  0  0  0  0  0  0  0  0  0  0
    1.4080   -2.3430    0.1920 O   0  0  0  0  0  0  0  0  0  0  0  0
    1.8900   -2.1480    1.0140 H   0  0  0  0  0  0  0  0  0  0  0  0
    2.8180    0.1510   -0.3350 O   0  0  0  0  0  0  0  0  0  0  0  0
    2.7850   -0.1480   -1.2630 H   0  0  0  0  0  0  0  0  0  0  0  0
   -1.5610    2.4780   -0.3100 C   0  0  0  0  0  0  0  0  0  0  0  0
   -1.1720    3.7680    0.1390 O   0  0  0  0  0  0  0  0  0  0  0  0
   -0.6170    3.6680    0.9330 H   0  0  0  0  0  0  0  0  0  0  0  0
    1.3960    2.4660    0.5600 O   0  0  0  0  0  0  0  0  0  0  0  0
    2.3580    2.3100    0.4610 H   0  0  0  0  0  0  0  0  0  0  0  0
  1  2  1  0  0  0  0
  1  6  1  0  0  0  0
  1 24  1  1  0  0  0
  2 19  1  6  0  0  0
  3 17  1  1  0  0  0
  3  2  1  0  0  0  0
  3  4  1  0  0  0  0
  4  7  1  6  0  0  0
  5  6  1  0  0  0  0
  5  4  1  0  0  0  0
  6 21  1  6  0  0  0
  7  8  1  0  0  0  0
  9  8  1  0  0  0  0
  9 10  2  0  0  0  0
 11 10  1  0  0  0  0
 11 12  1  0  0  0  0
 13 12  1  0  0  0  0
 13 14  1  0  0  0  0
 15 14  1  0  0  0  0
 15 16  1  0  0  0  0
 17 18  1  0  0  0  0
 20 19  1  0  0  0  0
 21 22  1  0  0  0  0
 22 23  1  0  0  0  0
 25 24  1  0  0  0  0
M  END
